
 Created by Python create_sdf_string function

 29  0  0  0  0  0  0  0  0  0999 V2000
    0.0000    0.0000    0.0000 C   0  0  0  0  0  0  0  0  0  0  0  0
    2.1978   -0.8071    0.4703 C   0  0  0  0  0  0  0  0  0  0  0  0
    0.4914   -2.1148    0.1942 C   0  0  0  0  0  0  0  0  0  0  0  0
    2.0119    0.4234    0.3586 C   0  0  0  0  0  0  0  0  0  0  0  0
    1.4671   -0.6587   -0.7087 C   0  0  0  0  0  0  0  0  0  0  0  0
   -1.3296    2.0078    0.3544 C   0  0  0  0  0  0  0  0  0  0  0  0
    0.9237    1.3225    0.0436 C   0  0  0  0  0  0  0  0  0  0  0  0
   -1.1294   -1.2922    0.3390 C   0  0  0  0  0  0  0  0  0  0  0  0
   -1.3192   -0.3034    1.0534 C   0  0  0  0  0  0  0  0  0  0  0  0
   -1.3972   -0.2573    1.0273 C   0  0  0  0  0  0  0  0  0  0  0  0
   -1.0309    1.5027   -0.2981 C   0  0  0  0  0  0  0  0  0  0  0  0
    2.5229    0.5311    0.7222 C   0  0  0  0  0  0  0  0  0  0  0  0
   -0.2877   -0.7529    0.8792 C   0  0  0  0  0  0  0  0  0  0  0  0
   -2.6298    0.8456    0.5296 C   0  0  0  0  0  0  0  0  0  0  0  0
   -0.9760    2.0421   -1.0249 C   0  0  0  0  0  0  0  0  0  0  0  0
   -0.8734   -0.5373   -0.5434 C   0  0  0  0  0  0  0  0  0  0  0  0
   -2.1881   -0.8614    0.1461 C   0  0  0  0  0  0  0  0  0  0  0  0
   -2.0906    0.5185    1.1253 C   0  0  0  0  0  0  0  0  0  0  0  0
   -1.1696   -0.8007    0.3474 C   0  0  0  0  0  0  0  0  0  0  0  0
   -1.4262    0.1603    0.4329 C   0  0  0  0  0  0  0  0  0  0  0  0
   -0.2061    1.4243   -0.3560 C   0  0  0  0  0  0  0  0  0  0  0  0
   -0.3366    0.7840   -1.4676 C   0  0  0  0  0  0  0  0  0  0  0  0
    1.2999    1.3213   -1.8707 C   0  0  0  0  0  0  0  0  0  0  0  0
    0.4505   -1.0395   -0.0139 C   0  0  0  0  0  0  0  0  0  0  0  0
    0.6012    1.7400    0.3101 C   0  0  0  0  0  0  0  0  0  0  0  0
    1.6020   -1.0943    1.6587 C   0  0  0  0  0  0  0  0  0  0  0  0
   -0.2249   -1.2869    0.7467 C   0  0  0  0  0  0  0  0  0  0  0  0
   -1.3748    0.0073   -1.4289 C   0  0  0  0  0  0  0  0  0  0  0  0
   -1.1361   -1.7842    2.0523 C   0  0  0  0  0  0  0  0  0  0  0  0
M  END
$$$$

 Created by Python create_sdf_string function

 29 61  0  0  0  0  0  0  0  0999 V2000
    7.8222   -9.5587   18.1023 N   0  0  0  0  0  0  0  0  0  0  0  0
    6.8958   -8.3320   16.8969 C   0  0  0  0  0  0  0  0  0  0  0  0
    8.1335   -6.2214   15.2164 C   0  0  0  0  0  0  0  0  0  0  0  0
    8.7503   -7.8332   17.3633 F   0  0  0  0  0  0  0  0  0  0  0  0
    8.2073   -7.2648   16.2279 Se  0  0  0  0  0  0  0  0  0  0  0  0
    6.5013   -6.6592   15.2074 Cl  0  0  0  0  0  0  0  0  0  0  0  0
    7.8965   -7.6029   16.8219 N   0  0  0  0  0  0  0  0  0  0  0  0
    7.8974   -9.7764   17.1841 N   0  0  0  0  0  0  0  0  0  0  0  0
    7.0118   -7.9423   17.9708 Se  0  0  0  0  0  0  0  0  0  0  0  0
    7.3222   -7.6852   18.0161 P   0  0  0  0  0  0  0  0  0  0  0  0
    7.2414   -8.4322   19.2286 O   0  0  0  0  0  0  0  0  0  0  0  0
    7.3908   -8.9488   15.5881 F   0  0  0  0  0  0  0  0  0  0  0  0
    8.2903   -7.3763   16.9749 Br  0  0  0  0  0  0  0  0  0  0  0  0
    7.6594   -9.1630   17.2240 Se  0  0  0  0  0  0  0  0  0  0  0  0
    7.7172   -8.8184   16.2697 N   0  0  0  0  0  0  0  0  0  0  0  0
   10.5166   -8.6313   18.3639 N   0  0  0  0  0  0  0  0  0  0  0  0
    9.3095   -7.7701   16.9713 C   0  0  0  0  0  0  0  0  0  0  0  0
    8.5277   -8.4032   16.8371 Se  0  0  0  0  0  0  0  0  0  0  0  0
    7.5630   -9.1824   16.9228 He  0  0  0  0  0  0  0  0  0  0  0  0
    8.2100   -7.1489   16.7620 He  0  0  0  0  0  0  0  0  0  0  0  0
    9.2093   -8.7341   17.4773 He  0  0  0  0  0  0  0  0  0  0  0  0
    7.9960   -8.4123   17.9333 He  0  0  0  0  0  0  0  0  0  0  0  0
    6.4544   -9.3500   17.2448 He  0  0  0  0  0  0  0  0  0  0  0  0
    8.3823   -8.7454   16.0235 He  0  0  0  0  0  0  0  0  0  0  0  0
    4.5174   -7.5849   16.5059 He  0  0  0  0  0  0  0  0  0  0  0  0
    7.0402   -9.9255   17.1799 He  0  0  0  0  0  0  0  0  0  0  0  0
    7.1480   -7.0301   16.4887 He  0  0  0  0  0  0  0  0  0  0  0  0
    7.9640   -9.4895   16.0217 He  0  0  0  0  0  0  0  0  0  0  0  0
    8.3748   -9.0176   17.2828 He  0  0  0  0  0  0  0  0  0  0  0  0
  1  4  2  0
  1  5  2  0
  1  8  1  0
  1 11  4  0
  1 14  1  0
  2  3  3  0
  2  4  2  0
  2  5  2  0
  2  6  4  0
  2  9  2  0
  2 10  2  0
  2 12  2  0
  2 13  4  0
  2 15  2  0
  2 17  2  0
  2 18  2  0
  3  6  4  0
  3  8  3  0
  3 11  4  0
  3 15  4  0
  3 16  2  0
  4  8  2  0
  4 11  2  0
  4 12  4  0
  4 13  2  0
  4 14  3  0
  5 13  4  0
  5 16  4  0
  5 18  1  0
  6 10  3  0
  6 13  4  0
  6 17  1  0
  6 18  4  0
  7  8  1  0
  7  9  3  0
  7 10  4  0
  7 12  3  0
  7 14  2  0
  7 17  3  0
  8  9  2  0
  8 13  1  0
  8 14  3  0
  8 17  1  0
  9 12  1  0
  9 13  2  0
  9 17  1  0
  9 18  4  0
 10 12  4  0
 10 18  1  0
 11 13  2  0
 11 15  1  0
 11 16  2  0
 11 18  1  0
 12 15  4  0
 13 16  3  0
 14 15  2  0
 14 16  4  0
 14 18  2  0
 15 16  1  0
 15 17  2  0
 16 18  4  0
M  END
$$$$

 Created by Python create_sdf_string function

 29  0  0  0  0  0  0  0  0  0999 V2000
    7.2569   -9.1424   18.4056 F   0  0  0  0  0  0  0  0  0  0  0  0
    5.7501   -8.2197   16.9043 F   0  0  0  0  0  0  0  0  0  0  0  0
    6.7939   -9.4241   16.6863 F   0  0  0  0  0  0  0  0  0  0  0  0
    8.1390   -5.3093   15.8609 F   0  0  0  0  0  0  0  0  0  0  0  0
    9.2211   -6.8120   18.1201 F   0  0  0  0  0  0  0  0  0  0  0  0
    8.4111   -6.2058   16.0972 F   0  0  0  0  0  0  0  0  0  0  0  0
    8.7693   -5.6338   16.7670 F   0  0  0  0  0  0  0  0  0  0  0  0
    6.4302   -6.6918   15.3572 F   0  0  0  0  0  0  0  0  0  0  0  0
    9.6540   -8.1864   18.0499 F   0  0  0  0  0  0  0  0  0  0  0  0
    7.9217   -6.6079   16.8929 F   0  0  0  0  0  0  0  0  0  0  0  0
    7.3391   -9.9067   17.2101 F   0  0  0  0  0  0  0  0  0  0  0  0
    8.0274   -7.9720   18.3636 F   0  0  0  0  0  0  0  0  0  0  0  0
    5.2657   -9.6718   17.5845 F   0  0  0  0  0  0  0  0  0  0  0  0
    6.2797   -7.6310   18.2280 F   0  0  0  0  0  0  0  0  0  0  0  0
    6.9307   -7.2187   18.1886 F   0  0  0  0  0  0  0  0  0  0  0  0
    6.5206   -8.3874   19.1084 F   0  0  0  0  0  0  0  0  0  0  0  0
    8.2617   -8.5116   15.4907 F   0  0  0  0  0  0  0  0  0  0  0  0
    6.7082   -9.0983   15.4803 F   0  0  0  0  0  0  0  0  0  0  0  0
    8.7757   -6.1343   17.3815 F   0  0  0  0  0  0  0  0  0  0  0  0
    6.9710   -9.1435   17.3883 F   0  0  0  0  0  0  0  0  0  0  0  0
    7.4033   -8.6848   16.0097 F   0  0  0  0  0  0  0  0  0  0  0  0
    4.9777   -7.8829   16.7302 F   0  0  0  0  0  0  0  0  0  0  0  0
    5.8841  -10.3551   17.1488 F   0  0  0  0  0  0  0  0  0  0  0  0
   10.0626   -7.7395   18.5672 F   0  0  0  0  0  0  0  0  0  0  0  0
    9.8668   -6.4860   17.6194 F   0  0  0  0  0  0  0  0  0  0  0  0
    6.8997   -6.4704   16.1207 F   0  0  0  0  0  0  0  0  0  0  0  0
    8.8525   -7.7572   16.9859 F   0  0  0  0  0  0  0  0  0  0  0  0
    7.3558   -9.4631   15.5447 F   0  0  0  0  0  0  0  0  0  0  0  0
    8.5461   -8.8269   17.6266 F   0  0  0  0  0  0  0  0  0  0  0  0
M  END
$$$$

 Created by Python create_sdf_string function

 29 32  0  0  0  0  0  0  0  0999 V2000
    6.3727  -10.7893   17.4450 Cl  0  0  0  0  0  0  0  0  0  0  0  0
    5.0746   -7.3169   17.6766 N   0  0  0  0  0  0  0  0  0  0  0  0
    7.9044   -5.1283   15.1873 N   0  0  0  0  0  0  0  0  0  0  0  0
    9.6360   -6.6921   18.5646 O   0  0  0  0  0  0  0  0  0  0  0  0
    7.0854   -6.6302   16.2183 P   0  0  0  0  0  0  0  0  0  0  0  0
    8.7503   -5.7298   15.9015 N   0  0  0  0  0  0  0  0  0  0  0  0
    7.6752   -7.2491   17.4802 O   0  0  0  0  0  0  0  0  0  0  0  0
    7.2324   -8.7961   18.3137 Se  0  0  0  0  0  0  0  0  0  0  0  0
    7.8835   -8.4112   18.6395 C   0  0  0  0  0  0  0  0  0  0  0  0
    4.9663   -8.9413   19.1455 O   0  0  0  0  0  0  0  0  0  0  0  0
    7.2895   -8.3029   14.6961 N   0  0  0  0  0  0  0  0  0  0  0  0
    7.1722   -8.1677   17.3409 N   0  0  0  0  0  0  0  0  0  0  0  0
    7.5156   -9.9221   17.1745 S   0  0  0  0  0  0  0  0  0  0  0  0
    6.5049   -7.2674   16.0089 Cl  0  0  0  0  0  0  0  0  0  0  0  0
    6.8049  -10.3176   16.4883 He  0  0  0  0  0  0  0  0  0  0  0  0
    6.1192   -7.6729   14.9752 He  0  0  0  0  0  0  0  0  0  0  0  0
    9.4146   -8.4316   16.8314 He  0  0  0  0  0  0  0  0  0  0  0  0
    5.5440   -6.7362   18.3056 He  0  0  0  0  0  0  0  0  0  0  0  0
    5.7267   -6.4924   16.7415 He  0  0  0  0  0  0  0  0  0  0  0  0
    7.3541   -5.8068   18.5298 He  0  0  0  0  0  0  0  0  0  0  0  0
    6.7091   -8.7352   17.1048 He  0  0  0  0  0  0  0  0  0  0  0  0
    7.9633   -7.6690   17.5443 He  0  0  0  0  0  0  0  0  0  0  0  0
    7.4913   -9.8887   17.4370 He  0  0  0  0  0  0  0  0  0  0  0  0
    5.8867   -7.5974   17.6271 He  0  0  0  0  0  0  0  0  0  0  0  0
    9.5598   -7.1177   17.6180 He  0  0  0  0  0  0  0  0  0  0  0  0
   10.3411   -6.5992   16.3190 He  0  0  0  0  0  0  0  0  0  0  0  0
    9.5099   -6.4827   17.3860 He  0  0  0  0  0  0  0  0  0  0  0  0
    7.6319   -9.5375   14.4139 He  0  0  0  0  0  0  0  0  0  0  0  0
    9.1391   -9.4872   18.7618 He  0  0  0  0  0  0  0  0  0  0  0  0
  1  3  4  0
  1  4  2  0
  1  5  4  0
  1  6  2  0
  1  8  1  0
  1  9  4  0
  1 10  4  0
  1 11  4  0
  1 12  1  0
  2  5  1  0
  2  9  1  0
  2 10  1  0
  2 13  2  0
  2 14  2  0
  3  4  1  0
  3  9  1  0
  3 14  4  0
  4  7  1  0
  5  7  3  0
  5 10  4  0
  5 12  2  0
  6 10  2  0
  6 11  4  0
  6 13  2  0
  7  9  2  0
  8 11  3  0
  9 10  2  0
  9 11  1  0
  9 14  2  0
 10 12  4  0
 12 13  3  0
 13 14  1  0
M  END
$$$$

 Created by Python create_sdf_string function

 29  0  0  0  0  0  0  0  0  0999 V2000
    5.7546  -10.2641   17.2376 F   0  0  0  0  0  0  0  0  0  0  0  0
    4.7199   -7.6441   17.1755 F   0  0  0  0  0  0  0  0  0  0  0  0
    6.4475  -10.0188   16.2224 F   0  0  0  0  0  0  0  0  0  0  0  0
    8.1318   -5.2996   15.8948 F   0  0  0  0  0  0  0  0  0  0  0  0
    9.9165   -6.2759   18.6851 F   0  0  0  0  0  0  0  0  0  0  0  0
    7.1637   -6.4092   15.9350 F   0  0  0  0  0  0  0  0  0  0  0  0
    9.2368   -4.9838   16.4047 F   0  0  0  0  0  0  0  0  0  0  0  0
    5.8956   -7.5533   15.1775 F   0  0  0  0  0  0  0  0  0  0  0  0
    9.1771   -8.0442   17.0489 F   0  0  0  0  0  0  0  0  0  0  0  0
    8.0329   -6.7268   17.5963 F   0  0  0  0  0  0  0  0  0  0  0  0
    7.0121   -8.5568   18.3952 F   0  0  0  0  0  0  0  0  0  0  0  0
    8.0408   -8.0677   18.4844 F   0  0  0  0  0  0  0  0  0  0  0  0
    5.7318   -7.2007   18.1076 F   0  0  0  0  0  0  0  0  0  0  0  0
    5.4384   -6.8206   16.1504 F   0  0  0  0  0  0  0  0  0  0  0  0
    8.4690   -5.6798   18.6274 F   0  0  0  0  0  0  0  0  0  0  0  0
    5.2785   -9.0154   18.3099 F   0  0  0  0  0  0  0  0  0  0  0  0
    7.3354   -8.1346   15.3774 F   0  0  0  0  0  0  0  0  0  0  0  0
    6.3498   -8.6431   16.7999 F   0  0  0  0  0  0  0  0  0  0  0  0
    8.4988   -7.3691   17.5650 F   0  0  0  0  0  0  0  0  0  0  0  0
    7.3339   -9.4824   17.2152 F   0  0  0  0  0  0  0  0  0  0  0  0
    7.0377   -8.0547   17.2615 F   0  0  0  0  0  0  0  0  0  0  0  0
    5.4443   -7.6395   17.3939 F   0  0  0  0  0  0  0  0  0  0  0  0
    7.4214   -9.4271   16.8681 F   0  0  0  0  0  0  0  0  0  0  0  0
    9.8737   -6.5542   18.0597 F   0  0  0  0  0  0  0  0  0  0  0  0
   10.2504   -5.3883   17.0215 F   0  0  0  0  0  0  0  0  0  0  0  0
    6.1776   -6.9067   15.6404 F   0  0  0  0  0  0  0  0  0  0  0  0
    9.9288   -5.5240   17.5761 F   0  0  0  0  0  0  0  0  0  0  0  0
    7.4769   -9.0173   15.3290 F   0  0  0  0  0  0  0  0  0  0  0  0
    9.1301   -8.3808   18.5477 F   0  0  0  0  0  0  0  0  0  0  0  0
M  END
$$$$

 Created by Python create_sdf_string function

 29 32  0  0  0  0  0  0  0  0999 V2000
    5.6400   -8.5473   18.4074 Cl  0  0  0  0  0  0  0  0  0  0  0  0
    9.9118   -5.1066   16.6915 F   0  0  0  0  0  0  0  0  0  0  0  0
    7.9995   -5.9345   18.9324 N   0  0  0  0  0  0  0  0  0  0  0  0
    8.7833   -8.5176   16.8288 N   0  0  0  0  0  0  0  0  0  0  0  0
    5.1586   -6.7461   17.9221 C   0  0  0  0  0  0  0  0  0  0  0  0
    5.6335   -8.3996   13.9700 S   0  0  0  0  0  0  0  0  0  0  0  0
    8.5794   -6.1888   18.4130 Cl  0  0  0  0  0  0  0  0  0  0  0  0
   10.8929   -7.9088   16.9886 P   0  0  0  0  0  0  0  0  0  0  0  0
    6.5561  -10.3020   16.8670 O   0  0  0  0  0  0  0  0  0  0  0  0
    9.4967   -7.7917   18.9656 O   0  0  0  0  0  0  0  0  0  0  0  0
    5.9164   -8.0668   15.9706 O   0  0  0  0  0  0  0  0  0  0  0  0
    8.9022   -3.0229   17.0336 O   0  0  0  0  0  0  0  0  0  0  0  0
   10.5164   -6.7698   18.0051 N   0  0  0  0  0  0  0  0  0  0  0  0
    7.3799  -10.1750   16.0120 He  0  0  0  0  0  0  0  0  0  0  0  0
    4.8065   -8.5853   14.0867 He  0  0  0  0  0  0  0  0  0  0  0  0
    7.8583   -5.9579   15.0965 He  0  0  0  0  0  0  0  0  0  0  0  0
   10.0554   -6.5145   18.1077 He  0  0  0  0  0  0  0  0  0  0  0  0
    7.4403   -5.6916   16.1697 He  0  0  0  0  0  0  0  0  0  0  0  0
    5.7452   -8.5880   13.7420 He  0  0  0  0  0  0  0  0  0  0  0  0
    8.0860   -6.8445   17.5146 He  0  0  0  0  0  0  0  0  0  0  0  0
    5.8938   -9.1265   18.7500 He  0  0  0  0  0  0  0  0  0  0  0  0
    3.8697  -10.1048   18.2155 He  0  0  0  0  0  0  0  0  0  0  0  0
    8.1497   -8.4370   15.6299 He  0  0  0  0  0  0  0  0  0  0  0  0
    5.9886   -7.4357   15.9967 He  0  0  0  0  0  0  0  0  0  0  0  0
    7.9510  -10.1952   17.9961 He  0  0  0  0  0  0  0  0  0  0  0  0
    4.1437   -8.1615   16.6912 He  0  0  0  0  0  0  0  0  0  0  0  0
    7.2619   -8.0150   17.7527 He  0  0  0  0  0  0  0  0  0  0  0  0
    9.8039   -4.3668   17.1211 He  0  0  0  0  0  0  0  0  0  0  0  0
    7.6250   -7.2945   15.0837 He  0  0  0  0  0  0  0  0  0  0  0  0
  1  9  2  0
  1 11  4  0
  2  4  3  0
  2  6  4  0
  2  7  3  0
  2 10  2  0
  2 12  1  0
  2 13  3  0
  3  4  2  0
  3  5  4  0
  3  9  2  0
  3 12  4  0
  3 13  4  0
  4  5  4  0
  4  7  1  0
  4 10  4  0
  4 11  3  0
  4 13  1  0
  5  7  3  0
  5  8  1  0
  5 10  2  0
  5 11  3  0
  6  8  4  0
  6 11  4  0
  6 13  2  0
  7  8  3  0
  8  9  2  0
  8 10  2  0
  8 11  4  0
  9 11  3  0
 10 13  1  0
 11 13  1  0
M  END
$$$$

 Created by Python create_sdf_string function

 29  0  0  0  0  0  0  0  0  0999 V2000
    7.0854   -9.2404   15.9022 F   0  0  0  0  0  0  0  0  0  0  0  0
    5.7384   -8.4724   18.1139 F   0  0  0  0  0  0  0  0  0  0  0  0
    4.4709   -8.6346   15.1857 F   0  0  0  0  0  0  0  0  0  0  0  0
    7.6317   -6.2295   15.6792 F   0  0  0  0  0  0  0  0  0  0  0  0
   10.0184   -6.0286   18.4188 F   0  0  0  0  0  0  0  0  0  0  0  0
    7.8679   -5.8532   16.1782 F   0  0  0  0  0  0  0  0  0  0  0  0
   10.0039   -4.6029   16.7548 F   0  0  0  0  0  0  0  0  0  0  0  0
    5.5645   -8.5661   14.9645 F   0  0  0  0  0  0  0  0  0  0  0  0
    8.1663   -6.6871   17.4842 F   0  0  0  0  0  0  0  0  0  0  0  0
    8.6908   -5.7426   18.4929 F   0  0  0  0  0  0  0  0  0  0  0  0
    5.8823   -8.8552   18.3858 F   0  0  0  0  0  0  0  0  0  0  0  0
    8.5413   -8.2419   16.8996 F   0  0  0  0  0  0  0  0  0  0  0  0
    5.4495   -7.3731   17.4479 F   0  0  0  0  0  0  0  0  0  0  0  0
    5.4630   -8.2728   14.9913 F   0  0  0  0  0  0  0  0  0  0  0  0
    9.0975   -5.8422   18.2816 F   0  0  0  0  0  0  0  0  0  0  0  0
    4.3616   -9.5194   17.7444 F   0  0  0  0  0  0  0  0  0  0  0  0
    7.9874   -8.3361   15.6567 F   0  0  0  0  0  0  0  0  0  0  0  0
    5.8480   -7.2560   15.9381 F   0  0  0  0  0  0  0  0  0  0  0  0
    9.9837   -7.6471   17.7552 F   0  0  0  0  0  0  0  0  0  0  0  0
    7.7478   -9.0472   17.5507 F   0  0  0  0  0  0  0  0  0  0  0  0
    4.0874   -8.3747   16.6852 F   0  0  0  0  0  0  0  0  0  0  0  0
    7.2423   -7.7926   17.7297 F   0  0  0  0  0  0  0  0  0  0  0  0
    6.1773   -9.7724   16.7147 F   0  0  0  0  0  0  0  0  0  0  0  0
    9.4752   -7.5900   18.6810 F   0  0  0  0  0  0  0  0  0  0  0  0
   10.1246   -4.3029   17.1618 F   0  0  0  0  0  0  0  0  0  0  0  0
    5.6681   -8.0626   16.0979 C   0  0  0  0  0  0  0  0  0  0  0  0
    9.6135   -3.8069   16.4426 F   0  0  0  0  0  0  0  0  0  0  0  0
    7.5433   -7.3393   15.3119 F   0  0  0  0  0  0  0  0  0  0  0  0
   10.1755   -6.3795   18.3639 F   0  0  0  0  0  0  0  0  0  0  0  0
M  END
$$$$

 Created by Python create_sdf_string function

 29 23  0  0  0  0  0  0  0  0999 V2000
    6.5274   -9.3507   16.1197 F   0  0  0  0  0  0  0  0  0  0  0  0
    5.9878   -8.2163   16.5619 F   0  0  0  0  0  0  0  0  0  0  0  0
    7.9098   -4.8186   15.1008 I   0  0  0  0  0  0  0  0  0  0  0  0
   10.7058   -5.8207   17.5419 C   0  0  0  0  0  0  0  0  0  0  0  0
    6.8024   -9.0996   18.7916 S   0  0  0  0  0  0  0  0  0  0  0  0
    4.5678   -6.9081   16.7422 N   0  0  0  0  0  0  0  0  0  0  0  0
    4.5320   -8.4121   14.4821 C   0  0  0  0  0  0  0  0  0  0  0  0
    8.1352   -6.2273   17.1284 N   0  0  0  0  0  0  0  0  0  0  0  0
    9.0379   -7.3157   17.5345 F   0  0  0  0  0  0  0  0  0  0  0  0
    9.7006   -3.3902   15.0399 F   0  0  0  0  0  0  0  0  0  0  0  0
    9.2800   -5.3851   18.2104 N   0  0  0  0  0  0  0  0  0  0  0  0
    5.7464  -10.3412   14.1818 He  0  0  0  0  0  0  0  0  0  0  0  0
    8.0547   -6.9860   15.4201 He  0  0  0  0  0  0  0  0  0  0  0  0
    9.7387   -6.2209   19.2152 He  0  0  0  0  0  0  0  0  0  0  0  0
   10.5587   -3.1451   16.2356 He  0  0  0  0  0  0  0  0  0  0  0  0
    7.0870   -8.6387   14.9252 He  0  0  0  0  0  0  0  0  0  0  0  0
    8.7321   -7.2785   18.9297 He  0  0  0  0  0  0  0  0  0  0  0  0
   10.0217   -9.1192   17.6834 He  0  0  0  0  0  0  0  0  0  0  0  0
    3.8213  -10.1111   18.4217 He  0  0  0  0  0  0  0  0  0  0  0  0
    8.2998   -8.1343   17.7924 He  0  0  0  0  0  0  0  0  0  0  0  0
    6.8161   -7.0683   16.9619 He  0  0  0  0  0  0  0  0  0  0  0  0
   10.7612   -8.9169   16.5922 He  0  0  0  0  0  0  0  0  0  0  0  0
    8.5164   -8.5452   17.9361 He  0  0  0  0  0  0  0  0  0  0  0  0
    3.9388   -7.0137   15.8694 He  0  0  0  0  0  0  0  0  0  0  0  0
    7.3560   -6.2745   18.7721 He  0  0  0  0  0  0  0  0  0  0  0  0
    6.2305   -9.4302   17.1313 He  0  0  0  0  0  0  0  0  0  0  0  0
    4.9085   -8.2198   16.2184 He  0  0  0  0  0  0  0  0  0  0  0  0
    9.4702   -4.6393   16.8318 He  0  0  0  0  0  0  0  0  0  0  0  0
    8.9030   -6.1013   16.4623 He  0  0  0  0  0  0  0  0  0  0  0  0
  1  2  4  0
  1  3  2  0
  1  4  3  0
  1  5  1  0
  1  8  3  0
  1 10  3  0
  2  3  4  0
  2  4  2  0
  2  9  4  0
  2 11  1  0
  3  4  2  0
  3  8  4  0
  3  9  3  0
  4  6  1  0
  4  7  4  0
  4  8  2  0
  4  9  1  0
  5  6  4  0
  5 10  2  0
  6  7  3  0
  6  9  1  0
  7  9  4  0
  7 11  3  0
M  END
$$$$

 Created by Python create_sdf_string function

 29  0  0  0  0  0  0  0  0  0999 V2000
    6.4380   -9.2601   16.2886 F   0  0  0  0  0  0  0  0  0  0  0  0
    5.9036   -8.3932   16.6016 F   0  0  0  0  0  0  0  0  0  0  0  0
    5.8653   -9.7449   15.1668 F   0  0  0  0  0  0  0  0  0  0  0  0
    7.7747   -7.1941   15.6010 F   0  0  0  0  0  0  0  0  0  0  0  0
    9.9661   -6.0207   19.1774 F   0  0  0  0  0  0  0  0  0  0  0  0
    8.3541   -4.9974   15.8352 F   0  0  0  0  0  0  0  0  0  0  0  0
   10.6220   -3.7058   16.6833 F   0  0  0  0  0  0  0  0  0  0  0  0
    7.1138   -8.5063   15.6334 F   0  0  0  0  0  0  0  0  0  0  0  0
    8.9265   -7.2902   18.6295 F   0  0  0  0  0  0  0  0  0  0  0  0
   10.3200   -5.3277   17.8921 F   0  0  0  0  0  0  0  0  0  0  0  0
    6.4812   -8.5652   18.4898 F   0  0  0  0  0  0  0  0  0  0  0  0
    9.3129   -8.1719   17.8023 F   0  0  0  0  0  0  0  0  0  0  0  0
    4.6436   -7.5118   16.7661 F   0  0  0  0  0  0  0  0  0  0  0  0
    4.6175   -8.6649   15.3318 C   0  0  0  0  0  0  0  0  0  0  0  0
    8.2399   -6.1334   17.0342 F   0  0  0  0  0  0  0  0  0  0  0  0
    4.5059   -9.4653   17.7443 F   0  0  0  0  0  0  0  0  0  0  0  0
    8.0556   -7.9542   17.7999 C   0  0  0  0  0  0  0  0  0  0  0  0
    6.6840   -7.1300   16.8442 F   0  0  0  0  0  0  0  0  0  0  0  0
    9.3292   -8.3085   16.9458 F   0  0  0  0  0  0  0  0  0  0  0  0
    8.2385   -8.3730   17.7658 F   0  0  0  0  0  0  0  0  0  0  0  0
    4.1261   -7.6270   16.1124 F   0  0  0  0  0  0  0  0  0  0  0  0
    7.5571   -6.4765   18.3344 F   0  0  0  0  0  0  0  0  0  0  0  0
    5.9899   -9.1347   17.2023 F   0  0  0  0  0  0  0  0  0  0  0  0
    9.1112   -7.0790   17.9071 F   0  0  0  0  0  0  0  0  0  0  0  0
    9.8199   -3.6708   15.7555 F   0  0  0  0  0  0  0  0  0  0  0  0
    4.5161   -8.4480   16.4201 C   0  0  0  0  0  0  0  0  0  0  0  0
    9.8858   -4.3693   16.9253 C   0  0  0  0  0  0  0  0  0  0  0  0
    9.0332   -5.7118   16.6468 F   0  0  0  0  0  0  0  0  0  0  0  0
    9.6596   -5.1586   18.3174 F   0  0  0  0  0  0  0  0  0  0  0  0
M  END
$$$$

 Created by Python create_sdf_string function

 29 65  0  0  0  0  0  0  0  0999 V2000
    7.4110   -8.6853   14.8163 Cl  0  0  0  0  0  0  0  0  0  0  0  0
    5.4822  -10.7872   15.3991 N   0  0  0  0  0  0  0  0  0  0  0  0
    9.6551   -7.2779   20.3591 C   0  0  0  0  0  0  0  0  0  0  0  0
    9.4660   -3.4734   14.4753 F   0  0  0  0  0  0  0  0  0  0  0  0
   10.9911   -3.5276   15.8267 C   0  0  0  0  0  0  0  0  0  0  0  0
   11.1548   -5.5741   20.7133 N   0  0  0  0  0  0  0  0  0  0  0  0
    6.1217  -10.0300   18.3904 S   0  0  0  0  0  0  0  0  0  0  0  0
    9.2012   -8.9572   16.0210 P   0  0  0  0  0  0  0  0  0  0  0  0
    5.6932   -7.3689   15.2364 F   0  0  0  0  0  0  0  0  0  0  0  0
    8.8623   -5.4712   18.7914 N   0  0  0  0  0  0  0  0  0  0  0  0
    8.2838   -8.6056   18.8757 F   0  0  0  0  0  0  0  0  0  0  0  0
    6.8820   -5.5907   15.0580 N   0  0  0  0  0  0  0  0  0  0  0  0
    9.0431   -8.6102   17.6013 N   0  0  0  0  0  0  0  0  0  0  0  0
    8.6730   -8.9549   17.4966 Cl  0  0  0  0  0  0  0  0  0  0  0  0
    4.1370   -7.6802   16.9931 C   0  0  0  0  0  0  0  0  0  0  0  0
    7.9611   -6.6149   18.5614 O   0  0  0  0  0  0  0  0  0  0  0  0
    5.3454  -10.6086   16.2173 Se  0  0  0  0  0  0  0  0  0  0  0  0
    7.9699   -6.7721   19.0480 B   0  0  0  0  0  0  0  0  0  0  0  0
    4.9691   -7.8736   16.2934 N   0  0  0  0  0  0  0  0  0  0  0  0
   12.4997   -5.4359   18.8004 C   0  0  0  0  0  0  0  0  0  0  0  0
    6.0281   -7.8757   16.3975 He  0  0  0  0  0  0  0  0  0  0  0  0
    8.6846   -7.3895   15.0722 He  0  0  0  0  0  0  0  0  0  0  0  0
    7.5734   -8.8706   16.0995 He  0  0  0  0  0  0  0  0  0  0  0  0
    9.6661   -6.5144   19.3226 He  0  0  0  0  0  0  0  0  0  0  0  0
    5.3689   -7.1277   18.3031 He  0  0  0  0  0  0  0  0  0  0  0  0
    4.7398   -9.5687   15.8590 He  0  0  0  0  0  0  0  0  0  0  0  0
   10.4717   -4.9438   13.1593 He  0  0  0  0  0  0  0  0  0  0  0  0
   10.8298   -3.8746   18.0001 He  0  0  0  0  0  0  0  0  0  0  0  0
   10.2837   -4.8032   15.3034 He  0  0  0  0  0  0  0  0  0  0  0  0
  1  9  1  0
  1 10  4  0
  1 12  1  0
  1 13  2  0
  1 17  1  0
  1 18  4  0
  1 20  4  0
  2  3  3  0
  2  4  2  0
  2 10  2  0
  2 15  1  0
  2 19  3  0
  2 20  2  0
  3  4  1  0
  3  6  4  0
  3  7  1  0
  3  8  4  0
  3  9  2  0
  3 11  1  0
  3 12  1  0
  4  5  1  0
  4  8  2  0
  4 13  4  0
  4 15  2  0
  4 16  2  0
  5  7  3  0
  5  8  1  0
  5 10  2  0
  5 12  1  0
  5 14  3  0
  5 18  4  0
  5 20  1  0
  6  7  4  0
  6 10  4  0
  6 11  4  0
  6 13  1  0
  6 19  2  0
  7  9  4  0
  7 16  4  0
  7 18  1  0
  8 10  2  0
  8 11  2  0
  8 13  3  0
  9 10  2  0
  9 11  1  0
  9 12  1  0
  9 13  3  0
  9 18  3  0
 10 13  2  0
 10 14  4  0
 10 16  4  0
 10 18  2  0
 10 19  4  0
 11 13  4  0
 11 14  4  0
 12 14  4  0
 12 17  2  0
 12 18  1  0
 13 14  1  0
 13 16  4  0
 14 20  3  0
 15 20  2  0
 16 18  4  0
 16 19  4  0
 16 20  3  0
M  END
$$$$

 Created by Python create_sdf_string function

 29  1  0  0  0  0  0  0  0  0999 V2000
    5.8748   -7.8536   16.4760 C   0  0  0  0  0  0  0  0  0  0  0  0
    7.1879   -8.5173   15.4073 F   0  0  0  0  0  0  0  0  0  0  0  0
    5.7553  -10.0203   15.6215 F   0  0  0  0  0  0  0  0  0  0  0  0
    8.4211   -7.3675   15.4410 F   0  0  0  0  0  0  0  0  0  0  0  0
    9.9114   -6.6789   19.5199 F   0  0  0  0  0  0  0  0  0  0  0  0
    9.7661   -3.7474   15.7416 F   0  0  0  0  0  0  0  0  0  0  0  0
   10.9227   -3.7917   16.4540 C   0  0  0  0  0  0  0  0  0  0  0  0
    7.4895   -8.5942   16.1674 C   0  0  0  0  0  0  0  0  0  0  0  0
    9.9484   -6.0524   18.9719 C   0  0  0  0  0  0  0  0  0  0  0  0
   10.7928   -5.1031   19.9419 C   0  0  0  0  0  0  0  0  0  0  0  0
    5.8608   -9.1745   17.8731 F   0  0  0  0  0  0  0  0  0  0  0  0
    8.5988   -8.4657   16.0965 F   0  0  0  0  0  0  0  0  0  0  0  0
    5.6978   -7.4982   17.9561 F   0  0  0  0  0  0  0  0  0  0  0  0
    5.7898   -7.3081   15.6478 F   0  0  0  0  0  0  0  0  0  0  0  0
    9.5228   -5.3750   18.5247 C   0  0  0  0  0  0  0  0  0  0  0  0
    4.7248   -9.1614   16.0538 C   0  0  0  0  0  0  0  0  0  0  0  0
    8.1871   -8.1075   18.4322 F   0  0  0  0  0  0  0  0  0  0  0  0
    7.0932   -6.2257   15.7419 F   0  0  0  0  0  0  0  0  0  0  0  0
    8.8544   -8.0806   17.5317 F   0  0  0  0  0  0  0  0  0  0  0  0
    8.2827   -8.4241   17.3031 C   0  0  0  0  0  0  0  0  0  0  0  0
    4.4390   -8.1278   16.8495 F   0  0  0  0  0  0  0  0  0  0  0  0
    8.1467   -6.6017   18.0676 C   0  0  0  0  0  0  0  0  0  0  0  0
    5.4889   -9.9744   16.5274 F   0  0  0  0  0  0  0  0  0  0  0  0
    8.2704   -6.7132   18.3900 C   0  0  0  0  0  0  0  0  0  0  0  0
   10.6591   -4.0910   15.1703 F   0  0  0  0  0  0  0  0  0  0  0  0
    4.7945   -8.1943   16.5566 F   0  0  0  0  0  0  0  0  0  0  0  0
   10.8063   -4.0976   17.8425 C   0  0  0  0  0  0  0  0  0  0  0  0
   10.0681   -4.2620   16.1697 C   0  0  0  0  0  0  0  0  0  0  0  0
   11.2302   -4.8995   18.7711 C   0  0  0  0  0  0  0  0  0  0  0  0
  6 28  1  0
M  END
$$$$

 Created by Python create_sdf_string function

 29 20  0  0  0  0  0  0  0  0999 V2000
    5.6667   -7.3282   15.8540 C   0  0  0  0  0  0  0  0  0  0  0  0
    6.5940   -9.2056   15.1341 C   0  0  0  0  0  0  0  0  0  0  0  0
   10.3901   -5.1445   14.8298 F   0  0  0  0  0  0  0  0  0  0  0  0
    6.9722   -6.6029   20.5092 N   0  0  0  0  0  0  0  0  0  0  0  0
    8.3356   -7.8976   17.2331 O   0  0  0  0  0  0  0  0  0  0  0  0
    4.3344   -8.2898   17.2077 C   0  0  0  0  0  0  0  0  0  0  0  0
    7.4865   -6.4088   15.6748 C   0  0  0  0  0  0  0  0  0  0  0  0
    7.2601   -9.4103   19.0749 C   0  0  0  0  0  0  0  0  0  0  0  0
    3.2415   -9.1562   16.5828 C   0  0  0  0  0  0  0  0  0  0  0  0
   10.8224   -4.5116   18.6093 C   0  0  0  0  0  0  0  0  0  0  0  0
    7.8090   -8.8010   17.5744 He  0  0  0  0  0  0  0  0  0  0  0  0
    7.2437   -8.3115   14.2812 He  0  0  0  0  0  0  0  0  0  0  0  0
   10.0267   -6.4262   19.2779 He  0  0  0  0  0  0  0  0  0  0  0  0
   10.4153   -5.0597   16.7563 He  0  0  0  0  0  0  0  0  0  0  0  0
    7.8253   -8.2588   15.6389 He  0  0  0  0  0  0  0  0  0  0  0  0
   12.2292   -5.8695   20.0729 He  0  0  0  0  0  0  0  0  0  0  0  0
    7.4235  -10.0225   17.7569 He  0  0  0  0  0  0  0  0  0  0  0  0
    5.7880   -6.8949   16.6971 He  0  0  0  0  0  0  0  0  0  0  0  0
    9.6585   -7.0054   17.0037 He  0  0  0  0  0  0  0  0  0  0  0  0
    5.3991   -7.4549   15.8563 He  0  0  0  0  0  0  0  0  0  0  0  0
    7.9564   -7.6093   18.7682 He  0  0  0  0  0  0  0  0  0  0  0  0
    9.1151   -7.6823   18.3185 He  0  0  0  0  0  0  0  0  0  0  0  0
    8.7051   -7.0535   20.1349 He  0  0  0  0  0  0  0  0  0  0  0  0
    4.5081   -9.2669   15.7109 He  0  0  0  0  0  0  0  0  0  0  0  0
    9.2215   -6.2133   18.8444 He  0  0  0  0  0  0  0  0  0  0  0  0
   11.6686   -5.3266   16.1436 He  0  0  0  0  0  0  0  0  0  0  0  0
    4.5250   -7.1978   17.0338 He  0  0  0  0  0  0  0  0  0  0  0  0
   10.5510   -2.9277   18.1683 He  0  0  0  0  0  0  0  0  0  0  0  0
   10.1326   -6.3783   17.3909 He  0  0  0  0  0  0  0  0  0  0  0  0
  1  2  4  0
  1  3  1  0
  1  5  1  0
  1  6  2  0
  1  8  1  0
  1 10  1  0
  2  4  3  0
  2  7  4  0
  3  4  1  0
  3  7  3  0
  3  9  4  0
  3 10  1  0
  4  7  3  0
  4  8  1  0
  5  8  3  0
  5 10  2  0
  6 10  1  0
  7  8  2  0
  7  9  3  0
  8 10  1  0
M  END
$$$$

 Created by Python create_sdf_string function

 29  0  0  0  0  0  0  0  0  0999 V2000
    5.6611   -7.4391   15.9584 F   0  0  0  0  0  0  0  0  0  0  0  0
    7.7102   -8.3735   17.2983 F   0  0  0  0  0  0  0  0  0  0  0  0
    6.3596   -8.9643   15.7416 F   0  0  0  0  0  0  0  0  0  0  0  0
    7.3459   -8.3746   15.2784 F   0  0  0  0  0  0  0  0  0  0  0  0
   10.1411   -6.0010   19.1828 F   0  0  0  0  0  0  0  0  0  0  0  0
   10.0470   -4.2956   15.8793 F   0  0  0  0  0  0  0  0  0  0  0  0
   10.3063   -4.4208   16.9041 C   0  0  0  0  0  0  0  0  0  0  0  0
    7.8867   -8.1643   15.8329 F   0  0  0  0  0  0  0  0  0  0  0  0
    7.1403   -6.8687   18.7420 F   0  0  0  0  0  0  0  0  0  0  0  0
   11.0632   -5.1879   19.7821 F   0  0  0  0  0  0  0  0  0  0  0  0
    7.0494   -9.0902   17.2870 F   0  0  0  0  0  0  0  0  0  0  0  0
    8.3520   -7.6542   17.1526 F   0  0  0  0  0  0  0  0  0  0  0  0
    4.5346   -8.5104   17.1316 F   0  0  0  0  0  0  0  0  0  0  0  0
    5.9698   -7.1741   16.6256 F   0  0  0  0  0  0  0  0  0  0  0  0
    9.2428   -6.5669   17.0763 F   0  0  0  0  0  0  0  0  0  0  0  0
    5.2370   -7.6974   16.0945 F   0  0  0  0  0  0  0  0  0  0  0  0
    8.0057   -7.6540   18.3013 F   0  0  0  0  0  0  0  0  0  0  0  0
    7.5537   -6.4524   15.9155 F   0  0  0  0  0  0  0  0  0  0  0  0
    9.1382   -7.5647   18.2520 F   0  0  0  0  0  0  0  0  0  0  0  0
    6.7854   -8.4392   18.5261 F   0  0  0  0  0  0  0  0  0  0  0  0
    3.5884   -8.7671   16.6803 C   0  0  0  0  0  0  0  0  0  0  0  0
    9.4309   -7.0518   19.3207 F   0  0  0  0  0  0  0  0  0  0  0  0
    4.4148   -8.8196   15.9858 C   0  0  0  0  0  0  0  0  0  0  0  0
    9.6202   -5.8127   18.6608 F   0  0  0  0  0  0  0  0  0  0  0  0
   11.0282   -4.1707   16.6666 C   0  0  0  0  0  0  0  0  0  0  0  0
    4.4793   -7.6023   16.8445 F   0  0  0  0  0  0  0  0  0  0  0  0
   10.8543   -4.3832   18.6642 C   0  0  0  0  0  0  0  0  0  0  0  0
   10.9578   -3.4193   18.0255 F   0  0  0  0  0  0  0  0  0  0  0  0
    9.9505   -5.8002   17.5343 C   0  0  0  0  0  0  0  0  0  0  0  0
M  END
$$$$

 Created by Python create_sdf_string function

 29 18  0  0  0  0  0  0  0  0999 V2000
    4.8638   -7.5596   16.0789 F   0  0  0  0  0  0  0  0  0  0  0  0
    9.9299   -7.5175   19.1470 S   0  0  0  0  0  0  0  0  0  0  0  0
   10.8984   -3.3479   14.0066 S   0  0  0  0  0  0  0  0  0  0  0  0
    8.9486   -4.7293   17.5664 N   0  0  0  0  0  0  0  0  0  0  0  0
    5.3805   -6.4729   15.8539 I   0  0  0  0  0  0  0  0  0  0  0  0
    5.0110   -8.2550   15.9985 N   0  0  0  0  0  0  0  0  0  0  0  0
    9.3283   -7.8831   18.8819 S   0  0  0  0  0  0  0  0  0  0  0  0
    5.3043   -9.8912   17.2566 I   0  0  0  0  0  0  0  0  0  0  0  0
   10.2358   -3.6629   19.5548 S   0  0  0  0  0  0  0  0  0  0  0  0
   12.1657   -2.4238   19.7319 F   0  0  0  0  0  0  0  0  0  0  0  0
    5.2860   -6.8151   16.2014 He  0  0  0  0  0  0  0  0  0  0  0  0
    8.4851   -7.9605   17.8690 He  0  0  0  0  0  0  0  0  0  0  0  0
    6.8219   -6.8226   13.2502 He  0  0  0  0  0  0  0  0  0  0  0  0
    8.5878   -8.8154   15.8348 He  0  0  0  0  0  0  0  0  0  0  0  0
    7.8524   -7.8418   18.1287 He  0  0  0  0  0  0  0  0  0  0  0  0
    9.8514   -4.5200   17.8765 He  0  0  0  0  0  0  0  0  0  0  0  0
    8.6776   -9.3615   17.9338 He  0  0  0  0  0  0  0  0  0  0  0  0
    6.2078   -8.3191   16.4648 He  0  0  0  0  0  0  0  0  0  0  0  0
    5.6806  -10.3318   17.5262 He  0  0  0  0  0  0  0  0  0  0  0  0
    8.9743   -6.2064   16.2946 He  0  0  0  0  0  0  0  0  0  0  0  0
    5.7391   -5.8623   14.7849 He  0  0  0  0  0  0  0  0  0  0  0  0
    6.3331   -6.0577   17.9796 He  0  0  0  0  0  0  0  0  0  0  0  0
    6.3485   -8.3435   19.1789 He  0  0  0  0  0  0  0  0  0  0  0  0
    2.7605   -8.1816   15.4015 He  0  0  0  0  0  0  0  0  0  0  0  0
   11.3165   -7.0449   21.8508 He  0  0  0  0  0  0  0  0  0  0  0  0
    9.0592   -5.9426   19.8942 He  0  0  0  0  0  0  0  0  0  0  0  0
   11.8481   -5.5773   16.0977 He  0  0  0  0  0  0  0  0  0  0  0  0
    4.6165   -5.8429   15.7406 He  0  0  0  0  0  0  0  0  0  0  0  0
   10.6089   -6.0476   16.7553 He  0  0  0  0  0  0  0  0  0  0  0  0
  1  6  3  0
  1  9  2  0
  2  3  2  0
  2  4  4  0
  2  9  3  0
  3  8  1  0
  3  9  1  0
  3 10  2  0
  4  5  3  0
  4  8  3  0
  4 10  1  0
  5  6  3  0
  6  9  2  0
  7  9  3  0
  7 10  1  0
  8  9  2  0
  8 10  3  0
  9 10  1  0
M  END
$$$$

 Created by Python create_sdf_string function

 29  0  0  0  0  0  0  0  0  0999 V2000
    5.2220   -7.3122   16.0396 C   0  0  0  0  0  0  0  0  0  0  0  0
    8.5426   -7.6515   17.6897 C   0  0  0  0  0  0  0  0  0  0  0  0
    4.5775   -7.8792   16.1360 C   0  0  0  0  0  0  0  0  0  0  0  0
    7.0812   -7.0435   14.8931 F   0  0  0  0  0  0  0  0  0  0  0  0
    9.8951   -6.7865   18.8966 F   0  0  0  0  0  0  0  0  0  0  0  0
   10.6476   -3.7609   15.7233 C   0  0  0  0  0  0  0  0  0  0  0  0
    9.7119   -4.7177   17.3504 C   0  0  0  0  0  0  0  0  0  0  0  0
    8.2056   -8.3362   15.9673 F   0  0  0  0  0  0  0  0  0  0  0  0
    7.9146   -7.7429   17.8009 F   0  0  0  0  0  0  0  0  0  0  0  0
   10.3870   -4.4052   17.8720 C   0  0  0  0  0  0  0  0  0  0  0  0
    8.5372   -8.4807   17.4648 F   0  0  0  0  0  0  0  0  0  0  0  0
    6.4260   -8.4249   16.5674 C   0  0  0  0  0  0  0  0  0  0  0  0
    5.7962   -9.5293   17.3592 F   0  0  0  0  0  0  0  0  0  0  0  0
    5.4719   -6.9909   15.7451 F   0  0  0  0  0  0  0  0  0  0  0  0
    8.9273   -5.8385   16.4041 C   0  0  0  0  0  0  0  0  0  0  0  0
    4.7960   -8.3421   16.2198 C   0  0  0  0  0  0  0  0  0  0  0  0
    9.3835   -7.3478   18.5147 F   0  0  0  0  0  0  0  0  0  0  0  0
    6.0147   -6.4251   15.2427 F   0  0  0  0  0  0  0  0  0  0  0  0
    6.9532   -6.7253   17.7411 F   0  0  0  0  0  0  0  0  0  0  0  0
    6.5503   -8.3117   18.5035 F   0  0  0  0  0  0  0  0  0  0  0  0
    3.3946   -8.3817   16.0442 C   0  0  0  0  0  0  0  0  0  0  0  0
   10.6513   -5.4590   20.6146 O   0  0  0  0  0  0  0  0  0  0  0  0
    5.2274   -9.2395   17.3012 F   0  0  0  0  0  0  0  0  0  0  0  0
   10.0406   -5.4206   19.3110 C   0  0  0  0  0  0  0  0  0  0  0  0
   10.9219   -4.2389   16.7199 C   0  0  0  0  0  0  0  0  0  0  0  0
    4.3775   -6.8930   15.4882 F   0  0  0  0  0  0  0  0  0  0  0  0
   10.6814   -4.1279   19.5206 C   0  0  0  0  0  0  0  0  0  0  0  0
   11.1870   -3.2675   19.4347 O   0  0  0  0  0  0  0  0  0  0  0  0
   10.1922   -5.0044   17.0712 C   0  0  0  0  0  0  0  0  0  0  0  0
M  END
$$$$

 Created by Python create_sdf_string function

 29 31  0  0  0  0  0  0  0  0999 V2000
    5.8797   -8.4229   16.1243 C   0  0  0  0  0  0  0  0  0  0  0  0
    8.1187   -9.3565   18.2008 N   0  0  0  0  0  0  0  0  0  0  0  0
    4.4961   -6.6196   14.8889 P   0  0  0  0  0  0  0  0  0  0  0  0
    9.7029   -4.5059   16.0372 C   0  0  0  0  0  0  0  0  0  0  0  0
    9.0801   -5.7196   18.1367 O   0  0  0  0  0  0  0  0  0  0  0  0
    7.7303   -7.7696   15.5133 F   0  0  0  0  0  0  0  0  0  0  0  0
    4.8500   -6.7752   15.3991 Br  0  0  0  0  0  0  0  0  0  0  0  0
    8.5423   -4.6791   16.3876 F   0  0  0  0  0  0  0  0  0  0  0  0
   11.3517   -5.6791   21.0928 C   0  0  0  0  0  0  0  0  0  0  0  0
   10.6002   -7.3658   19.2822 S   0  0  0  0  0  0  0  0  0  0  0  0
    4.7328   -5.5856   15.3985 N   0  0  0  0  0  0  0  0  0  0  0  0
   11.1635   -3.4393   21.2767 N   0  0  0  0  0  0  0  0  0  0  0  0
   11.8991   -2.4563   19.4666 C   0  0  0  0  0  0  0  0  0  0  0  0
    6.2367   -6.0650   15.5871 He  0  0  0  0  0  0  0  0  0  0  0  0
   10.3069   -7.4183   18.4386 He  0  0  0  0  0  0  0  0  0  0  0  0
    6.6590   -7.4690   17.3846 He  0  0  0  0  0  0  0  0  0  0  0  0
    9.3527   -3.8848   16.8542 He  0  0  0  0  0  0  0  0  0  0  0  0
    9.1653   -7.2728   17.3226 He  0  0  0  0  0  0  0  0  0  0  0  0
    5.7147   -8.6796   17.9930 He  0  0  0  0  0  0  0  0  0  0  0  0
    5.9613   -9.2760   15.1930 He  0  0  0  0  0  0  0  0  0  0  0  0
    5.7025   -7.9000   15.8197 He  0  0  0  0  0  0  0  0  0  0  0  0
   10.0083   -6.4386   20.4181 He  0  0  0  0  0  0  0  0  0  0  0  0
    6.0296   -6.4173   14.0813 He  0  0  0  0  0  0  0  0  0  0  0  0
    6.2202   -4.8176   16.7005 He  0  0  0  0  0  0  0  0  0  0  0  0
    5.8496   -7.8214   19.5365 He  0  0  0  0  0  0  0  0  0  0  0  0
    2.8619   -9.9893   14.8810 He  0  0  0  0  0  0  0  0  0  0  0  0
    2.9046   -9.7788   17.1582 He  0  0  0  0  0  0  0  0  0  0  0  0
   11.3965   -3.7203   16.2095 He  0  0  0  0  0  0  0  0  0  0  0  0
    9.8794   -4.9892   17.1417 He  0  0  0  0  0  0  0  0  0  0  0  0
  1  2  3  0
  1  3  2  0
  1  4  4  0
  1  5  4  0
  1 11  3  0
  2  5  2  0
  2  6  4  0
  2 10  3  0
  2 11  1  0
  3  4  4  0
  3  8  3  0
  4 11  2  0
  4 13  2  0
  5  7  1  0
  5 10  3  0
  5 11  4  0
  5 13  2  0
  6  7  2  0
  6  8  4  0
  6  9  4  0
  6 11  1  0
  6 12  4  0
  7  8  2  0
  7  9  2  0
  7 10  4  0
  8 10  2  0
  8 11  1  0
  8 12  2  0
  9 10  4  0
 11 12  3  0
 12 13  3  0
M  END
$$$$

 Created by Python create_sdf_string function

 29  0  0  0  0  0  0  0  0  0999 V2000
    5.7878   -8.5858   16.3307 C   0  0  0  0  0  0  0  0  0  0  0  0
    8.0712   -8.4467   17.7327 F   0  0  0  0  0  0  0  0  0  0  0  0
    4.1443   -7.3787   15.3060 C   0  0  0  0  0  0  0  0  0  0  0  0
    6.6384   -6.5998   15.6472 C   0  0  0  0  0  0  0  0  0  0  0  0
    9.8378   -7.1084   18.4893 C   0  0  0  0  0  0  0  0  0  0  0  0
    9.8797   -4.2613   16.3966 C   0  0  0  0  0  0  0  0  0  0  0  0
    9.6676   -5.6841   18.1293 C   0  0  0  0  0  0  0  0  0  0  0  0
    7.8201   -8.0845   15.8296 F   0  0  0  0  0  0  0  0  0  0  0  0
    6.8984   -7.7879   17.4588 C   0  0  0  0  0  0  0  0  0  0  0  0
   10.0134   -4.1199   16.7714 C   0  0  0  0  0  0  0  0  0  0  0  0
    8.8989   -7.2545   17.5033 C   0  0  0  0  0  0  0  0  0  0  0  0
    5.7359   -8.6462   17.8212 F   0  0  0  0  0  0  0  0  0  0  0  0
    5.8065   -9.0677   15.7343 C   0  0  0  0  0  0  0  0  0  0  0  0
    4.5141   -7.5471   15.6179 C   0  0  0  0  0  0  0  0  0  0  0  0
    9.0129   -4.8659   16.3087 C   0  0  0  0  0  0  0  0  0  0  0  0
    5.5687   -8.3021   16.0074 C   0  0  0  0  0  0  0  0  0  0  0  0
   10.4801   -5.5628   19.6889 C   0  0  0  0  0  0  0  0  0  0  0  0
    6.0190   -6.8674   14.8649 F   0  0  0  0  0  0  0  0  0  0  0  0
    7.3288   -5.8001   15.9650 F   0  0  0  0  0  0  0  0  0  0  0  0
    6.2931   -8.1075   18.5028 F   0  0  0  0  0  0  0  0  0  0  0  0
    3.1668   -8.9837   15.5201 C   0  0  0  0  0  0  0  0  0  0  0  0
   11.0686   -4.8223   20.6227 C   0  0  0  0  0  0  0  0  0  0  0  0
    3.6424   -9.1568   16.8418 C   0  0  0  0  0  0  0  0  0  0  0  0
   10.1083   -6.6198   19.0687 C   0  0  0  0  0  0  0  0  0  0  0  0
   11.0261   -3.6128   16.7160 C   0  0  0  0  0  0  0  0  0  0  0  0
    4.8023   -6.7873   15.2869 F   0  0  0  0  0  0  0  0  0  0  0  0
   11.0859   -3.8606   20.5957 C   0  0  0  0  0  0  0  0  0  0  0  0
   11.1216   -3.4586   19.2311 C   0  0  0  0  0  0  0  0  0  0  0  0
   10.1177   -4.7735   17.5128 C   0  0  0  0  0  0  0  0  0  0  0  0
M  END
$$$$

 Created by Python create_sdf_string function

 29 30  0  0  0  0  0  0  0  0999 V2000
    5.7139   -8.1886   14.7451 N   0  0  0  0  0  0  0  0  0  0  0  0
    4.6193   -7.2551   15.6743 S   0  0  0  0  0  0  0  0  0  0  0  0
    8.2809   -6.1167   15.7162 C   0  0  0  0  0  0  0  0  0  0  0  0
    8.6576   -7.8557   17.5367 F   0  0  0  0  0  0  0  0  0  0  0  0
    9.5523   -4.4946   16.8097 C   0  0  0  0  0  0  0  0  0  0  0  0
    7.4543   -8.7974   17.6784 O   0  0  0  0  0  0  0  0  0  0  0  0
    5.5842   -8.6548   15.2775 C   0  0  0  0  0  0  0  0  0  0  0  0
    2.8107   -7.6326   14.6985 P   0  0  0  0  0  0  0  0  0  0  0  0
    7.0512   -2.8489   16.3187 Cl  0  0  0  0  0  0  0  0  0  0  0  0
    4.1154   -6.0569   17.1264 N   0  0  0  0  0  0  0  0  0  0  0  0
    9.1813   -5.0919   17.8965 Se  0  0  0  0  0  0  0  0  0  0  0  0
    3.2539   -6.8111   15.1612 S   0  0  0  0  0  0  0  0  0  0  0  0
   11.0276   -2.8450   20.3677 Cl  0  0  0  0  0  0  0  0  0  0  0  0
    8.5229   -9.2186   18.2167 He  0  0  0  0  0  0  0  0  0  0  0  0
    7.3871   -7.4326   15.1689 He  0  0  0  0  0  0  0  0  0  0  0  0
    9.5183   -7.2068   18.8848 He  0  0  0  0  0  0  0  0  0  0  0  0
    9.1429   -3.6968   14.4680 He  0  0  0  0  0  0  0  0  0  0  0  0
    8.6009   -7.1560   14.6550 He  0  0  0  0  0  0  0  0  0  0  0  0
    9.8148   -7.0269   17.4657 He  0  0  0  0  0  0  0  0  0  0  0  0
    5.3585   -7.5983   16.1234 He  0  0  0  0  0  0  0  0  0  0  0  0
   10.4372   -6.1602   18.7907 He  0  0  0  0  0  0  0  0  0  0  0  0
    5.9635   -6.7536   17.0943 He  0  0  0  0  0  0  0  0  0  0  0  0
    5.7020   -7.8607   16.7816 He  0  0  0  0  0  0  0  0  0  0  0  0
    4.4760   -9.7214   15.8993 He  0  0  0  0  0  0  0  0  0  0  0  0
   10.4325   -3.5473   23.0255 He  0  0  0  0  0  0  0  0  0  0  0  0
    3.4153   -9.9404   15.9511 He  0  0  0  0  0  0  0  0  0  0  0  0
   13.1189   -5.3996   16.4438 He  0  0  0  0  0  0  0  0  0  0  0  0
   10.5568   -1.2050   21.9576 He  0  0  0  0  0  0  0  0  0  0  0  0
    9.6912   -4.0830   18.2673 He  0  0  0  0  0  0  0  0  0  0  0  0
  1  3  4  0
  1  5  1  0
  1 13  3  0
  2  3  2  0
  2  4  3  0
  2  6  3  0
  2 10  1  0
  2 11  1  0
  3 10  2  0
  3 12  2  0
  4  5  3  0
  4  8  1  0
  4 10  2  0
  4 11  3  0
  4 13  4  0
  5  6  4  0
  5  9  4  0
  5 11  4  0
  6 10  2  0
  6 12  2  0
  6 13  1  0
  7  9  1  0
  8  9  2  0
  8 10  3  0
  9 11  3  0
  9 13  2  0
 10 12  1  0
 11 12  2  0
 11 13  3  0
 12 13  2  0
M  END
$$$$

 Created by Python create_sdf_string function

 29  1  0  0  0  0  0  0  0  0999 V2000
    5.8917   -8.4271   15.4780 C   0  0  0  0  0  0  0  0  0  0  0  0
    8.4148   -8.3058   17.8132 C   0  0  0  0  0  0  0  0  0  0  0  0
    4.4527   -7.5622   15.8113 C   0  0  0  0  0  0  0  0  0  0  0  0
    7.5308   -7.6476   15.6425 C   0  0  0  0  0  0  0  0  0  0  0  0
    9.6991   -6.5961   18.7545 C   0  0  0  0  0  0  0  0  0  0  0  0
    9.6072   -3.9969   15.7662 C   0  0  0  0  0  0  0  0  0  0  0  0
    8.3518   -6.1152   16.1468 C   0  0  0  0  0  0  0  0  0  0  0  0
    8.3796   -7.6121   15.4474 F   0  0  0  0  0  0  0  0  0  0  0  0
    8.5887   -7.6935   17.5420 C   0  0  0  0  0  0  0  0  0  0  0  0
    9.9846   -4.4647   17.1162 C   0  0  0  0  0  0  0  0  0  0  0  0
    9.5515   -6.5150   17.8208 C   0  0  0  0  0  0  0  0  0  0  0  0
    7.3106   -8.4412   17.5306 C   0  0  0  0  0  0  0  0  0  0  0  0
    5.7097   -8.8490   15.7930 C   0  0  0  0  0  0  0  0  0  0  0  0
    2.7674   -8.2320   15.4312 C   0  0  0  0  0  0  0  0  0  0  0  0
    8.8344   -3.9530   15.8969 C   0  0  0  0  0  0  0  0  0  0  0  0
    5.4747   -7.7549   16.2874 C   0  0  0  0  0  0  0  0  0  0  0  0
   10.3381   -5.2927   19.2079 C   0  0  0  0  0  0  0  0  0  0  0  0
    4.3408   -7.0761   16.5295 C   0  0  0  0  0  0  0  0  0  0  0  0
    6.2702   -7.1812   17.2356 C   0  0  0  0  0  0  0  0  0  0  0  0
    5.8808   -8.1252   17.0940 C   0  0  0  0  0  0  0  0  0  0  0  0
    4.4898   -9.1634   16.1551 C   0  0  0  0  0  0  0  0  0  0  0  0
   10.7573   -3.8477   21.7779 C   0  0  0  0  0  0  0  0  0  0  0  0
    3.4071   -9.1343   16.2100 C   0  0  0  0  0  0  0  0  0  0  0  0
    9.9651   -5.0010   18.3100 C   0  0  0  0  0  0  0  0  0  0  0  0
   11.2256   -4.2819   17.2055 C   0  0  0  0  0  0  0  0  0  0  0  0
    3.2817   -7.2859   15.5640 C   0  0  0  0  0  0  0  0  0  0  0  0
   10.8569   -3.7998   20.5449 C   0  0  0  0  0  0  0  0  0  0  0  0
   10.8115   -3.1469   21.4639 C   0  0  0  0  0  0  0  0  0  0  0  0
   10.4522   -4.2711   18.9244 C   0  0  0  0  0  0  0  0  0  0  0  0
 22 28  1  0
M  END
$$$$

 Created by Python create_sdf_string function

 29 33  0  0  0  0  0  0  0  0999 V2000
   10.5741   -8.4492   18.9367 C   0  0  0  0  0  0  0  0  0  0  0  0
   10.0932   -3.0213   14.5444 Cl  0  0  0  0  0  0  0  0  0  0  0  0
    8.5488   -7.7686   15.1882 S   0  0  0  0  0  0  0  0  0  0  0  0
    9.9221   -5.0465   17.0148 O   0  0  0  0  0  0  0  0  0  0  0  0
    9.0271   -7.4060   18.3411 S   0  0  0  0  0  0  0  0  0  0  0  0
    6.6858   -8.9382   19.1771 C   0  0  0  0  0  0  0  0  0  0  0  0
    2.6151   -7.7750   14.9961 F   0  0  0  0  0  0  0  0  0  0  0  0
    8.4515   -4.1921   16.5219 P   0  0  0  0  0  0  0  0  0  0  0  0
    6.6581   -9.7478   15.8156 C   0  0  0  0  0  0  0  0  0  0  0  0
    5.6571   -8.4287   17.4520 F   0  0  0  0  0  0  0  0  0  0  0  0
   10.0095   -5.4617   19.1868 C   0  0  0  0  0  0  0  0  0  0  0  0
    5.6102   -9.2419   15.0933 O   0  0  0  0  0  0  0  0  0  0  0  0
    9.5846   -3.7853   19.2918 N   0  0  0  0  0  0  0  0  0  0  0  0
   10.5631   -4.0043   20.5001 C   0  0  0  0  0  0  0  0  0  0  0  0
    8.2162   -6.2368   15.0965 He  0  0  0  0  0  0  0  0  0  0  0  0
    8.3559   -7.2075   17.7651 He  0  0  0  0  0  0  0  0  0  0  0  0
    4.7333   -6.8253   17.6312 He  0  0  0  0  0  0  0  0  0  0  0  0
    7.8833   -8.2359   17.4192 He  0  0  0  0  0  0  0  0  0  0  0  0
    7.3285   -6.9360   17.8778 He  0  0  0  0  0  0  0  0  0  0  0  0
    7.7887   -7.4368   17.3267 He  0  0  0  0  0  0  0  0  0  0  0  0
    6.3352   -8.6425   14.4632 He  0  0  0  0  0  0  0  0  0  0  0  0
   11.0956   -4.8054   18.6163 He  0  0  0  0  0  0  0  0  0  0  0  0
    4.5734   -8.3860   15.0303 He  0  0  0  0  0  0  0  0  0  0  0  0
    6.4100   -8.8909   17.4428 He  0  0  0  0  0  0  0  0  0  0  0  0
    4.1282   -9.3962   16.1646 He  0  0  0  0  0  0  0  0  0  0  0  0
   12.1843   -2.9921   23.2771 He  0  0  0  0  0  0  0  0  0  0  0  0
    2.9779   -8.0908   16.2287 He  0  0  0  0  0  0  0  0  0  0  0  0
   11.8803   -5.5699   17.2813 He  0  0  0  0  0  0  0  0  0  0  0  0
   10.3354   -3.4167   20.1432 He  0  0  0  0  0  0  0  0  0  0  0  0
  1  7  4  0
  1  9  4  0
  1 12  2  0
  2  5  2  0
  2  8  3  0
  2 10  1  0
  2 11  1  0
  2 14  3  0
  3  8  4  0
  3 11  3  0
  3 13  1  0
  4  5  2  0
  4  6  2  0
  4  7  2  0
  4  9  1  0
  4 12  2  0
  4 13  3  0
  5  7  3  0
  5  8  2  0
  5 10  1  0
  6 12  3  0
  6 14  2  0
  7  9  3  0
  7 12  2  0
  7 13  3  0
  7 14  4  0
  8 11  1  0
  8 13  1  0
  8 14  3  0
  9 11  3  0
 10 12  2  0
 12 13  3  0
 12 14  1  0
M  END
$$$$

 Created by Python create_sdf_string function

 29  3  0  0  0  0  0  0  0  0999 V2000
    8.1461   -6.3548   15.8076 F   0  0  0  0  0  0  0  0  0  0  0  0
    8.6196   -7.0054   17.7614 C   0  0  0  0  0  0  0  0  0  0  0  0
    4.8135   -7.7071   17.2593 C   0  0  0  0  0  0  0  0  0  0  0  0
    8.0183   -8.2073   17.3848 C   0  0  0  0  0  0  0  0  0  0  0  0
    9.8811   -7.5576   18.6023 C   0  0  0  0  0  0  0  0  0  0  0  0
    9.9711   -3.8565   15.8895 C   0  0  0  0  0  0  0  0  0  0  0  0
    7.5879   -6.9261   17.8594 F   0  0  0  0  0  0  0  0  0  0  0  0
    8.3391   -7.8025   15.5630 F   0  0  0  0  0  0  0  0  0  0  0  0
    8.0303   -7.3860   17.1418 C   0  0  0  0  0  0  0  0  0  0  0  0
   10.0611   -4.7443   17.2746 C   0  0  0  0  0  0  0  0  0  0  0  0
    9.1984   -6.9808   18.2840 C   0  0  0  0  0  0  0  0  0  0  0  0
    6.6005   -8.3222   18.5780 F   0  0  0  0  0  0  0  0  0  0  0  0
    6.2680   -8.7332   15.3405 C   0  0  0  0  0  0  0  0  0  0  0  0
    2.9865   -8.4577   15.6416 C   0  0  0  0  0  0  0  0  0  0  0  0
    9.2604   -4.6225   16.4766 C   0  0  0  0  0  0  0  0  0  0  0  0
    6.7153   -9.1935   15.9289 C   0  0  0  0  0  0  0  0  0  0  0  0
   10.8576   -4.6742   18.9133 C   0  0  0  0  0  0  0  0  0  0  0  0
    4.6210   -8.5349   15.5894 C   0  0  0  0  0  0  0  0  0  0  0  0
    6.3317   -8.5285   17.3713 C   0  0  0  0  0  0  0  0  0  0  0  0
    5.5082   -8.4470   17.4096 C   0  0  0  0  0  0  0  0  0  0  0  0
    3.9255   -8.8360   16.4115 C   0  0  0  0  0  0  0  0  0  0  0  0
   11.2249   -3.5395   22.0166 C   0  0  0  0  0  0  0  0  0  0  0  0
    3.3461   -8.4943   16.4825 C   0  0  0  0  0  0  0  0  0  0  0  0
   10.4005   -5.2800   19.1867 C   0  0  0  0  0  0  0  0  0  0  0  0
   10.8021   -4.7200   17.6572 C   0  0  0  0  0  0  0  0  0  0  0  0
    5.5779   -8.8775   15.5312 C   0  0  0  0  0  0  0  0  0  0  0  0
   10.3659   -4.2654   19.4415 C   0  0  0  0  0  0  0  0  0  0  0  0
   10.9354   -4.0875   20.8862 C   0  0  0  0  0  0  0  0  0  0  0  0
   10.8273   -3.8626   20.5478 C   0  0  0  0  0  0  0  0  0  0  0  0
  6 15  1  0
 13 26  1  0
 28 29  1  0
M  END
$$$$

 Created by Python create_sdf_string function

 29 64  0  0  0  0  0  0  0  0999 V2000
    4.4308   -7.2614   16.9419 N   0  0  0  0  0  0  0  0  0  0  0  0
    7.7570   -6.8624   17.4306 P   0  0  0  0  0  0  0  0  0  0  0  0
    8.9491   -8.5187   18.4906 N   0  0  0  0  0  0  0  0  0  0  0  0
    5.9823   -7.2076   17.0709 O   0  0  0  0  0  0  0  0  0  0  0  0
   10.7364   -5.5401   17.7565 O   0  0  0  0  0  0  0  0  0  0  0  0
    8.4556   -7.2786   20.2949 Se  0  0  0  0  0  0  0  0  0  0  0  0
    7.6663   -8.8513   17.0474 S   0  0  0  0  0  0  0  0  0  0  0  0
    4.5932   -9.9353   16.1949 N   0  0  0  0  0  0  0  0  0  0  0  0
   11.5596   -4.9969   17.0712 F   0  0  0  0  0  0  0  0  0  0  0  0
   10.0599   -5.5844   18.5078 O   0  0  0  0  0  0  0  0  0  0  0  0
    4.0828   -7.6813   14.9635 P   0  0  0  0  0  0  0  0  0  0  0  0
    6.3578   -9.1476   17.4987 C   0  0  0  0  0  0  0  0  0  0  0  0
    4.1134   -8.5674   17.9699 O   0  0  0  0  0  0  0  0  0  0  0  0
   11.4808   -4.7864   21.1194 O   0  0  0  0  0  0  0  0  0  0  0  0
    3.7627   -9.6909   16.1425 O   0  0  0  0  0  0  0  0  0  0  0  0
   12.2057   -5.8917   17.8405 P   0  0  0  0  0  0  0  0  0  0  0  0
    6.1977  -10.0325   15.0964 C   0  0  0  0  0  0  0  0  0  0  0  0
    9.4109   -4.0391   19.2522 P   0  0  0  0  0  0  0  0  0  0  0  0
    9.1783   -3.8720   21.3573 C   0  0  0  0  0  0  0  0  0  0  0  0
    7.2527   -5.9046   15.7371 He  0  0  0  0  0  0  0  0  0  0  0  0
    8.4679   -7.4530   20.1172 He  0  0  0  0  0  0  0  0  0  0  0  0
   10.8655   -3.0541   16.0653 He  0  0  0  0  0  0  0  0  0  0  0  0
    7.2771   -6.4692   15.3719 He  0  0  0  0  0  0  0  0  0  0  0  0
    6.6921   -7.5381   16.2701 He  0  0  0  0  0  0  0  0  0  0  0  0
    7.0433   -9.4435   19.5620 He  0  0  0  0  0  0  0  0  0  0  0  0
    6.2414  -10.2802   18.1329 He  0  0  0  0  0  0  0  0  0  0  0  0
    4.9466   -8.7974   18.0212 He  0  0  0  0  0  0  0  0  0  0  0  0
    8.1138   -5.6068   18.5633 He  0  0  0  0  0  0  0  0  0  0  0  0
   11.2564   -3.7241   20.7846 He  0  0  0  0  0  0  0  0  0  0  0  0
  1  6  1  0
  1  7  2  0
  1  8  4  0
  1 12  1  0
  1 14  2  0
  1 16  4  0
  2  3  3  0
  2  5  1  0
  2  6  1  0
  2 12  2  0
  2 13  2  0
  2 15  3  0
  2 17  3  0
  2 19  3  0
  3  7  4  0
  3  8  4  0
  3 13  2  0
  3 16  2  0
  3 17  3  0
  3 18  1  0
  4 10  1  0
  4 11  4  0
  4 14  2  0
  4 15  2  0
  4 17  1  0
  4 18  4  0
  5 10  1  0
  5 15  1  0
  5 16  2  0
  5 18  1  0
  5 19  1  0
  6 12  3  0
  6 14  4  0
  6 15  2  0
  6 16  3  0
  6 17  4  0
  6 18  1  0
  7 14  4  0
  7 17  2  0
  7 19  3  0
  8 15  2  0
  8 17  2  0
  8 18  1  0
  9 16  1  0
  9 17  2  0
  9 18  2  0
 10 12  2  0
 10 14  3  0
 10 17  3  0
 10 18  3  0
 10 19  2  0
 12 13  3  0
 12 15  2  0
 12 16  4  0
 12 17  3  0
 12 18  1  0
 12 19  2  0
 13 18  2  0
 14 15  3  0
 14 16  2  0
 14 17  3  0
 14 19  4  0
 15 16  3  0
 17 18  4  0
M  END
$$$$

 Created by Python create_sdf_string function

 29  3  0  0  0  0  0  0  0  0999 V2000
    7.5535   -6.0604   16.0055 F   0  0  0  0  0  0  0  0  0  0  0  0
    9.1742   -7.3518   19.0219 C   0  0  0  0  0  0  0  0  0  0  0  0
    4.7613   -7.7045   16.6555 C   0  0  0  0  0  0  0  0  0  0  0  0
    8.2637   -6.7506   17.3845 C   0  0  0  0  0  0  0  0  0  0  0  0
    8.9661   -8.0534   17.8740 F   0  0  0  0  0  0  0  0  0  0  0  0
   10.6170   -3.8533   16.5044 C   0  0  0  0  0  0  0  0  0  0  0  0
    6.1242   -7.4146   16.9371 C   0  0  0  0  0  0  0  0  0  0  0  0
    7.4269   -6.6033   15.6586 F   0  0  0  0  0  0  0  0  0  0  0  0
    6.8303   -7.3989   16.2160 C   0  0  0  0  0  0  0  0  0  0  0  0
   10.3946   -5.0976   17.8501 C   0  0  0  0  0  0  0  0  0  0  0  0
    9.1244   -7.3227   19.1940 F   0  0  0  0  0  0  0  0  0  0  0  0
    7.0266   -8.5441   18.7513 F   0  0  0  0  0  0  0  0  0  0  0  0
    7.8210   -8.5174   16.8321 F   0  0  0  0  0  0  0  0  0  0  0  0
    4.6542   -9.4418   16.2426 C   0  0  0  0  0  0  0  0  0  0  0  0
   10.9550   -4.4335   17.3126 C   0  0  0  0  0  0  0  0  0  0  0  0
    5.9180   -9.6214   17.5886 F   0  0  0  0  0  0  0  0  0  0  0  0
   10.1845   -5.4109   18.5572 C   0  0  0  0  0  0  0  0  0  0  0  0
    4.4067   -7.9128   15.7610 C   0  0  0  0  0  0  0  0  0  0  0  0
    5.0426   -8.8506   17.5385 C   0  0  0  0  0  0  0  0  0  0  0  0
    6.3907   -8.6969   17.2894 C   0  0  0  0  0  0  0  0  0  0  0  0
    4.2231   -8.7849   17.4136 C   0  0  0  0  0  0  0  0  0  0  0  0
   11.0560   -4.6082   20.8968 C   0  0  0  0  0  0  0  0  0  0  0  0
    3.6364   -9.0872   16.3245 C   0  0  0  0  0  0  0  0  0  0  0  0
    8.8064   -5.7938   18.2773 F   0  0  0  0  0  0  0  0  0  0  0  0
   11.4582   -5.0124   17.9984 C   0  0  0  0  0  0  0  0  0  0  0  0
    6.2390   -9.4123   15.5961 F   0  0  0  0  0  0  0  0  0  0  0  0
   10.1813   -4.4319   19.2649 C   0  0  0  0  0  0  0  0  0  0  0  0
   11.0205   -3.9307   20.7215 C   0  0  0  0  0  0  0  0  0  0  0  0
   10.3306   -3.9996   20.8679 C   0  0  0  0  0  0  0  0  0  0  0  0
  1  8  1  0
  2 11  1  0
 28 29  1  0
M  END
$$$$

 Created by Python create_sdf_string function

 29 46  0  0  0  0  0  0  0  0999 V2000
    6.2162   -7.8989   17.0019 C   0  0  0  0  0  0  0  0  0  0  0  0
    9.9365   -6.6020   18.5702 N   0  0  0  0  0  0  0  0  0  0  0  0
    4.5304   -6.5078   16.6552 Cl  0  0  0  0  0  0  0  0  0  0  0  0
    8.1553   -5.2150   15.2258 N   0  0  0  0  0  0  0  0  0  0  0  0
    8.1340   -8.4120   17.7953 Cl  0  0  0  0  0  0  0  0  0  0  0  0
    7.0100   -8.1924   17.6745 C   0  0  0  0  0  0  0  0  0  0  0  0
    6.9012   -7.7311   15.5579 N   0  0  0  0  0  0  0  0  0  0  0  0
   10.4527   -3.5557   18.3105 P   0  0  0  0  0  0  0  0  0  0  0  0
    7.1020   -8.6168   16.2249 F   0  0  0  0  0  0  0  0  0  0  0  0
    4.2678   -8.9845   15.6205 C   0  0  0  0  0  0  0  0  0  0  0  0
    4.4396   -8.2651   18.7953 C   0  0  0  0  0  0  0  0  0  0  0  0
    5.7766   -8.7391   17.4428 Cl  0  0  0  0  0  0  0  0  0  0  0  0
    4.0159   -8.7053   15.7592 S   0  0  0  0  0  0  0  0  0  0  0  0
    7.0206   -9.6735   15.4447 N   0  0  0  0  0  0  0  0  0  0  0  0
   10.8501   -3.2321   20.1580 B   0  0  0  0  0  0  0  0  0  0  0  0
   11.3583   -4.4538   19.3338 C   0  0  0  0  0  0  0  0  0  0  0  0
    9.1681   -4.9820   16.5567 He  0  0  0  0  0  0  0  0  0  0  0  0
    7.0814   -6.6385   15.9889 He  0  0  0  0  0  0  0  0  0  0  0  0
    8.5619   -7.1721   19.2359 He  0  0  0  0  0  0  0  0  0  0  0  0
    9.5061   -8.2136   15.7960 He  0  0  0  0  0  0  0  0  0  0  0  0
   11.3835   -3.1012   17.1207 He  0  0  0  0  0  0  0  0  0  0  0  0
    6.8351   -9.6284   17.4066 He  0  0  0  0  0  0  0  0  0  0  0  0
    9.8658   -4.0809   19.9395 He  0  0  0  0  0  0  0  0  0  0  0  0
    3.6450   -8.2860   15.3485 He  0  0  0  0  0  0  0  0  0  0  0  0
    4.1887   -8.4737   19.8994 He  0  0  0  0  0  0  0  0  0  0  0  0
   10.4800   -6.6740   22.5210 He  0  0  0  0  0  0  0  0  0  0  0  0
    6.8073   -6.2498   17.1978 He  0  0  0  0  0  0  0  0  0  0  0  0
   11.7219   -5.1610   18.6484 He  0  0  0  0  0  0  0  0  0  0  0  0
   10.4208   -4.8794   22.9484 He  0  0  0  0  0  0  0  0  0  0  0  0
  1  2  3  0
  1  5  3  0
  1  7  1  0
  1  8  3  0
  1  9  1  0
  1 11  4  0
  1 12  1  0
  1 14  4  0
  1 15  4  0
  1 16  2  0
  2  4  2  0
  2  5  3  0
  2 10  2  0
  2 12  3  0
  2 13  3  0
  3  4  2  0
  3 11  4  0
  3 16  1  0
  4  5  1  0
  4  6  3  0
  4  7  1  0
  4 15  2  0
  5  8  1  0
  5  9  1  0
  5 11  1  0
  5 13  2  0
  6  8  3  0
  6 13  4  0
  6 14  2  0
  6 16  2  0
  7  9  2  0
  7 10  4  0
  7 13  2  0
  8 13  3  0
  8 14  4  0
  9 10  1  0
  9 11  1  0
  9 16  1  0
 10 13  4  0
 10 15  3  0
 10 16  4  0
 11 13  2  0
 11 14  4  0
 13 14  1  0
 13 16  1  0
 14 15  1  0
M  END
$$$$

 Created by Python create_sdf_string function

 29  1  0  0  0  0  0  0  0  0999 V2000
    6.1896   -8.0099   16.8989 C   0  0  0  0  0  0  0  0  0  0  0  0
    9.8862   -6.1954   18.5652 C   0  0  0  0  0  0  0  0  0  0  0  0
    4.6188   -7.3155   16.4050 F   0  0  0  0  0  0  0  0  0  0  0  0
    8.3091   -5.4017   15.8927 F   0  0  0  0  0  0  0  0  0  0  0  0
    8.2953   -8.0759   17.7737 F   0  0  0  0  0  0  0  0  0  0  0  0
    9.6376   -4.7156   16.7959 C   0  0  0  0  0  0  0  0  0  0  0  0
    7.2802   -7.9942   17.7125 F   0  0  0  0  0  0  0  0  0  0  0  0
    6.8462   -7.5853   15.6025 F   0  0  0  0  0  0  0  0  0  0  0  0
    7.3884   -6.5208   16.0423 F   0  0  0  0  0  0  0  0  0  0  0  0
   10.7211   -4.0686   18.0339 C   0  0  0  0  0  0  0  0  0  0  0  0
    9.1968   -7.0096   18.5108 C   0  0  0  0  0  0  0  0  0  0  0  0
    7.3651   -8.3341   16.2409 C   0  0  0  0  0  0  0  0  0  0  0  0
    8.8922   -8.1334   16.1427 F   0  0  0  0  0  0  0  0  0  0  0  0
    4.2436   -8.7769   15.9739 C   0  0  0  0  0  0  0  0  0  0  0  0
   10.9138   -3.6451   17.2361 C   0  0  0  0  0  0  0  0  0  0  0  0
    6.7862   -9.2394   17.2369 F   0  0  0  0  0  0  0  0  0  0  0  0
   10.4810   -4.5263   19.8359 C   0  0  0  0  0  0  0  0  0  0  0  0
    3.6738   -8.5461   16.0751 C   0  0  0  0  0  0  0  0  0  0  0  0
    4.9706   -8.5411   17.7618 C   0  0  0  0  0  0  0  0  0  0  0  0
    5.6635   -8.5447   17.3122 C   0  0  0  0  0  0  0  0  0  0  0  0
    5.4449   -8.7729   18.7094 F   0  0  0  0  0  0  0  0  0  0  0  0
   10.9608   -5.1679   21.5455 C   0  0  0  0  0  0  0  0  0  0  0  0
    3.8926   -8.6346   16.3046 C   0  0  0  0  0  0  0  0  0  0  0  0
    7.5417   -6.5190   17.0603 F   0  0  0  0  0  0  0  0  0  0  0  0
   10.7964   -4.9969   18.7600 C   0  0  0  0  0  0  0  0  0  0  0  0
    6.9966   -9.1596   15.5474 F   0  0  0  0  0  0  0  0  0  0  0  0
   11.0609   -3.7556   20.3342 C   0  0  0  0  0  0  0  0  0  0  0  0
   10.9049   -4.4238   19.5329 C   0  0  0  0  0  0  0  0  0  0  0  0
   10.9505   -4.4438   21.9781 O   0  0  0  0  0  0  0  0  0  0  0  0
 22 29  4  0
M  END
$$$$

 Created by Python create_sdf_string function

 29 61  0  0  0  0  0  0  0  0999 V2000
    5.4074   -8.2887   15.9561 N   0  0  0  0  0  0  0  0  0  0  0  0
    7.7646   -7.0827   17.6576 F   0  0  0  0  0  0  0  0  0  0  0  0
    9.8313   -4.4503   16.1048 C   0  0  0  0  0  0  0  0  0  0  0  0
    7.8015   -7.5772   16.3529 F   0  0  0  0  0  0  0  0  0  0  0  0
    7.7854   -5.6908   16.0227 C   0  0  0  0  0  0  0  0  0  0  0  0
    8.3269   -5.8425   15.1112 C   0  0  0  0  0  0  0  0  0  0  0  0
    6.0246   -9.7671   17.3465 C   0  0  0  0  0  0  0  0  0  0  0  0
   10.0306   -9.7832   16.5657 N   0  0  0  0  0  0  0  0  0  0  0  0
    3.8788   -9.7822   14.5995 O   0  0  0  0  0  0  0  0  0  0  0  0
   10.5341   -3.2085   18.0175 F   0  0  0  0  0  0  0  0  0  0  0  0
    8.9978   -9.9662   15.7588 Br  0  0  0  0  0  0  0  0  0  0  0  0
   10.5674   -3.2903   19.9878 S   0  0  0  0  0  0  0  0  0  0  0  0
    3.9843   -9.1165   18.1720 O   0  0  0  0  0  0  0  0  0  0  0  0
    4.6335   -8.8919   16.1914 F   0  0  0  0  0  0  0  0  0  0  0  0
    7.8553   -9.4583   19.1316 O   0  0  0  0  0  0  0  0  0  0  0  0
    6.5220   -8.8511   17.0866 C   0  0  0  0  0  0  0  0  0  0  0  0
    7.7962  -10.2512   15.4115 C   0  0  0  0  0  0  0  0  0  0  0  0
   11.3305   -3.7176   21.4898 F   0  0  0  0  0  0  0  0  0  0  0  0
   10.7872   -4.6550   18.4710 F   0  0  0  0  0  0  0  0  0  0  0  0
    9.5408   -5.8663   18.3994 He  0  0  0  0  0  0  0  0  0  0  0  0
    4.3714   -7.9150   15.2865 He  0  0  0  0  0  0  0  0  0  0  0  0
    9.0167   -5.1293   15.0803 He  0  0  0  0  0  0  0  0  0  0  0  0
    9.7812   -4.8307   18.3022 He  0  0  0  0  0  0  0  0  0  0  0  0
    8.6008   -7.1788   17.9925 He  0  0  0  0  0  0  0  0  0  0  0  0
    2.7234   -8.4177   18.7657 He  0  0  0  0  0  0  0  0  0  0  0  0
   10.7095   -3.5809   22.1177 He  0  0  0  0  0  0  0  0  0  0  0  0
    1.2200   -9.8882   16.4914 He  0  0  0  0  0  0  0  0  0  0  0  0
   11.1582   -5.4011   19.3525 He  0  0  0  0  0  0  0  0  0  0  0  0
   12.3077   -5.1457   23.8533 He  0  0  0  0  0  0  0  0  0  0  0  0
  1  6  2  0
  1 14  2  0
  1 15  2  0
  1 17  1  0
  1 18  2  0
  2  4  3  0
  2  5  4  0
  2  9  4  0
  2 12  1  0
  2 13  3  0
  2 14  2  0
  2 15  3  0
  2 19  2  0
  3  6  3  0
  3 13  4  0
  3 14  3  0
  3 17  2  0
  3 18  3  0
  3 19  4  0
  4  6  3  0
  4  7  1  0
  4  9  3  0
  4 11  3  0
  4 17  4  0
  4 19  4  0
  5  7  4  0
  5  8  3  0
  5 10  4  0
  5 11  2  0
  5 15  2  0
  5 16  1  0
  5 18  2  0
  6  8  1  0
  6 11  1  0
  6 12  4  0
  6 14  3  0
  6 19  2  0
  7  9  2  0
  8 11  1  0
  8 12  3  0
  8 16  2  0
  8 18  2  0
  9 10  4  0
  9 17  1  0
 10 14  1  0
 10 19  3  0
 11 14  1  0
 11 15  1  0
 11 16  2  0
 11 17  4  0
 11 18  4  0
 11 19  4  0
 12 18  4  0
 12 19  1  0
 13 17  2  0
 13 18  4  0
 14 18  1  0
 14 19  1  0
 15 17  2  0
 15 18  3  0
 17 19  2  0
M  END
$$$$

 Created by Python create_sdf_string function

 29  9  0  0  0  0  0  0  0  0999 V2000
    5.2429   -8.4804   15.9825 C   0  0  0  0  0  0  0  0  0  0  0  0
    9.7546   -5.6090   18.4608 C   0  0  0  0  0  0  0  0  0  0  0  0
    4.3046   -8.4341   15.7565 C   0  0  0  0  0  0  0  0  0  0  0  0
    9.0673   -4.6488   15.9606 C   0  0  0  0  0  0  0  0  0  0  0  0
    7.8337   -7.0780   17.7212 C   0  0  0  0  0  0  0  0  0  0  0  0
    9.9817   -4.1506   16.5011 C   0  0  0  0  0  0  0  0  0  0  0  0
    7.5263   -7.6845   16.4500 C   0  0  0  0  0  0  0  0  0  0  0  0
    8.1664   -5.8814   16.2312 C   0  0  0  0  0  0  0  0  0  0  0  0
    8.3232   -5.8485   15.8775 C   0  0  0  0  0  0  0  0  0  0  0  0
   10.1024   -5.0293   18.4735 C   0  0  0  0  0  0  0  0  0  0  0  0
    8.7316   -6.9953   18.0335 C   0  0  0  0  0  0  0  0  0  0  0  0
    5.7216   -9.0001   17.2716 C   0  0  0  0  0  0  0  0  0  0  0  0
    9.0556   -8.6648   16.7622 F   0  0  0  0  0  0  0  0  0  0  0  0
    3.3909   -8.9686   15.3569 C   0  0  0  0  0  0  0  0  0  0  0  0
   10.8413   -3.5981   17.9813 C   0  0  0  0  0  0  0  0  0  0  0  0
    8.2359   -8.6347   15.6793 C   0  0  0  0  0  0  0  0  0  0  0  0
   11.0285   -3.7792   20.3735 C   0  0  0  0  0  0  0  0  0  0  0  0
    3.0821   -9.5318   17.4390 C   0  0  0  0  0  0  0  0  0  0  0  0
    3.8377   -9.3892   17.5072 C   0  0  0  0  0  0  0  0  0  0  0  0
    4.4075   -8.6743   16.1491 C   0  0  0  0  0  0  0  0  0  0  0  0
    7.5003   -8.4082   18.4005 F   0  0  0  0  0  0  0  0  0  0  0  0
   10.9958   -3.7380   22.1616 C   0  0  0  0  0  0  0  0  0  0  0  0
    2.0603   -9.3051   16.6643 C   0  0  0  0  0  0  0  0  0  0  0  0
    6.5301   -8.5024   17.0790 C   0  0  0  0  0  0  0  0  0  0  0  0
   10.7639   -5.0158   20.1078 C   0  0  0  0  0  0  0  0  0  0  0  0
    7.2295   -9.0868   15.5027 C   0  0  0  0  0  0  0  0  0  0  0  0
   11.1906   -3.9114   21.5642 C   0  0  0  0  0  0  0  0  0  0  0  0
   10.6630   -4.3435   18.8260 C   0  0  0  0  0  0  0  0  0  0  0  0
   11.4993   -4.5459   22.7454 C   0  0  0  0  0  0  0  0  0  0  0  0
  3 20  4  0
  4  6  4  0
  8  9  1  0
 13 16  1  0
 16 26  1  0
 17 27  4  0
 18 19  4  0
 18 23  4  0
 22 27  1  0
M  END
$$$$

 Created by Python create_sdf_string function

 29 26  0  0  0  0  0  0  0  0999 V2000
    4.9047   -6.3952   14.7410 C   0  0  0  0  0  0  0  0  0  0  0  0
   10.6435   -5.8823   17.6795 C   0  0  0  0  0  0  0  0  0  0  0  0
   10.9271   -3.3855   16.4740 N   0  0  0  0  0  0  0  0  0  0  0  0
    7.1252   -6.5048   15.9671 Cl  0  0  0  0  0  0  0  0  0  0  0  0
   10.8470   -4.4182   18.7023 O   0  0  0  0  0  0  0  0  0  0  0  0
    8.1406   -5.1675   17.0772 O   0  0  0  0  0  0  0  0  0  0  0  0
    6.3914   -8.4358   17.5419 O   0  0  0  0  0  0  0  0  0  0  0  0
    9.9147   -7.0731   17.0140 F   0  0  0  0  0  0  0  0  0  0  0  0
    4.0388   -8.4443   15.1409 F   0  0  0  0  0  0  0  0  0  0  0  0
    2.2394  -11.0002   16.3950 P   0  0  0  0  0  0  0  0  0  0  0  0
    7.8200   -6.4213   17.9839 N   0  0  0  0  0  0  0  0  0  0  0  0
    1.2989  -10.6784   16.1652 C   0  0  0  0  0  0  0  0  0  0  0  0
   12.8411   -5.0416   22.5173 B   0  0  0  0  0  0  0  0  0  0  0  0
   10.1772   -4.1321   19.5095 N   0  0  0  0  0  0  0  0  0  0  0  0
    2.1245   -8.0675   15.5348 He  0  0  0  0  0  0  0  0  0  0  0  0
    9.3856   -4.9196   16.1735 He  0  0  0  0  0  0  0  0  0  0  0  0
    8.2128   -7.5431   18.0033 He  0  0  0  0  0  0  0  0  0  0  0  0
    7.6739   -6.4483   14.4391 He  0  0  0  0  0  0  0  0  0  0  0  0
    8.2290   -5.4191   16.5584 He  0  0  0  0  0  0  0  0  0  0  0  0
    9.9715   -2.7832   20.0082 He  0  0  0  0  0  0  0  0  0  0  0  0
    7.9549   -8.6767   16.4819 He  0  0  0  0  0  0  0  0  0  0  0  0
   11.4287   -2.3630   21.5834 He  0  0  0  0  0  0  0  0  0  0  0  0
    3.0992   -9.6918   16.7766 He  0  0  0  0  0  0  0  0  0  0  0  0
    4.4603   -8.1873   16.4085 He  0  0  0  0  0  0  0  0  0  0  0  0
   11.2524   -3.5372   22.4566 He  0  0  0  0  0  0  0  0  0  0  0  0
    6.5609   -7.8378   19.1765 He  0  0  0  0  0  0  0  0  0  0  0  0
   11.7646   -5.5122   18.4744 He  0  0  0  0  0  0  0  0  0  0  0  0
    9.4158   -8.3129   14.7759 He  0  0  0  0  0  0  0  0  0  0  0  0
   11.9911   -4.1859   23.4979 He  0  0  0  0  0  0  0  0  0  0  0  0
  1 10  1  0
  1 12  2  0
  2  5  2  0
  2  6  2  0
  2 11  1  0
  2 14  4  0
  3  6  3  0
  4  6  4  0
  4 10  2  0
  4 14  2  0
  5  6  4  0
  5  7  1  0
  5  9  4  0
  5 13  1  0
  5 14  1  0
  6 10  4  0
  6 13  4  0
  6 14  4  0
  7 11  2  0
  8 10  4  0
  8 14  1  0
  9 10  3  0
 10 11  4  0
 10 14  1  0
 12 13  4  0
 12 14  2  0
M  END
$$$$

 Created by Python create_sdf_string function

 29  7  0  0  0  0  0  0  0  0999 V2000
    4.9765   -7.3478   15.3759 C   0  0  0  0  0  0  0  0  0  0  0  0
   10.3071   -5.3863   18.2286 C   0  0  0  0  0  0  0  0  0  0  0  0
    2.6453   -8.6931   15.7526 C   0  0  0  0  0  0  0  0  0  0  0  0
    9.6316   -4.6597   16.5071 C   0  0  0  0  0  0  0  0  0  0  0  0
    8.4183   -7.6097   17.8165 C   0  0  0  0  0  0  0  0  0  0  0  0
   10.7344   -3.8309   16.8041 C   0  0  0  0  0  0  0  0  0  0  0  0
    7.2738   -6.8870   15.4084 C   0  0  0  0  0  0  0  0  0  0  0  0
    6.8526   -7.0814   15.9758 C   0  0  0  0  0  0  0  0  0  0  0  0
    8.7116   -5.6142   16.4849 C   0  0  0  0  0  0  0  0  0  0  0  0
   10.8477   -4.3174   18.9869 C   0  0  0  0  0  0  0  0  0  0  0  0
    8.9160   -5.4664   16.8417 C   0  0  0  0  0  0  0  0  0  0  0  0
    6.0342   -8.3039   17.3092 C   0  0  0  0  0  0  0  0  0  0  0  0
    9.3132   -7.1617   17.5710 C   0  0  0  0  0  0  0  0  0  0  0  0
    3.9676   -8.3737   15.8486 C   0  0  0  0  0  0  0  0  0  0  0  0
   10.7380   -3.9219   20.4219 C   0  0  0  0  0  0  0  0  0  0  0  0
    7.6372   -8.4148   16.4083 C   0  0  0  0  0  0  0  0  0  0  0  0
   11.1964   -3.1549   21.8431 C   0  0  0  0  0  0  0  0  0  0  0  0
    2.2975   -9.5349   16.9025 C   0  0  0  0  0  0  0  0  0  0  0  0
    3.0894   -9.2205   16.8059 C   0  0  0  0  0  0  0  0  0  0  0  0
    4.4286   -8.5485   16.6046 C   0  0  0  0  0  0  0  0  0  0  0  0
    8.0964   -6.8883   17.7607 C   0  0  0  0  0  0  0  0  0  0  0  0
   11.3039   -3.7494   22.3514 C   0  0  0  0  0  0  0  0  0  0  0  0
    1.7322   -9.4885   16.4597 C   0  0  0  0  0  0  0  0  0  0  0  0
    6.4954   -8.1367   18.0933 C   0  0  0  0  0  0  0  0  0  0  0  0
   11.1717   -5.2394   18.9480 C   0  0  0  0  0  0  0  0  0  0  0  0
    8.4337   -8.1429   15.4704 C   0  0  0  0  0  0  0  0  0  0  0  0
   12.1995   -4.7480   21.9010 C   0  0  0  0  0  0  0  0  0  0  0  0
   10.7052   -4.3107   19.8550 C   0  0  0  0  0  0  0  0  0  0  0  0
   11.6092   -4.1392   22.7975 C   0  0  0  0  0  0  0  0  0  0  0  0
  5 13  1  0
  7  8  1  0
 12 24  1  0
 15 28  4  0
 16 26  1  0
 22 29  4  0
 27 29  4  0
M  END
$$$$

 Created by Python create_sdf_string function

 29 42  0  0  0  0  0  0  0  0999 V2000
    7.3534   -6.1042   15.7489 P   0  0  0  0  0  0  0  0  0  0  0  0
    2.5400   -8.7835   16.3323 I   0  0  0  0  0  0  0  0  0  0  0  0
    7.9635   -9.0595   17.1913 C   0  0  0  0  0  0  0  0  0  0  0  0
   10.9811   -4.4843   17.2408 C   0  0  0  0  0  0  0  0  0  0  0  0
    8.2019   -5.8441   15.1538 N   0  0  0  0  0  0  0  0  0  0  0  0
   12.3118   -6.6863   18.6686 F   0  0  0  0  0  0  0  0  0  0  0  0
    7.0551   -7.7272   17.6699 N   0  0  0  0  0  0  0  0  0  0  0  0
   10.3594   -4.0593   20.5012 P   0  0  0  0  0  0  0  0  0  0  0  0
    8.2933   -6.9268   17.3858 F   0  0  0  0  0  0  0  0  0  0  0  0
    1.8044   -8.4786   16.9744 S   0  0  0  0  0  0  0  0  0  0  0  0
   10.9110   -3.9230   20.9976 N   0  0  0  0  0  0  0  0  0  0  0  0
    2.5117   -7.7306   16.1191 O   0  0  0  0  0  0  0  0  0  0  0  0
    6.8240   -7.4347   17.3655 C   0  0  0  0  0  0  0  0  0  0  0  0
   10.0776   -6.5011   19.8814 C   0  0  0  0  0  0  0  0  0  0  0  0
   11.7177   -6.6377   21.1912 N   0  0  0  0  0  0  0  0  0  0  0  0
    9.7136   -5.3284   20.4676 Cl  0  0  0  0  0  0  0  0  0  0  0  0
    9.8568   -4.6287   19.4770 He  0  0  0  0  0  0  0  0  0  0  0  0
   10.5052   -3.9286   17.2080 He  0  0  0  0  0  0  0  0  0  0  0  0
    7.8405   -7.1703   15.8186 He  0  0  0  0  0  0  0  0  0  0  0  0
    7.0094   -5.1841   13.3635 He  0  0  0  0  0  0  0  0  0  0  0  0
    8.3398   -4.6446   15.9461 He  0  0  0  0  0  0  0  0  0  0  0  0
   12.1798   -7.9122   16.8238 He  0  0  0  0  0  0  0  0  0  0  0  0
    2.0222   -7.2201   16.5004 He  0  0  0  0  0  0  0  0  0  0  0  0
   12.5801   -3.2087   20.9519 He  0  0  0  0  0  0  0  0  0  0  0  0
    4.5327   -9.3256   16.0139 He  0  0  0  0  0  0  0  0  0  0  0  0
    2.1154   -8.1326   15.7404 He  0  0  0  0  0  0  0  0  0  0  0  0
    7.5390   -6.6403   16.4399 He  0  0  0  0  0  0  0  0  0  0  0  0
    7.0250   -6.7155   15.3236 He  0  0  0  0  0  0  0  0  0  0  0  0
   11.5679   -1.6725   22.2983 He  0  0  0  0  0  0  0  0  0  0  0  0
  1  2  2  0
  1  3  3  0
  1  4  2  0
  1  7  3  0
  1 11  1  0
  1 16  4  0
  2  5  1  0
  2  6  3  0
  2  7  1  0
  2 12  1  0
  2 14  1  0
  2 15  4  0
  3  4  1  0
  3  9  3  0
  3 12  3  0
  3 14  3  0
  3 15  1  0
  4  5  1  0
  4  6  2  0
  4 10  2  0
  4 12  1  0
  4 13  1  0
  4 15  2  0
  5  9  3  0
  6  7  4  0
  6 10  1  0
  6 14  3  0
  6 16  2  0
  7  8  1  0
  7 14  1  0
  8  9  1  0
  8 10  4  0
  8 14  4  0
  9 11  1  0
  9 12  1  0
 10 12  3  0
 10 16  1  0
 12 15  4  0
 12 16  4  0
 13 15  4  0
 14 16  4  0
 15 16  2  0
M  END
$$$$

 Created by Python create_sdf_string function

 29  1  0  0  0  0  0  0  0  0999 V2000
    7.2525   -6.4586   15.8947 C   0  0  0  0  0  0  0  0  0  0  0  0
   10.4402   -4.5212   19.2986 C   0  0  0  0  0  0  0  0  0  0  0  0
    3.0178   -8.6485   16.4703 C   0  0  0  0  0  0  0  0  0  0  0  0
   10.5461   -4.1197   17.1447 C   0  0  0  0  0  0  0  0  0  0  0  0
    7.9138   -8.4301   17.1887 C   0  0  0  0  0  0  0  0  0  0  0  0
   10.6810   -4.4135   17.3765 C   0  0  0  0  0  0  0  0  0  0  0  0
    7.7452   -7.7176   16.0736 C   0  0  0  0  0  0  0  0  0  0  0  0
    7.1497   -5.8411   15.0765 O   0  0  0  0  0  0  0  0  0  0  0  0
    8.4048   -5.8080   15.9770 C   0  0  0  0  0  0  0  0  0  0  0  0
   11.3564   -6.1383   18.8253 C   0  0  0  0  0  0  0  0  0  0  0  0
    9.1401   -4.6181   16.1498 C   0  0  0  0  0  0  0  0  0  0  0  0
    6.7844   -7.9641   17.4456 C   0  0  0  0  0  0  0  0  0  0  0  0
   10.7074   -7.2478   18.2395 C   0  0  0  0  0  0  0  0  0  0  0  0
    2.6131   -7.5425   16.1080 C   0  0  0  0  0  0  0  0  0  0  0  0
   10.7110   -4.0506   20.5487 C   0  0  0  0  0  0  0  0  0  0  0  0
    8.7048   -7.0909   17.6659 C   0  0  0  0  0  0  0  0  0  0  0  0
   11.8977   -3.6263   21.5943 C   0  0  0  0  0  0  0  0  0  0  0  0
    2.4321   -8.6983   16.4684 C   0  0  0  0  0  0  0  0  0  0  0  0
    4.5033   -8.4030   16.4132 C   0  0  0  0  0  0  0  0  0  0  0  0
    2.5319   -8.4962   16.1497 C   0  0  0  0  0  0  0  0  0  0  0  0
    7.6664   -6.9253   16.5117 C   0  0  0  0  0  0  0  0  0  0  0  0
   11.0446   -3.7320   21.2976 C   0  0  0  0  0  0  0  0  0  0  0  0
    3.2767   -7.9872   16.2202 C   0  0  0  0  0  0  0  0  0  0  0  0
    6.3566   -7.9097   17.1681 C   0  0  0  0  0  0  0  0  0  0  0  0
   10.3428   -6.1767   19.2275 C   0  0  0  0  0  0  0  0  0  0  0  0
    6.4867   -7.1932   15.7981 C   0  0  0  0  0  0  0  0  0  0  0  0
   11.4974   -5.2947   20.7483 C   0  0  0  0  0  0  0  0  0  0  0  0
   10.5068   -4.9438   19.8836 C   0  0  0  0  0  0  0  0  0  0  0  0
   11.3316   -2.8890   22.1597 O   0  0  0  0  0  0  0  0  0  0  0  0
  4  6  4  0
M  END
$$$$

 Created by Python create_sdf_string function

 29 32  0  0  0  0  0  0  0  0999 V2000
    7.0213   -4.1555   17.0337 Se  0  0  0  0  0  0  0  0  0  0  0  0
    7.5378   -5.5738   17.8172 O   0  0  0  0  0  0  0  0  0  0  0  0
    8.9191   -4.2504   15.9787 O   0  0  0  0  0  0  0  0  0  0  0  0
    9.5634   -4.5481   15.9556 Cl  0  0  0  0  0  0  0  0  0  0  0  0
    6.6614   -7.2428   17.2298 N   0  0  0  0  0  0  0  0  0  0  0  0
    9.9144   -8.1608   17.3229 B   0  0  0  0  0  0  0  0  0  0  0  0
    8.2921   -8.6934   18.8218 C   0  0  0  0  0  0  0  0  0  0  0  0
    4.1869   -7.6034   15.3073 C   0  0  0  0  0  0  0  0  0  0  0  0
   10.9145   -4.0887   23.1483 S   0  0  0  0  0  0  0  0  0  0  0  0
    7.1221   -7.9477   16.0173 P   0  0  0  0  0  0  0  0  0  0  0  0
   10.3610   -6.4411   20.0106 C   0  0  0  0  0  0  0  0  0  0  0  0
   10.8065   -4.8075   20.8100 C   0  0  0  0  0  0  0  0  0  0  0  0
   10.1312   -5.5759   20.3477 I   0  0  0  0  0  0  0  0  0  0  0  0
   11.6321   -2.2935   21.5135 O   0  0  0  0  0  0  0  0  0  0  0  0
   11.1499   -5.6954   21.4593 He  0  0  0  0  0  0  0  0  0  0  0  0
    3.4636   -7.7430   16.3637 He  0  0  0  0  0  0  0  0  0  0  0  0
   12.1375   -3.3660   17.1078 He  0  0  0  0  0  0  0  0  0  0  0  0
    7.1680   -8.0589   17.9800 He  0  0  0  0  0  0  0  0  0  0  0  0
   11.3366   -4.0110   19.3197 He  0  0  0  0  0  0  0  0  0  0  0  0
    6.5619   -5.4656   13.9085 He  0  0  0  0  0  0  0  0  0  0  0  0
   11.1674   -5.5685   18.7204 He  0  0  0  0  0  0  0  0  0  0  0  0
    2.6037   -8.1744   16.7228 He  0  0  0  0  0  0  0  0  0  0  0  0
   10.2815   -4.2994   19.6875 He  0  0  0  0  0  0  0  0  0  0  0  0
   12.6720   -3.1191   22.3809 He  0  0  0  0  0  0  0  0  0  0  0  0
    3.0497   -7.8343   17.8464 He  0  0  0  0  0  0  0  0  0  0  0  0
    2.8729   -7.6342   16.1372 He  0  0  0  0  0  0  0  0  0  0  0  0
    9.2407   -6.3745   18.3440 He  0  0  0  0  0  0  0  0  0  0  0  0
    2.4166   -7.9188   18.2154 He  0  0  0  0  0  0  0  0  0  0  0  0
    6.4788   -8.0116   15.8037 He  0  0  0  0  0  0  0  0  0  0  0  0
  1 13  1  0
  2  5  1  0
  2  7  2  0
  2  9  4  0
  2 11  2  0
  3  4  1  0
  3  5  2  0
  3  6  3  0
  3  9  3  0
  3 10  1  0
  3 12  1  0
  3 13  4  0
  4  5  2  0
  4  6  1  0
  5  6  2  0
  5  8  3  0
  5  9  3  0
  5 11  2  0
  5 14  2  0
  6 10  2  0
  6 13  1  0
  6 14  2  0
  7 11  2  0
  8 10  2  0
  9 10  1  0
  9 11  1  0
  9 14  3  0
 10 11  3  0
 10 14  1  0
 11 12  3  0
 12 13  3  0
 12 14  1  0
M  END
$$$$

 Created by Python create_sdf_string function

 29  7  0  0  0  0  0  0  0  0999 V2000
    8.2333   -5.3828   16.1782 C   0  0  0  0  0  0  0  0  0  0  0  0
   11.1185   -4.8958   21.6658 C   0  0  0  0  0  0  0  0  0  0  0  0
    3.9976   -8.1160   16.2623 C   0  0  0  0  0  0  0  0  0  0  0  0
   11.1674   -3.5750   17.1567 C   0  0  0  0  0  0  0  0  0  0  0  0
    7.2038   -7.9737   17.6873 C   0  0  0  0  0  0  0  0  0  0  0  0
   11.0577   -3.8350   19.3890 C   0  0  0  0  0  0  0  0  0  0  0  0
    8.0158   -6.2461   17.5205 C   0  0  0  0  0  0  0  0  0  0  0  0
    6.9050   -6.1727   15.2745 C   0  0  0  0  0  0  0  0  0  0  0  0
    9.3002   -4.4536   16.2077 C   0  0  0  0  0  0  0  0  0  0  0  0
   10.5171   -5.1835   18.4746 C   0  0  0  0  0  0  0  0  0  0  0  0
    9.8974   -4.3199   16.4039 C   0  0  0  0  0  0  0  0  0  0  0  0
    6.8037   -7.4034   17.1544 C   0  0  0  0  0  0  0  0  0  0  0  0
    9.2907   -7.8032   17.6334 C   0  0  0  0  0  0  0  0  0  0  0  0
    2.9525   -8.4505   16.4230 C   0  0  0  0  0  0  0  0  0  0  0  0
   10.7622   -4.2628   19.4339 C   0  0  0  0  0  0  0  0  0  0  0  0
    8.2775   -8.0966   18.0441 C   0  0  0  0  0  0  0  0  0  0  0  0
   11.8585   -3.2805   22.4930 C   0  0  0  0  0  0  0  0  0  0  0  0
    3.8566   -8.4752   17.1034 C   0  0  0  0  0  0  0  0  0  0  0  0
    4.5824   -7.7835   15.6743 C   0  0  0  0  0  0  0  0  0  0  0  0
    3.2152   -8.2508   16.1070 C   0  0  0  0  0  0  0  0  0  0  0  0
    9.3426   -6.2182   17.9956 C   0  0  0  0  0  0  0  0  0  0  0  0
   11.3099   -3.7857   23.1277 C   0  0  0  0  0  0  0  0  0  0  0  0
    3.0774   -8.6803   16.9825 C   0  0  0  0  0  0  0  0  0  0  0  0
    7.2900   -8.0776   16.0583 C   0  0  0  0  0  0  0  0  0  0  0  0
   10.2955   -5.9904   19.4888 C   0  0  0  0  0  0  0  0  0  0  0  0
    6.4764   -7.9011   16.0693 C   0  0  0  0  0  0  0  0  0  0  0  0
   11.1408   -4.4132   21.0015 C   0  0  0  0  0  0  0  0  0  0  0  0
   10.6062   -5.2432   19.9727 C   0  0  0  0  0  0  0  0  0  0  0  0
   11.7130   -2.8418   21.8630 O   0  0  0  0  0  0  0  0  0  0  0  0
  2 27  4  0
  9 11  1  0
 14 20  4  0
 17 22  1  0
 17 29  4  0
 18 23  4  0
 24 26  1  0
M  END
$$$$

 Created by Python create_sdf_string function

 29  9  0  0  0  0  0  0  0  0999 V2000
   10.1127   -2.7223   17.7307 C   0  0  0  0  0  0  0  0  0  0  0  0
    9.4873   -3.9479   16.0481 Cl  0  0  0  0  0  0  0  0  0  0  0  0
    9.6724   -8.0079   16.9934 Cl  0  0  0  0  0  0  0  0  0  0  0  0
   10.1467   -4.9696   19.2008 C   0  0  0  0  0  0  0  0  0  0  0  0
   13.4468   -1.6580   21.5993 N   0  0  0  0  0  0  0  0  0  0  0  0
    6.3490   -9.2339   15.3747 C   0  0  0  0  0  0  0  0  0  0  0  0
   13.3175   -4.6017   22.0535 I   0  0  0  0  0  0  0  0  0  0  0  0
   10.5929   -1.9638   21.6022 P   0  0  0  0  0  0  0  0  0  0  0  0
    8.6931   -6.7601   16.3488 He  0  0  0  0  0  0  0  0  0  0  0  0
   11.5558   -4.9817   21.5480 He  0  0  0  0  0  0  0  0  0  0  0  0
    4.0173   -6.5052   16.2352 He  0  0  0  0  0  0  0  0  0  0  0  0
   10.3282   -5.1005   16.9192 He  0  0  0  0  0  0  0  0  0  0  0  0
    8.1222   -8.2312   19.2820 He  0  0  0  0  0  0  0  0  0  0  0  0
   10.0355   -6.2594   18.3626 He  0  0  0  0  0  0  0  0  0  0  0  0
    7.8614   -6.0740   14.3142 He  0  0  0  0  0  0  0  0  0  0  0  0
    9.8272   -5.6796   17.1321 He  0  0  0  0  0  0  0  0  0  0  0  0
   10.4295   -4.8232   17.7496 He  0  0  0  0  0  0  0  0  0  0  0  0
    7.1423   -6.8271   18.5229 He  0  0  0  0  0  0  0  0  0  0  0  0
    3.9267   -9.2749   15.6545 He  0  0  0  0  0  0  0  0  0  0  0  0
    6.5107   -7.1718   17.2126 He  0  0  0  0  0  0  0  0  0  0  0  0
    3.0046   -6.5911   17.1479 He  0  0  0  0  0  0  0  0  0  0  0  0
    4.6930   -7.5189   14.2892 He  0  0  0  0  0  0  0  0  0  0  0  0
    2.6684   -7.8220   15.9172 He  0  0  0  0  0  0  0  0  0  0  0  0
    7.6824   -3.4929   20.2645 He  0  0  0  0  0  0  0  0  0  0  0  0
   12.6698   -4.1762   20.7160 He  0  0  0  0  0  0  0  0  0  0  0  0
    2.4409   -8.6710   17.5873 He  0  0  0  0  0  0  0  0  0  0  0  0
    9.3224   -6.7957   18.6015 He  0  0  0  0  0  0  0  0  0  0  0  0
    5.9410   -9.1026   15.2769 He  0  0  0  0  0  0  0  0  0  0  0  0
    8.9863   -4.9943   19.9403 He  0  0  0  0  0  0  0  0  0  0  0  0
  1  3  3  0
  1  4  2  0
  1  7  1  0
  2  8  4  0
  3  6  1  0
  3  7  4  0
  4  8  4  0
  5  6  2  0
  5  8  3  0
M  END
$$$$

 Created by Python create_sdf_string function

 29  2  0  0  0  0  0  0  0  0999 V2000
    8.3894   -6.8225   16.3466 C   0  0  0  0  0  0  0  0  0  0  0  0
   11.5973   -4.5519   21.4571 C   0  0  0  0  0  0  0  0  0  0  0  0
    4.3820   -7.4937   16.3022 C   0  0  0  0  0  0  0  0  0  0  0  0
   10.1151   -4.6864   16.8191 C   0  0  0  0  0  0  0  0  0  0  0  0
    8.2164   -7.7507   18.4184 C   0  0  0  0  0  0  0  0  0  0  0  0
   10.7685   -3.5833   17.6807 C   0  0  0  0  0  0  0  0  0  0  0  0
   10.0281   -6.0779   18.6294 C   0  0  0  0  0  0  0  0  0  0  0  0
    7.7307   -6.4751   15.5667 C   0  0  0  0  0  0  0  0  0  0  0  0
    9.7659   -4.0725   16.0845 C   0  0  0  0  0  0  0  0  0  0  0  0
    9.5232   -5.5294   16.9677 C   0  0  0  0  0  0  0  0  0  0  0  0
   10.5325   -4.5260   17.9530 C   0  0  0  0  0  0  0  0  0  0  0  0
    7.0198   -7.2736   17.9637 C   0  0  0  0  0  0  0  0  0  0  0  0
    8.9164   -8.0811   17.1243 C   0  0  0  0  0  0  0  0  0  0  0  0
    3.9108   -8.7963   15.8407 C   0  0  0  0  0  0  0  0  0  0  0  0
   10.7964   -4.7398   19.6687 C   0  0  0  0  0  0  0  0  0  0  0  0
    6.5371   -7.4974   17.1144 C   0  0  0  0  0  0  0  0  0  0  0  0
   12.5644   -2.9269   22.3250 C   0  0  0  0  0  0  0  0  0  0  0  0
    3.4163   -7.5808   16.6361 C   0  0  0  0  0  0  0  0  0  0  0  0
    4.9893   -7.9886   15.3335 C   0  0  0  0  0  0  0  0  0  0  0  0
    2.9837   -8.4616   16.1611 C   0  0  0  0  0  0  0  0  0  0  0  0
    9.6138   -4.0774   20.2533 C   0  0  0  0  0  0  0  0  0  0  0  0
   12.3204   -4.1515   21.4277 C   0  0  0  0  0  0  0  0  0  0  0  0
    3.0060   -8.8288   16.8004 C   0  0  0  0  0  0  0  0  0  0  0  0
    6.7139   -8.4663   15.6905 C   0  0  0  0  0  0  0  0  0  0  0  0
    9.4063   -6.7989   18.5105 C   0  0  0  0  0  0  0  0  0  0  0  0
    6.2652   -8.5485   15.6019 C   0  0  0  0  0  0  0  0  0  0  0  0
   12.8495   -4.3269   22.2015 C   0  0  0  0  0  0  0  0  0  0  0  0
   10.1095   -4.6995   19.8582 C   0  0  0  0  0  0  0  0  0  0  0  0
   11.2303   -3.0100   21.9215 C   0  0  0  0  0  0  0  0  0  0  0  0
 12 16  1  0
 24 26  1  0
M  END
$$$$

 Created by Python create_sdf_string function

 29 33  0  0  0  0  0  0  0  0999 V2000
    9.4772   -4.4442   15.4355 C   0  0  0  0  0  0  0  0  0  0  0  0
   11.9522   -4.1135   22.4503 Cl  0  0  0  0  0  0  0  0  0  0  0  0
   10.1929   -2.7604   17.9531 Cl  0  0  0  0  0  0  0  0  0  0  0  0
    9.5824   -7.3912   18.5615 F   0  0  0  0  0  0  0  0  0  0  0  0
   10.9981   -5.7447   16.7065 N   0  0  0  0  0  0  0  0  0  0  0  0
   10.4926   -7.0711   16.7046 F   0  0  0  0  0  0  0  0  0  0  0  0
   10.4278   -5.1232   16.9276 C   0  0  0  0  0  0  0  0  0  0  0  0
    9.2216   -7.0474   17.1039 O   0  0  0  0  0  0  0  0  0  0  0  0
   12.1230   -2.6988   21.1869 I   0  0  0  0  0  0  0  0  0  0  0  0
    2.8389   -7.8203   14.9308 P   0  0  0  0  0  0  0  0  0  0  0  0
    9.8589   -4.7712   19.2308 C   0  0  0  0  0  0  0  0  0  0  0  0
    2.6467   -8.9117   16.2736 P   0  0  0  0  0  0  0  0  0  0  0  0
   11.3771   -3.8055   21.5498 C   0  0  0  0  0  0  0  0  0  0  0  0
   10.7191   -2.4606   21.9091 O   0  0  0  0  0  0  0  0  0  0  0  0
    3.6790   -8.1521   16.6608 He  0  0  0  0  0  0  0  0  0  0  0  0
    7.4263   -6.6546   14.8554 He  0  0  0  0  0  0  0  0  0  0  0  0
    9.7734   -5.5693   15.8915 He  0  0  0  0  0  0  0  0  0  0  0  0
   10.2735   -6.6261   17.9580 He  0  0  0  0  0  0  0  0  0  0  0  0
    6.9676   -6.7473   17.7862 He  0  0  0  0  0  0  0  0  0  0  0  0
    5.1163   -8.2644   15.9987 He  0  0  0  0  0  0  0  0  0  0  0  0
   10.3636   -4.6678   20.2997 He  0  0  0  0  0  0  0  0  0  0  0  0
    6.0476   -7.5272   16.2485 He  0  0  0  0  0  0  0  0  0  0  0  0
    4.3132   -7.8114   17.6703 He  0  0  0  0  0  0  0  0  0  0  0  0
    4.8760   -9.4415   15.1153 He  0  0  0  0  0  0  0  0  0  0  0  0
   12.8439   -4.5472   22.6451 He  0  0  0  0  0  0  0  0  0  0  0  0
    6.5700   -8.2925   14.4973 He  0  0  0  0  0  0  0  0  0  0  0  0
    8.6174   -6.8995   18.7211 He  0  0  0  0  0  0  0  0  0  0  0  0
    7.9363   -9.4084   15.5784 He  0  0  0  0  0  0  0  0  0  0  0  0
   10.4801   -4.7114   21.4281 He  0  0  0  0  0  0  0  0  0  0  0  0
  1  3  2  0
  1  4  4  0
  1  5  1  0
  1  8  4  0
  1 13  3  0
  1 14  2  0
  2  4  1  0
  2  6  3  0
  2  7  3  0
  2 11  1  0
  2 13  2  0
  3  8  4  0
  3 12  2  0
  3 13  3  0
  4  5  1  0
  4  7  3  0
  4 14  1  0
  6  7  2  0
  6  9  1  0
  6 13  4  0
  6 14  2  0
  7  8  4  0
  7 10  3  0
  7 11  1  0
  7 13  1  0
  8  9  2  0
  8 11  1  0
  9 11  2  0
  9 12  4  0
 10 11  2  0
 10 14  3  0
 12 13  2  0
 12 14  4  0
M  END
$$$$

 Created by Python create_sdf_string function

 29  2  0  0  0  0  0  0  0  0999 V2000
    9.6667   -4.2546   16.1760 C   0  0  0  0  0  0  0  0  0  0  0  0
   11.8038   -4.1283   22.6792 C   0  0  0  0  0  0  0  0  0  0  0  0
    3.6574   -8.3914   16.6424 C   0  0  0  0  0  0  0  0  0  0  0  0
   10.8247   -3.3314   17.9994 C   0  0  0  0  0  0  0  0  0  0  0  0
    9.6160   -7.3492   18.5091 C   0  0  0  0  0  0  0  0  0  0  0  0
   10.4364   -4.9498   17.1888 C   0  0  0  0  0  0  0  0  0  0  0  0
    9.5475   -6.7677   17.1234 C   0  0  0  0  0  0  0  0  0  0  0  0
    7.6799   -6.9534   15.6054 C   0  0  0  0  0  0  0  0  0  0  0  0
   10.3059   -4.7030   17.3735 C   0  0  0  0  0  0  0  0  0  0  0  0
    9.2619   -5.2608   16.1959 C   0  0  0  0  0  0  0  0  0  0  0  0
   10.0536   -6.1620   18.5176 C   0  0  0  0  0  0  0  0  0  0  0  0
    7.1551   -7.1907   17.8407 C   0  0  0  0  0  0  0  0  0  0  0  0
    8.8692   -7.1226   17.1354 C   0  0  0  0  0  0  0  0  0  0  0  0
    5.1576   -8.2573   16.1611 C   0  0  0  0  0  0  0  0  0  0  0  0
   10.8149   -4.4940   20.1714 C   0  0  0  0  0  0  0  0  0  0  0  0
    6.0668   -7.7981   16.5912 C   0  0  0  0  0  0  0  0  0  0  0  0
   11.5128   -3.1213   21.5903 C   0  0  0  0  0  0  0  0  0  0  0  0
    4.5097   -8.0773   17.1707 C   0  0  0  0  0  0  0  0  0  0  0  0
    4.7923   -8.6986   15.4195 C   0  0  0  0  0  0  0  0  0  0  0  0
    2.9411   -8.6412   15.7477 C   0  0  0  0  0  0  0  0  0  0  0  0
   10.5787   -4.7245   19.3093 C   0  0  0  0  0  0  0  0  0  0  0  0
   12.3366   -4.3024   22.7809 C   0  0  0  0  0  0  0  0  0  0  0  0
    2.7607   -8.7371   16.2791 C   0  0  0  0  0  0  0  0  0  0  0  0
    6.6225   -8.3758   15.5588 C   0  0  0  0  0  0  0  0  0  0  0  0
    8.7310   -7.1451   18.2400 C   0  0  0  0  0  0  0  0  0  0  0  0
    7.9307   -8.3466   15.6729 C   0  0  0  0  0  0  0  0  0  0  0  0
   11.5148   -4.0139   21.7521 C   0  0  0  0  0  0  0  0  0  0  0  0
   11.0711   -4.5698   21.2004 C   0  0  0  0  0  0  0  0  0  0  0  0
   10.9204   -2.9988   22.4899 O   0  0  0  0  0  0  0  0  0  0  0  0
 15 21  1  0
 20 23  4  0
M  END
$$$$

 Created by Python create_sdf_string function

 29 21  0  0  0  0  0  0  0  0999 V2000
    9.5815   -3.3576   14.9676 F   0  0  0  0  0  0  0  0  0  0  0  0
    9.8653   -6.2433   17.6222 I   0  0  0  0  0  0  0  0  0  0  0  0
   10.0575   -5.1036   16.8843 C   0  0  0  0  0  0  0  0  0  0  0  0
    9.1913   -6.7772   14.9705 S   0  0  0  0  0  0  0  0  0  0  0  0
   10.7797   -4.3157   18.3293 O   0  0  0  0  0  0  0  0  0  0  0  0
    7.0295   -6.5087   19.0343 O   0  0  0  0  0  0  0  0  0  0  0  0
    5.8551   -6.9707   14.7746 S   0  0  0  0  0  0  0  0  0  0  0  0
    4.3530   -6.1547   16.7491 C   0  0  0  0  0  0  0  0  0  0  0  0
    5.9624   -8.4576   14.8322 O   0  0  0  0  0  0  0  0  0  0  0  0
    3.2176   -9.2531   16.8548 C   0  0  0  0  0  0  0  0  0  0  0  0
   10.8068   -6.0867   19.1802 F   0  0  0  0  0  0  0  0  0  0  0  0
   11.0668   -4.5267   20.9814 F   0  0  0  0  0  0  0  0  0  0  0  0
   11.4015   -4.4580   22.8869 He  0  0  0  0  0  0  0  0  0  0  0  0
    4.0947   -8.6696   17.9584 He  0  0  0  0  0  0  0  0  0  0  0  0
   10.0691   -4.3679   17.6296 He  0  0  0  0  0  0  0  0  0  0  0  0
    8.8749   -4.9145   19.1246 He  0  0  0  0  0  0  0  0  0  0  0  0
    9.3834   -5.1407   16.3887 He  0  0  0  0  0  0  0  0  0  0  0  0
    9.8475   -6.7988   19.5554 He  0  0  0  0  0  0  0  0  0  0  0  0
    9.0916   -5.8208   17.0457 He  0  0  0  0  0  0  0  0  0  0  0  0
    3.8211   -9.5477   16.8213 He  0  0  0  0  0  0  0  0  0  0  0  0
   11.2843   -4.3739   20.4117 He  0  0  0  0  0  0  0  0  0  0  0  0
   11.5031   -4.3903   20.4625 He  0  0  0  0  0  0  0  0  0  0  0  0
   12.4605   -5.8568   23.7487 He  0  0  0  0  0  0  0  0  0  0  0  0
    3.2330   -7.8467   15.1503 He  0  0  0  0  0  0  0  0  0  0  0  0
    6.6494   -7.0989   14.2303 He  0  0  0  0  0  0  0  0  0  0  0  0
    7.8228   -7.2371   19.4314 He  0  0  0  0  0  0  0  0  0  0  0  0
    7.1183   -8.5076   15.6885 He  0  0  0  0  0  0  0  0  0  0  0  0
   11.6230   -1.5758   21.1234 He  0  0  0  0  0  0  0  0  0  0  0  0
   11.0608   -2.7557   21.1931 He  0  0  0  0  0  0  0  0  0  0  0  0
  1  2  1  0
  1  4  2  0
  1  6  4  0
  2  3  1  0
  2  5  1  0
  2  9  4  0
  3  4  1  0
  3  6  3  0
  4  5  4  0
  4  8  1  0
  4  9  1  0
  4 12  1  0
  5  7  4  0
  5  9  1  0
  5 12  4  0
  6 10  1  0
  7  9  3  0
  7 10  3  0
  7 11  2  0
  8 11  2  0
 10 11  4  0
M  END
$$$$

 Created by Python create_sdf_string function

 29  4  0  0  0  0  0  0  0  0999 V2000
    9.6631   -3.7950   15.8118 C   0  0  0  0  0  0  0  0  0  0  0  0
   11.6232   -4.3798   22.8295 C   0  0  0  0  0  0  0  0  0  0  0  0
    4.6329   -8.7038   17.4695 C   0  0  0  0  0  0  0  0  0  0  0  0
   10.4985   -4.1364   17.5594 C   0  0  0  0  0  0  0  0  0  0  0  0
    9.4029   -6.3445   17.5715 C   0  0  0  0  0  0  0  0  0  0  0  0
    9.7567   -5.0871   18.9713 C   0  0  0  0  0  0  0  0  0  0  0  0
    9.8630   -4.9684   16.9929 C   0  0  0  0  0  0  0  0  0  0  0  0
    8.5587   -7.0666   15.5644 C   0  0  0  0  0  0  0  0  0  0  0  0
   10.7918   -4.0715   18.4378 C   0  0  0  0  0  0  0  0  0  0  0  0
    9.3812   -4.9672   16.4109 C   0  0  0  0  0  0  0  0  0  0  0  0
    9.9821   -6.5937   19.1444 C   0  0  0  0  0  0  0  0  0  0  0  0
    7.1637   -7.2879   18.1477 C   0  0  0  0  0  0  0  0  0  0  0  0
    8.8610   -6.2344   16.9627 C   0  0  0  0  0  0  0  0  0  0  0  0
    3.5863   -9.0358   16.9771 C   0  0  0  0  0  0  0  0  0  0  0  0
   11.1079   -4.4235   20.5571 C   0  0  0  0  0  0  0  0  0  0  0  0
    5.8772   -7.3191   15.4479 C   0  0  0  0  0  0  0  0  0  0  0  0
   11.5854   -4.3720   21.2509 C   0  0  0  0  0  0  0  0  0  0  0  0
    4.9330   -7.6488   16.4008 C   0  0  0  0  0  0  0  0  0  0  0  0
    5.8922   -8.1590   15.6838 C   0  0  0  0  0  0  0  0  0  0  0  0
    3.4586   -8.8904   16.7781 C   0  0  0  0  0  0  0  0  0  0  0  0
   10.5946   -5.6783   19.4464 C   0  0  0  0  0  0  0  0  0  0  0  0
   11.8578   -4.9745   23.1511 C   0  0  0  0  0  0  0  0  0  0  0  0
    3.6427   -8.3547   15.7232 C   0  0  0  0  0  0  0  0  0  0  0  0
    6.7791   -7.2163   15.2244 C   0  0  0  0  0  0  0  0  0  0  0  0
    7.9739   -7.4950   18.2292 C   0  0  0  0  0  0  0  0  0  0  0  0
    7.3332   -8.1205   16.0945 C   0  0  0  0  0  0  0  0  0  0  0  0
   11.3061   -4.5673   21.2035 C   0  0  0  0  0  0  0  0  0  0  0  0
   11.3824   -2.6287   21.6305 C   0  0  0  0  0  0  0  0  0  0  0  0
   11.2909   -3.1445   21.6013 C   0  0  0  0  0  0  0  0  0  0  0  0
  2 22  4  0
 12 25  1  0
 14 20  4  0
 28 29  4  0
M  END
$$$$

 Created by Python create_sdf_string function

 29 46  0  0  0  0  0  0  0  0999 V2000
   11.6528   -4.6643   23.5618 O   0  0  0  0  0  0  0  0  0  0  0  0
    9.9644   -7.9974   17.9797 Cl  0  0  0  0  0  0  0  0  0  0  0  0
    9.0406   -5.2297   20.3339 N   0  0  0  0  0  0  0  0  0  0  0  0
    9.6672   -6.5632   17.7176 C   0  0  0  0  0  0  0  0  0  0  0  0
   11.0110   -4.5541   17.0842 C   0  0  0  0  0  0  0  0  0  0  0  0
    9.1369   -4.1116   16.5653 O   0  0  0  0  0  0  0  0  0  0  0  0
   11.1221   -7.5904   19.2819 N   0  0  0  0  0  0  0  0  0  0  0  0
    7.2712   -7.3079   18.5881 N   0  0  0  0  0  0  0  0  0  0  0  0
    9.4407   -5.2939   17.2873 F   0  0  0  0  0  0  0  0  0  0  0  0
    6.3140   -7.8852   15.4444 C   0  0  0  0  0  0  0  0  0  0  0  0
   11.0253   -4.8446   20.9556 O   0  0  0  0  0  0  0  0  0  0  0  0
    5.9744   -8.5771   15.6082 P   0  0  0  0  0  0  0  0  0  0  0  0
    2.8669   -9.4144   16.8086 N   0  0  0  0  0  0  0  0  0  0  0  0
    4.0239   -7.9188   16.3901 C   0  0  0  0  0  0  0  0  0  0  0  0
    8.3550   -6.1998   15.4615 N   0  0  0  0  0  0  0  0  0  0  0  0
   10.6378   -5.0474   21.1385 O   0  0  0  0  0  0  0  0  0  0  0  0
   10.1935   -3.8437   21.1567 Cl  0  0  0  0  0  0  0  0  0  0  0  0
    9.0906   -2.9471   15.0531 He  0  0  0  0  0  0  0  0  0  0  0  0
    4.0895   -8.2230   17.4895 He  0  0  0  0  0  0  0  0  0  0  0  0
    9.5473   -3.7683   16.5698 He  0  0  0  0  0  0  0  0  0  0  0  0
    8.6119   -8.1452   15.2451 He  0  0  0  0  0  0  0  0  0  0  0  0
    2.9766   -8.9967   16.5491 He  0  0  0  0  0  0  0  0  0  0  0  0
   11.5442   -2.7588   22.5394 He  0  0  0  0  0  0  0  0  0  0  0  0
    2.4200   -6.7582   16.3463 He  0  0  0  0  0  0  0  0  0  0  0  0
   10.5816   -3.8679   19.5246 He  0  0  0  0  0  0  0  0  0  0  0  0
   12.3157   -4.2992   24.1881 He  0  0  0  0  0  0  0  0  0  0  0  0
    5.5990   -7.3658   16.1852 He  0  0  0  0  0  0  0  0  0  0  0  0
    7.7753   -7.6985   18.4566 He  0  0  0  0  0  0  0  0  0  0  0  0
   10.3885   -3.0538   20.4396 He  0  0  0  0  0  0  0  0  0  0  0  0
  1  7  3  0
  1 12  2  0
  1 13  3  0
  1 14  2  0
  1 16  1  0
  2  4  3  0
  2  6  1  0
  2 10  4  0
  2 13  1  0
  3 10  2  0
  3 12  4  0
  3 14  2  0
  4  5  4  0
  4  7  3  0
  4 10  3  0
  4 13  2  0
  5  6  2  0
  5 10  2  0
  5 12  3  0
  5 13  3  0
  5 17  1  0
  6  7  3  0
  6  8  1  0
  6  9  3  0
  6 10  4  0
  6 16  2  0
  7 10  1  0
  7 11  2  0
  7 12  1  0
  7 13  2  0
  7 14  3  0
  7 15  1  0
  8 10  1  0
  8 12  4  0
  9 11  3  0
  9 15  2  0
  9 17  3  0
 10 14  4  0
 10 17  2  0
 11 13  1  0
 12 15  2  0
 12 17  1  0
 13 14  1  0
 13 15  2  0
 14 16  3  0
 16 17  2  0
M  END
$$$$

 Created by Python create_sdf_string function

 29  7  0  0  0  0  0  0  0  0999 V2000
    9.5013   -3.6739   15.7977 C   0  0  0  0  0  0  0  0  0  0  0  0
   11.5931   -4.4223   23.5172 O   0  0  0  0  0  0  0  0  0  0  0  0
    4.4556   -8.3724   17.3020 C   0  0  0  0  0  0  0  0  0  0  0  0
   10.2116   -3.9170   16.7594 C   0  0  0  0  0  0  0  0  0  0  0  0
    9.4375   -7.8259   17.9555 C   0  0  0  0  0  0  0  0  0  0  0  0
   10.2323   -5.0020   19.7427 C   0  0  0  0  0  0  0  0  0  0  0  0
    9.4246   -6.5821   17.8466 C   0  0  0  0  0  0  0  0  0  0  0  0
    8.1668   -8.0760   15.6378 C   0  0  0  0  0  0  0  0  0  0  0  0
   10.5902   -4.3277   17.4379 C   0  0  0  0  0  0  0  0  0  0  0  0
    9.4564   -4.2962   16.3368 C   0  0  0  0  0  0  0  0  0  0  0  0
   10.3122   -6.9666   19.1089 C   0  0  0  0  0  0  0  0  0  0  0  0
    7.0765   -7.7498   17.9210 C   0  0  0  0  0  0  0  0  0  0  0  0
    9.5668   -5.3953   17.2341 C   0  0  0  0  0  0  0  0  0  0  0  0
    2.7502   -8.8193   16.7150 C   0  0  0  0  0  0  0  0  0  0  0  0
   11.3542   -3.0548   22.9748 C   0  0  0  0  0  0  0  0  0  0  0  0
    6.3270   -8.0278   15.8979 C   0  0  0  0  0  0  0  0  0  0  0  0
   11.1448   -4.7670   21.3178 C   0  0  0  0  0  0  0  0  0  0  0  0
    2.9016   -7.7112   16.1487 C   0  0  0  0  0  0  0  0  0  0  0  0
    6.3463   -8.1512   15.9659 C   0  0  0  0  0  0  0  0  0  0  0  0
    2.8614   -8.7148   16.6249 C   0  0  0  0  0  0  0  0  0  0  0  0
   10.7592   -4.2469   19.4745 C   0  0  0  0  0  0  0  0  0  0  0  0
   11.7109   -4.1850   23.8968 O   0  0  0  0  0  0  0  0  0  0  0  0
    4.2621   -8.2724   16.5393 C   0  0  0  0  0  0  0  0  0  0  0  0
    5.4220   -7.8639   16.1719 C   0  0  0  0  0  0  0  0  0  0  0  0
    7.9035   -7.7353   17.7613 C   0  0  0  0  0  0  0  0  0  0  0  0
    8.3489   -6.3524   15.8440 C   0  0  0  0  0  0  0  0  0  0  0  0
   11.1191   -4.7998   21.6890 C   0  0  0  0  0  0  0  0  0  0  0  0
   10.8497   -3.8346   21.3924 C   0  0  0  0  0  0  0  0  0  0  0  0
   10.9274   -3.7176   20.5968 C   0  0  0  0  0  0  0  0  0  0  0  0
  1 10  4  0
  2 22  1  0
  3 23  4  0
  4  9  4  0
 12 25  1  0
 14 20  4  0
 18 20  4  0
M  END
$$$$

 Created by Python create_sdf_string function

 29 74  0  0  0  0  0  0  0  0999 V2000
   10.2743   -4.3251   15.0714 C   0  0  0  0  0  0  0  0  0  0  0  0
   10.1668   -5.3926   22.8334 N   0  0  0  0  0  0  0  0  0  0  0  0
    9.9743   -3.6610   16.1668 N   0  0  0  0  0  0  0  0  0  0  0  0
   10.2804   -5.5506   20.4859 C   0  0  0  0  0  0  0  0  0  0  0  0
    9.1455   -5.5972   19.2478 O   0  0  0  0  0  0  0  0  0  0  0  0
    8.9747   -8.7350   15.7850 Cl  0  0  0  0  0  0  0  0  0  0  0  0
   11.5118   -7.9112   21.0428 N   0  0  0  0  0  0  0  0  0  0  0  0
    7.0554   -6.8559   19.0572 C   0  0  0  0  0  0  0  0  0  0  0  0
   10.2017   -6.7997   17.0621 C   0  0  0  0  0  0  0  0  0  0  0  0
    2.7301   -7.2553   15.9979 O   0  0  0  0  0  0  0  0  0  0  0  0
   10.9412   -2.6265   23.9653 O   0  0  0  0  0  0  0  0  0  0  0  0
    1.2911   -6.9728   16.7915 C   0  0  0  0  0  0  0  0  0  0  0  0
    4.6500   -9.0893   14.4287 C   0  0  0  0  0  0  0  0  0  0  0  0
    2.8771   -7.6097   16.2553 O   0  0  0  0  0  0  0  0  0  0  0  0
    9.4757   -4.6048   20.6994 C   0  0  0  0  0  0  0  0  0  0  0  0
   11.3186   -4.0853   22.5635 F   0  0  0  0  0  0  0  0  0  0  0  0
    8.1763   -7.5578   18.2736 O   0  0  0  0  0  0  0  0  0  0  0  0
   10.1105   -6.4174   16.3030 C   0  0  0  0  0  0  0  0  0  0  0  0
   10.7636   -4.9490   21.5756 F   0  0  0  0  0  0  0  0  0  0  0  0
   10.9058   -2.7718   21.4625 O   0  0  0  0  0  0  0  0  0  0  0  0
   11.2715   -1.0164   19.5207 C   0  0  0  0  0  0  0  0  0  0  0  0
    3.7963   -8.8277   17.9560 He  0  0  0  0  0  0  0  0  0  0  0  0
    7.6832   -7.2985   18.5000 He  0  0  0  0  0  0  0  0  0  0  0  0
    9.7619   -4.6789   15.8779 He  0  0  0  0  0  0  0  0  0  0  0  0
   10.6522   -4.5896   16.9034 He  0  0  0  0  0  0  0  0  0  0  0  0
    6.0104   -6.3184   14.7421 He  0  0  0  0  0  0  0  0  0  0  0  0
    9.7497   -4.7636   21.1616 He  0  0  0  0  0  0  0  0  0  0  0  0
    4.2875   -8.2008   15.5560 He  0  0  0  0  0  0  0  0  0  0  0  0
    6.0209   -8.3393   16.2877 He  0  0  0  0  0  0  0  0  0  0  0  0
  1  2  2  0
  1  3  4  0
  1  4  2  0
  1 16  3  0
  1 17  1  0
  2  3  4  0
  2  5  1  0
  2  7  4  0
  2  9  1  0
  2 11  1  0
  2 13  2  0
  3  4  2  0
  3 12  1  0
  3 16  4  0
  3 17  3  0
  4  5  4  0
  4  9  3  0
  4 12  2  0
  4 15  1  0
  5  7  3  0
  5 10  3  0
  5 17  3  0
  5 18  1  0
  5 21  1  0
  6  8  2  0
  6 12  4  0
  6 13  4  0
  6 14  1  0
  6 17  4  0
  6 20  2  0
  7 15  4  0
  7 18  1  0
  7 20  1  0
  7 21  2  0
  8  9  1  0
  8 11  3  0
  8 13  2  0
  8 14  1  0
  8 15  4  0
  8 16  3  0
  8 18  2  0
  8 19  1  0
  9 11  4  0
  9 12  1  0
  9 16  4  0
  9 18  3  0
  9 19  1  0
  9 21  1  0
 10 12  3  0
 10 13  3  0
 10 16  3  0
 10 18  2  0
 11 12  4  0
 11 14  1  0
 11 16  3  0
 11 18  1  0
 11 19  1  0
 11 21  1  0
 12 14  4  0
 12 17  4  0
 12 18  1  0
 12 20  2  0
 13 19  2  0
 14 15  3  0
 14 16  4  0
 14 19  3  0
 15 16  4  0
 16 20  4  0
 16 21  1  0
 17 18  1  0
 17 21  4  0
 18 21  3  0
 19 21  1  0
 20 21  4  0
M  END
$$$$

 Created by Python create_sdf_string function

 29  9  0  0  0  0  0  0  0  0999 V2000
   10.1850   -4.0235   15.8669 C   0  0  0  0  0  0  0  0  0  0  0  0
   11.1787   -4.7975   22.9738 C   0  0  0  0  0  0  0  0  0  0  0  0
    3.9496   -8.2656   17.0684 C   0  0  0  0  0  0  0  0  0  0  0  0
   10.3150   -3.8010   16.3580 C   0  0  0  0  0  0  0  0  0  0  0  0
    7.9035   -7.4915   17.6288 C   0  0  0  0  0  0  0  0  0  0  0  0
   10.3939   -5.2278   19.8159 C   0  0  0  0  0  0  0  0  0  0  0  0
    9.9285   -5.6292   18.6639 C   0  0  0  0  0  0  0  0  0  0  0  0
    8.1826   -8.1598   15.9371 C   0  0  0  0  0  0  0  0  0  0  0  0
    9.6685   -4.4572   16.1515 C   0  0  0  0  0  0  0  0  0  0  0  0
   10.5289   -4.1490   17.2069 C   0  0  0  0  0  0  0  0  0  0  0  0
   10.4747   -6.3333   20.2191 C   0  0  0  0  0  0  0  0  0  0  0  0
    6.9910   -7.5225   17.8983 C   0  0  0  0  0  0  0  0  0  0  0  0
    9.4911   -6.2502   17.2632 C   0  0  0  0  0  0  0  0  0  0  0  0
    2.7889   -7.9615   16.0439 C   0  0  0  0  0  0  0  0  0  0  0  0
   10.9940   -3.0631   23.8721 O   0  0  0  0  0  0  0  0  0  0  0  0
    6.3959   -7.3275   15.6021 C   0  0  0  0  0  0  0  0  0  0  0  0
   10.5609   -4.2372   20.6529 C   0  0  0  0  0  0  0  0  0  0  0  0
    2.1414   -7.7485   16.2988 C   0  0  0  0  0  0  0  0  0  0  0  0
    4.7896   -8.2247   15.6044 C   0  0  0  0  0  0  0  0  0  0  0  0
    2.7605   -7.9756   16.4387 C   0  0  0  0  0  0  0  0  0  0  0  0
   10.4138   -4.4937   20.1594 C   0  0  0  0  0  0  0  0  0  0  0  0
   11.0730   -3.7031   22.7217 C   0  0  0  0  0  0  0  0  0  0  0  0
    4.3204   -7.9900   15.9353 C   0  0  0  0  0  0  0  0  0  0  0  0
    6.3432   -8.1457   16.4440 C   0  0  0  0  0  0  0  0  0  0  0  0
    8.1871   -7.6523   17.6929 C   0  0  0  0  0  0  0  0  0  0  0  0
    9.2942   -6.3306   16.9559 C   0  0  0  0  0  0  0  0  0  0  0  0
   10.9734   -4.4307   21.7645 C   0  0  0  0  0  0  0  0  0  0  0  0
   11.1774   -2.8669   21.7162 C   0  0  0  0  0  0  0  0  0  0  0  0
   11.1326   -2.6905   19.7753 C   0  0  0  0  0  0  0  0  0  0  0  0
  1  4  4  0
  1  9  4  0
  4 10  4  0
 13 26  4  0
 14 18  4  0
 17 21  4  0
 18 20  4  0
 19 23  4  0
 22 28  4  0
M  END
$$$$

 Created by Python create_sdf_string function

 29 56  0  0  0  0  0  0  0  0999 V2000
    3.0036   -6.9018   16.8539 C   0  0  0  0  0  0  0  0  0  0  0  0
   10.1670   -4.2511   16.4214 N   0  0  0  0  0  0  0  0  0  0  0  0
    6.2116   -7.7883   17.2230 C   0  0  0  0  0  0  0  0  0  0  0  0
    9.7353   -4.3468   20.9720 P   0  0  0  0  0  0  0  0  0  0  0  0
    8.1381   -3.8391   18.0840 N   0  0  0  0  0  0  0  0  0  0  0  0
   10.2935   -6.4786   20.2299 C   0  0  0  0  0  0  0  0  0  0  0  0
    9.9129   -5.8324   18.1688 F   0  0  0  0  0  0  0  0  0  0  0  0
    7.4642   -7.4628   14.7367 N   0  0  0  0  0  0  0  0  0  0  0  0
    1.9097  -10.4626   17.6016 C   0  0  0  0  0  0  0  0  0  0  0  0
   12.2661   -4.6261   20.2850 O   0  0  0  0  0  0  0  0  0  0  0  0
   10.4698   -5.4715   22.4095 O   0  0  0  0  0  0  0  0  0  0  0  0
    3.3832   -7.7344   16.3348 C   0  0  0  0  0  0  0  0  0  0  0  0
    5.9948   -9.8314   16.5479 C   0  0  0  0  0  0  0  0  0  0  0  0
    6.9946   -8.0029   16.1168 F   0  0  0  0  0  0  0  0  0  0  0  0
    8.9065   -6.9474   17.7753 C   0  0  0  0  0  0  0  0  0  0  0  0
   10.1741   -3.9088   22.6435 I   0  0  0  0  0  0  0  0  0  0  0  0
   10.7010   -4.3030   21.2258 O   0  0  0  0  0  0  0  0  0  0  0  0
    9.7961    0.0699   19.4599 N   0  0  0  0  0  0  0  0  0  0  0  0
   10.6066   -1.6123   15.8885 He  0  0  0  0  0  0  0  0  0  0  0  0
   11.9332   -5.7192   24.1344 He  0  0  0  0  0  0  0  0  0  0  0  0
    8.6472   -5.1224   18.0697 He  0  0  0  0  0  0  0  0  0  0  0  0
    7.0906   -8.4773   15.2934 He  0  0  0  0  0  0  0  0  0  0  0  0
    9.6273   -4.4627   15.2433 He  0  0  0  0  0  0  0  0  0  0  0  0
    8.2295   -6.7413   16.6455 He  0  0  0  0  0  0  0  0  0  0  0  0
    3.0856   -6.9953   15.6996 He  0  0  0  0  0  0  0  0  0  0  0  0
   11.7702   -2.7580   23.9022 He  0  0  0  0  0  0  0  0  0  0  0  0
   10.4538   -5.5066   21.7907 He  0  0  0  0  0  0  0  0  0  0  0  0
    2.6129   -8.1443   16.8860 He  0  0  0  0  0  0  0  0  0  0  0  0
    4.8370   -7.3304   15.0643 He  0  0  0  0  0  0  0  0  0  0  0  0
  1  2  3  0
  1  3  1  0
  1  5  4  0
  1  6  4  0
  1 10  4  0
  1 14  2  0
  1 18  2  0
  2  3  2  0
  2  4  4  0
  2  6  3  0
  2 11  3  0
  2 18  3  0
  3  5  4  0
  3  6  1  0
  3  8  4  0
  3  9  1  0
  3 13  4  0
  3 16  1  0
  4  5  3  0
  4  8  2  0
  4 10  1  0
  4 13  2  0
  4 17  1  0
  5  7  2  0
  5  9  2  0
  5 11  1  0
  5 12  1  0
  5 14  1  0
  6 10  1  0
  6 14  4  0
  6 18  2  0
  7 11  1  0
  7 13  4  0
  7 15  4  0
  8 12  4  0
  8 14  2  0
  8 16  2  0
  8 17  1  0
  9 12  3  0
  9 15  4  0
 10 14  3  0
 10 16  2  0
 11 13  4  0
 11 16  1  0
 11 17  2  0
 12 13  2  0
 12 17  2  0
 13 14  1  0
 13 15  3  0
 13 17  1  0
 14 15  4  0
 14 17  3  0
 15 18  1  0
 16 17  3  0
 16 18  3  0
 17 18  1  0
M  END
$$$$

 Created by Python create_sdf_string function

 29  5  0  0  0  0  0  0  0  0999 V2000
   10.9402   -3.1758   16.7565 C   0  0  0  0  0  0  0  0  0  0  0  0
   11.6850   -4.9814   23.7643 O   0  0  0  0  0  0  0  0  0  0  0  0
    3.3604   -7.7875   16.2643 C   0  0  0  0  0  0  0  0  0  0  0  0
   10.1283   -4.0401   16.6125 C   0  0  0  0  0  0  0  0  0  0  0  0
    6.4914   -7.9819   17.0437 C   0  0  0  0  0  0  0  0  0  0  0  0
   10.5889   -4.1003   20.3365 C   0  0  0  0  0  0  0  0  0  0  0  0
    9.5374   -5.4844   17.8115 C   0  0  0  0  0  0  0  0  0  0  0  0
    7.1167   -8.2488   15.9211 C   0  0  0  0  0  0  0  0  0  0  0  0
    9.5509   -4.4370   16.1141 C   0  0  0  0  0  0  0  0  0  0  0  0
   10.0213   -4.2167   18.1181 C   0  0  0  0  0  0  0  0  0  0  0  0
   10.5199   -5.7722   19.8324 C   0  0  0  0  0  0  0  0  0  0  0  0
    8.3780   -6.7090   16.6563 C   0  0  0  0  0  0  0  0  0  0  0  0
    9.6005   -5.8320   18.0581 C   0  0  0  0  0  0  0  0  0  0  0  0
    3.1728   -7.8605   16.1351 C   0  0  0  0  0  0  0  0  0  0  0  0
   11.1936   -3.2289   23.5931 O   0  0  0  0  0  0  0  0  0  0  0  0
    7.6521   -7.4854   15.5475 C   0  0  0  0  0  0  0  0  0  0  0  0
   11.1962   -4.9358   21.7218 C   0  0  0  0  0  0  0  0  0  0  0  0
    2.8756   -8.9022   16.6397 C   0  0  0  0  0  0  0  0  0  0  0  0
    5.1445   -7.6134   15.7833 C   0  0  0  0  0  0  0  0  0  0  0  0
    2.4023   -9.5832   17.0524 C   0  0  0  0  0  0  0  0  0  0  0  0
   11.4242   -4.4817   20.2583 C   0  0  0  0  0  0  0  0  0  0  0  0
   11.3742   -4.8614   22.6265 C   0  0  0  0  0  0  0  0  0  0  0  0
    3.6010   -8.4371   16.4618 C   0  0  0  0  0  0  0  0  0  0  0  0
    5.5116   -8.8916   16.8906 C   0  0  0  0  0  0  0  0  0  0  0  0
    7.2277   -7.9344   16.4005 C   0  0  0  0  0  0  0  0  0  0  0  0
    8.9354   -7.1199   17.7221 C   0  0  0  0  0  0  0  0  0  0  0  0
   10.8784   -3.4894   22.7406 C   0  0  0  0  0  0  0  0  0  0  0  0
   10.8593   -3.8972   21.1360 C   0  0  0  0  0  0  0  0  0  0  0  0
   11.0562   -2.3634   18.8696 N   0  0  0  0  0  0  0  0  0  0  0  0
  1  4  4  0
  3 14  4  0
  4  9  4  0
  7 13  4  0
 18 20  1  0
M  END
$$$$

 Created by Python create_sdf_string function

 29 19  0  0  0  0  0  0  0  0999 V2000
   14.2134   -6.5459   24.0817 N   0  0  0  0  0  0  0  0  0  0  0  0
    2.1898   -8.4374   15.7359 C   0  0  0  0  0  0  0  0  0  0  0  0
   10.2208   -3.0314   15.7972 P   0  0  0  0  0  0  0  0  0  0  0  0
   10.8552   -3.4505   20.6080 F   0  0  0  0  0  0  0  0  0  0  0  0
    9.7377   -5.8975   18.9002 F   0  0  0  0  0  0  0  0  0  0  0  0
    3.6137   -6.5448   16.5084 P   0  0  0  0  0  0  0  0  0  0  0  0
   10.2098   -6.7243   21.7316 C   0  0  0  0  0  0  0  0  0  0  0  0
    6.4570   -7.9665   15.3503 C   0  0  0  0  0  0  0  0  0  0  0  0
    4.1689   -9.5379   16.8820 C   0  0  0  0  0  0  0  0  0  0  0  0
    6.9214   -9.4620   16.0284 C   0  0  0  0  0  0  0  0  0  0  0  0
   12.3073   -2.1771   22.5544 C   0  0  0  0  0  0  0  0  0  0  0  0
   10.8094   -4.1430   20.4902 C   0  0  0  0  0  0  0  0  0  0  0  0
   10.4618   -4.0365   15.9443 He  0  0  0  0  0  0  0  0  0  0  0  0
    6.8043   -8.4430   17.3379 He  0  0  0  0  0  0  0  0  0  0  0  0
   10.1536   -6.0464   17.6663 He  0  0  0  0  0  0  0  0  0  0  0  0
    6.1172   -9.1270   13.9205 He  0  0  0  0  0  0  0  0  0  0  0  0
   10.8946   -4.6069   14.1535 He  0  0  0  0  0  0  0  0  0  0  0  0
    8.3345   -4.8365   17.3925 He  0  0  0  0  0  0  0  0  0  0  0  0
   10.2180   -7.0410   19.4621 He  0  0  0  0  0  0  0  0  0  0  0  0
    7.7257   -5.4749   15.4856 He  0  0  0  0  0  0  0  0  0  0  0  0
   11.0530   -2.7733   23.4034 He  0  0  0  0  0  0  0  0  0  0  0  0
    6.6391   -7.1538   15.4628 He  0  0  0  0  0  0  0  0  0  0  0  0
    3.2393  -10.5026   18.0084 He  0  0  0  0  0  0  0  0  0  0  0  0
    2.9385   -9.4005   15.6556 He  0  0  0  0  0  0  0  0  0  0  0  0
   11.5389   -6.3327   21.3535 He  0  0  0  0  0  0  0  0  0  0  0  0
   11.6907   -4.0952   22.5738 He  0  0  0  0  0  0  0  0  0  0  0  0
    4.8659  -11.0419   16.0016 He  0  0  0  0  0  0  0  0  0  0  0  0
    9.0338   -6.5419   18.1477 He  0  0  0  0  0  0  0  0  0  0  0  0
   10.8336   -3.8033   18.6966 He  0  0  0  0  0  0  0  0  0  0  0  0
  1  4  4  0
  1  5  2  0
  1  6  3  0
  1  7  3  0
  1 12  3  0
  2  4  3  0
  2  8  1  0
  2  9  4  0
  2 10  4  0
  4  5  3  0
  4  8  2  0
  4  9  1  0
  4 10  1  0
  4 12  4  0
  6 10  4  0
  6 11  2  0
  7 11  1  0
  8 10  2  0
  9 12  3  0
M  END
$$$$

 Created by Python create_sdf_string function

 29  9  0  0  0  0  0  0  0  0999 V2000
   10.2092   -3.9239   16.4124 C   0  0  0  0  0  0  0  0  0  0  0  0
   12.6100   -5.1162   23.8640 O   0  0  0  0  0  0  0  0  0  0  0  0
    2.8514   -8.8486   16.2115 C   0  0  0  0  0  0  0  0  0  0  0  0
   10.3730   -3.7695   16.1195 C   0  0  0  0  0  0  0  0  0  0  0  0
    7.5539   -8.0520   17.1786 C   0  0  0  0  0  0  0  0  0  0  0  0
   11.0218   -3.7837   20.6092 C   0  0  0  0  0  0  0  0  0  0  0  0
    9.6372   -5.5304   17.5791 C   0  0  0  0  0  0  0  0  0  0  0  0
    6.2101   -8.8800   15.5957 C   0  0  0  0  0  0  0  0  0  0  0  0
   10.3879   -3.9784   15.6544 C   0  0  0  0  0  0  0  0  0  0  0  0
    9.0955   -5.5948   17.0265 C   0  0  0  0  0  0  0  0  0  0  0  0
   10.0663   -6.5761   19.1031 C   0  0  0  0  0  0  0  0  0  0  0  0
    7.7931   -5.8886   15.7684 C   0  0  0  0  0  0  0  0  0  0  0  0
   10.0076   -5.6888   18.6879 C   0  0  0  0  0  0  0  0  0  0  0  0
    4.0766   -7.8700   16.0159 C   0  0  0  0  0  0  0  0  0  0  0  0
   11.4025   -3.2228   23.1271 C   0  0  0  0  0  0  0  0  0  0  0  0
    7.0655   -7.0155   15.8473 C   0  0  0  0  0  0  0  0  0  0  0  0
   11.1765   -5.5974   21.2320 C   0  0  0  0  0  0  0  0  0  0  0  0
    3.3850   -9.9915   17.5021 C   0  0  0  0  0  0  0  0  0  0  0  0
    6.6462   -7.8207   15.8178 C   0  0  0  0  0  0  0  0  0  0  0  0
    2.8921   -8.9274   16.2204 C   0  0  0  0  0  0  0  0  0  0  0  0
   11.2743   -5.5043   21.3720 C   0  0  0  0  0  0  0  0  0  0  0  0
   11.9095   -4.3178   22.9082 C   0  0  0  0  0  0  0  0  0  0  0  0
    4.2264   -9.4100   16.9219 C   0  0  0  0  0  0  0  0  0  0  0  0
    5.0292  -10.0116   16.7577 C   0  0  0  0  0  0  0  0  0  0  0  0
    6.7276   -8.8824   16.3846 C   0  0  0  0  0  0  0  0  0  0  0  0
    8.8308   -6.6862   17.6521 C   0  0  0  0  0  0  0  0  0  0  0  0
   11.5607   -3.2180   22.5153 C   0  0  0  0  0  0  0  0  0  0  0  0
   11.0093   -4.2218   20.5177 C   0  0  0  0  0  0  0  0  0  0  0  0
   10.7781   -3.9751   18.7313 C   0  0  0  0  0  0  0  0  0  0  0  0
  1  4  4  0
  2 22  1  0
  3 20  4  0
  4  9  4  0
  6 28  4  0
 15 27  4  0
 17 21  4  0
 18 23  1  0
 23 24  4  0
M  END
$$$$

 Created by Python create_sdf_string function

 29 48  0  0  0  0  0  0  0  0999 V2000
    7.9858   -4.4196   16.7171 C   0  0  0  0  0  0  0  0  0  0  0  0
    7.8935   -8.3548   18.6150 N   0  0  0  0  0  0  0  0  0  0  0  0
   11.9921   -4.7568   22.1054 C   0  0  0  0  0  0  0  0  0  0  0  0
    6.9116   -9.8342   17.1519 F   0  0  0  0  0  0  0  0  0  0  0  0
    9.5829   -5.3254   15.3660 C   0  0  0  0  0  0  0  0  0  0  0  0
    8.0009   -5.6589   17.9457 C   0  0  0  0  0  0  0  0  0  0  0  0
    8.6135   -5.8684   18.2275 I   0  0  0  0  0  0  0  0  0  0  0  0
    2.9074   -7.9704   16.4741 Br  0  0  0  0  0  0  0  0  0  0  0  0
    6.7515   -7.1556   16.0053 F   0  0  0  0  0  0  0  0  0  0  0  0
   10.6315   -6.1194   20.4962 C   0  0  0  0  0  0  0  0  0  0  0  0
    3.7838  -11.3757   17.7684 F   0  0  0  0  0  0  0  0  0  0  0  0
    2.0125   -9.5491   16.0155 C   0  0  0  0  0  0  0  0  0  0  0  0
    3.1046   -9.6415   16.3611 C   0  0  0  0  0  0  0  0  0  0  0  0
    4.9439   -9.7001   16.1575 N   0  0  0  0  0  0  0  0  0  0  0  0
    8.5383   -6.8435   16.9071 C   0  0  0  0  0  0  0  0  0  0  0  0
   11.6047   -2.4154   23.0053 Cl  0  0  0  0  0  0  0  0  0  0  0  0
   12.1567   -3.2009   18.6448 C   0  0  0  0  0  0  0  0  0  0  0  0
   13.5733   -6.2680   23.5684 He  0  0  0  0  0  0  0  0  0  0  0  0
    3.2053   -8.3931   15.9762 He  0  0  0  0  0  0  0  0  0  0  0  0
   10.1691   -2.4921   17.2468 He  0  0  0  0  0  0  0  0  0  0  0  0
    9.4684   -6.5779   17.6603 He  0  0  0  0  0  0  0  0  0  0  0  0
    9.5479   -4.6830   16.8892 He  0  0  0  0  0  0  0  0  0  0  0  0
    9.9101   -6.7735   19.9553 He  0  0  0  0  0  0  0  0  0  0  0  0
   12.2080   -3.0840   24.9187 He  0  0  0  0  0  0  0  0  0  0  0  0
    5.8224   -7.7294   15.7511 He  0  0  0  0  0  0  0  0  0  0  0  0
    9.9680   -6.4982   21.6386 He  0  0  0  0  0  0  0  0  0  0  0  0
   13.7920   -5.5268   22.8098 He  0  0  0  0  0  0  0  0  0  0  0  0
    7.0702   -8.6128   16.7034 He  0  0  0  0  0  0  0  0  0  0  0  0
   11.8190   -3.9344   18.8857 He  0  0  0  0  0  0  0  0  0  0  0  0
  1  2  2  0
  1  9  1  0
  1 11  2  0
  1 12  2  0
  1 14  4  0
  2  5  2  0
  2  7  4  0
  2  8  3  0
  2 10  1  0
  2 12  4  0
  3  4  1  0
  3  5  4  0
  3  6  1  0
  3 13  4  0
  4  5  3  0
  4  6  2  0
  4  7  4  0
  4  8  4  0
  4  9  4  0
  4 14  2  0
  4 17  4  0
  5 11  3  0
  5 16  2  0
  5 17  4  0
  6  9  3  0
  6 11  4  0
  6 16  4  0
  7  9  2  0
  7 13  2  0
  7 15  2  0
  8 12  4  0
  8 13  3  0
  8 14  1  0
  8 17  1  0
  9 10  1  0
  9 11  4  0
  9 16  1  0
  9 17  4  0
 10 13  4  0
 10 16  3  0
 11 12  2  0
 11 13  2  0
 11 15  4  0
 11 16  4  0
 12 14  2  0
 12 15  4  0
 12 17  2  0
 13 17  4  0
M  END
$$$$

 Created by Python create_sdf_string function

 29  9  0  0  0  0  0  0  0  0999 V2000
    8.9012   -4.8814   16.2572 C   0  0  0  0  0  0  0  0  0  0  0  0
   12.7805   -5.3301   23.4553 C   0  0  0  0  0  0  0  0  0  0  0  0
    3.5548   -8.7202   16.3391 C   0  0  0  0  0  0  0  0  0  0  0  0
   10.8848   -3.4188   17.3829 C   0  0  0  0  0  0  0  0  0  0  0  0
    7.9686   -8.0673   18.0679 C   0  0  0  0  0  0  0  0  0  0  0  0
   11.9422   -4.7588   21.8304 C   0  0  0  0  0  0  0  0  0  0  0  0
    9.3173   -6.5494   17.9465 C   0  0  0  0  0  0  0  0  0  0  0  0
    6.4275   -9.2213   17.0689 C   0  0  0  0  0  0  0  0  0  0  0  0
    9.5424   -4.5921   16.1975 C   0  0  0  0  0  0  0  0  0  0  0  0
    9.8399   -4.3751   16.6865 C   0  0  0  0  0  0  0  0  0  0  0  0
   10.2679   -6.0296   19.7062 C   0  0  0  0  0  0  0  0  0  0  0  0
    8.7307   -6.2520   17.7392 C   0  0  0  0  0  0  0  0  0  0  0  0
    9.1926   -6.1921   18.0997 C   0  0  0  0  0  0  0  0  0  0  0  0
    3.3167   -8.6028   16.2184 C   0  0  0  0  0  0  0  0  0  0  0  0
   12.1743   -3.9188   23.8703 C   0  0  0  0  0  0  0  0  0  0  0  0
    6.9063   -7.1557   16.1394 C   0  0  0  0  0  0  0  0  0  0  0  0
   11.0381   -5.3084   20.6902 C   0  0  0  0  0  0  0  0  0  0  0  0
    3.9260  -10.3100   17.6526 C   0  0  0  0  0  0  0  0  0  0  0  0
    5.5628   -7.9280   16.1071 C   0  0  0  0  0  0  0  0  0  0  0  0
    2.3100   -9.4073   16.6610 C   0  0  0  0  0  0  0  0  0  0  0  0
   11.3538   -5.2336   21.3549 C   0  0  0  0  0  0  0  0  0  0  0  0
   12.9162   -5.0888   23.1564 C   0  0  0  0  0  0  0  0  0  0  0  0
    3.1030   -9.5836   16.9667 C   0  0  0  0  0  0  0  0  0  0  0  0
    4.8345   -9.3410   16.7978 C   0  0  0  0  0  0  0  0  0  0  0  0
    7.2120   -8.3088   16.7697 C   0  0  0  0  0  0  0  0  0  0  0  0
    8.1814   -7.0747   16.7032 C   0  0  0  0  0  0  0  0  0  0  0  0
   11.7077   -3.6147   22.8230 C   0  0  0  0  0  0  0  0  0  0  0  0
   11.1552   -4.1129   19.2324 C   0  0  0  0  0  0  0  0  0  0  0  0
   11.1701   -3.7543   18.9874 C   0  0  0  0  0  0  0  0  0  0  0  0
  2 22  4  0
  3 14  4  0
  4 29  4  0
  6 21  4  0
 14 20  4  0
 15 27  4  0
 17 21  4  0
 18 23  4  0
 28 29  4  0
M  END
$$$$

 Created by Python create_sdf_string function

 29 39  0  0  0  0  0  0  0  0999 V2000
    3.4947   -8.9677   15.7545 N   0  0  0  0  0  0  0  0  0  0  0  0
    9.8496   -3.7637   17.2788 C   0  0  0  0  0  0  0  0  0  0  0  0
    9.5333   -4.8367   17.3201 O   0  0  0  0  0  0  0  0  0  0  0  0
    7.4870   -9.7163   18.1763 O   0  0  0  0  0  0  0  0  0  0  0  0
   10.1672   -5.5894   16.7570 C   0  0  0  0  0  0  0  0  0  0  0  0
    8.4059   -6.8142   17.2185 P   0  0  0  0  0  0  0  0  0  0  0  0
    1.0145  -10.0059   15.6625 N   0  0  0  0  0  0  0  0  0  0  0  0
   11.5799   -3.7849   26.0243 F   0  0  0  0  0  0  0  0  0  0  0  0
    6.7990   -6.2453   17.8333 C   0  0  0  0  0  0  0  0  0  0  0  0
   10.2909   -6.2524   20.8917 C   0  0  0  0  0  0  0  0  0  0  0  0
    3.9469  -11.8309   18.9821 C   0  0  0  0  0  0  0  0  0  0  0  0
   11.0384   -5.3814   20.2002 P   0  0  0  0  0  0  0  0  0  0  0  0
    4.5028   -9.6622   16.8839 N   0  0  0  0  0  0  0  0  0  0  0  0
    5.1141   -8.8783   15.8735 C   0  0  0  0  0  0  0  0  0  0  0  0
   10.2376   -3.8102   19.0985 C   0  0  0  0  0  0  0  0  0  0  0  0
   11.2531   -2.4571   19.1298 C   0  0  0  0  0  0  0  0  0  0  0  0
    9.7934   -4.2933   18.1085 He  0  0  0  0  0  0  0  0  0  0  0  0
   12.2956   -4.9708   24.1818 He  0  0  0  0  0  0  0  0  0  0  0  0
    8.0444   -7.2363   17.6565 He  0  0  0  0  0  0  0  0  0  0  0  0
   12.4116   -4.9024   21.3001 He  0  0  0  0  0  0  0  0  0  0  0  0
   10.9548   -5.5569   17.8224 He  0  0  0  0  0  0  0  0  0  0  0  0
   10.5721   -5.9365   17.7216 He  0  0  0  0  0  0  0  0  0  0  0  0
    8.3572   -5.6418   18.0415 He  0  0  0  0  0  0  0  0  0  0  0  0
    6.2525   -8.0079   15.9130 He  0  0  0  0  0  0  0  0  0  0  0  0
    2.5366   -9.0028   16.3730 He  0  0  0  0  0  0  0  0  0  0  0  0
   13.0033   -5.0414   22.1585 He  0  0  0  0  0  0  0  0  0  0  0  0
    7.7661   -7.3969   16.3776 He  0  0  0  0  0  0  0  0  0  0  0  0
    6.6085   -7.6834   16.9948 He  0  0  0  0  0  0  0  0  0  0  0  0
   12.3334   -4.1883   22.3861 He  0  0  0  0  0  0  0  0  0  0  0  0
  1  3  1  0
  1  5  3  0
  1  7  1  0
  1 12  2  0
  1 15  4  0
  1 16  4  0
  2  3  3  0
  2  4  4  0
  2  5  4  0
  2  7  4  0
  2  9  1  0
  2 10  3  0
  3  9  1  0
  3 10  3  0
  3 11  3  0
  3 16  2  0
  4  7  2  0
  5  6  4  0
  5  8  4  0
  5  9  2  0
  5 10  1  0
  5 13  1  0
  5 16  4  0
  6  7  2  0
  6 16  1  0
  7  8  3  0
  7  9  3  0
  7 10  2  0
  7 12  4  0
  8  9  3  0
  9 11  2  0
  9 16  4  0
 10 13  3  0
 10 15  4  0
 12 13  1  0
 12 15  2  0
 13 15  4  0
 14 16  3  0
 15 16  4  0
M  END
$$$$

 Created by Python create_sdf_string function

 29  9  0  0  0  0  0  0  0  0999 V2000
   10.5283   -4.1105   18.2370 C   0  0  0  0  0  0  0  0  0  0  0  0
   12.2196   -4.7583   23.8988 C   0  0  0  0  0  0  0  0  0  0  0  0
    3.5178   -8.9582   16.0963 N   0  0  0  0  0  0  0  0  0  0  0  0
   10.3117   -3.9227   16.7802 C   0  0  0  0  0  0  0  0  0  0  0  0
    7.9679   -7.5914   17.4472 C   0  0  0  0  0  0  0  0  0  0  0  0
   12.1337   -4.5345   21.8413 C   0  0  0  0  0  0  0  0  0  0  0  0
    9.5174   -4.8515   16.7939 C   0  0  0  0  0  0  0  0  0  0  0  0
    7.0385   -8.7525   17.4588 C   0  0  0  0  0  0  0  0  0  0  0  0
    9.7034   -5.1995   16.8421 C   0  0  0  0  0  0  0  0  0  0  0  0
   10.6837   -5.1834   18.2073 C   0  0  0  0  0  0  0  0  0  0  0  0
   10.1648   -6.0218   17.9660 C   0  0  0  0  0  0  0  0  0  0  0  0
    8.5293   -6.9093   17.1538 C   0  0  0  0  0  0  0  0  0  0  0  0
    8.7018   -6.0282   17.5674 C   0  0  0  0  0  0  0  0  0  0  0  0
    2.1261   -9.4898   16.4056 N   0  0  0  0  0  0  0  0  0  0  0  0
   11.7276   -4.1960   24.7865 O   0  0  0  0  0  0  0  0  0  0  0  0
    6.9341   -7.0406   17.6055 C   0  0  0  0  0  0  0  0  0  0  0  0
   11.0719   -5.2630   20.9229 C   0  0  0  0  0  0  0  0  0  0  0  0
    3.5776  -10.3372   17.8699 C   0  0  0  0  0  0  0  0  0  0  0  0
    6.0470   -8.3573   16.0481 C   0  0  0  0  0  0  0  0  0  0  0  0
    2.5887   -9.5878   16.7902 C   0  0  0  0  0  0  0  0  0  0  0  0
   11.2725   -5.0504   20.7013 C   0  0  0  0  0  0  0  0  0  0  0  0
   12.6736   -4.7894   22.7247 C   0  0  0  0  0  0  0  0  0  0  0  0
    4.2558   -9.6764   17.3875 N   0  0  0  0  0  0  0  0  0  0  0  0
    4.7470   -8.7949   16.2121 C   0  0  0  0  0  0  0  0  0  0  0  0
    7.6322   -7.8384   16.0102 C   0  0  0  0  0  0  0  0  0  0  0  0
    6.0848   -8.2188   16.8264 C   0  0  0  0  0  0  0  0  0  0  0  0
   11.9714   -4.4287   22.9345 C   0  0  0  0  0  0  0  0  0  0  0  0
   10.9519   -4.0661   19.7924 C   0  0  0  0  0  0  0  0  0  0  0  0
   11.0006   -3.4276   19.5023 C   0  0  0  0  0  0  0  0  0  0  0  0
  1 29  4  0
  2 27  1  0
  3 24  4  0
 10 11  4  0
 14 20  4  0
 17 21  4  0
 18 20  4  0
 18 23  4  0
 28 29  4  0
M  END
$$$$

 Created by Python create_sdf_string function

 29 33  0  0  0  0  0  0  0  0999 V2000
   11.4896   -3.6420   18.5594 N   0  0  0  0  0  0  0  0  0  0  0  0
   10.4767   -3.8077   15.2483 C   0  0  0  0  0  0  0  0  0  0  0  0
    9.4009   -6.1657   17.0886 N   0  0  0  0  0  0  0  0  0  0  0  0
   10.5612   -5.4294   16.6092 C   0  0  0  0  0  0  0  0  0  0  0  0
    9.8730   -6.7934   18.8370 I   0  0  0  0  0  0  0  0  0  0  0  0
    8.6632   -7.0508   17.2733 C   0  0  0  0  0  0  0  0  0  0  0  0
    9.0406   -5.6559   16.7654 C   0  0  0  0  0  0  0  0  0  0  0  0
    1.2122   -9.0140   15.5418 I   0  0  0  0  0  0  0  0  0  0  0  0
   11.3936   -5.8674   20.8332 F   0  0  0  0  0  0  0  0  0  0  0  0
    6.3551   -8.1598   16.1292 C   0  0  0  0  0  0  0  0  0  0  0  0
    2.0530  -10.5879   15.9834 F   0  0  0  0  0  0  0  0  0  0  0  0
    3.9204  -10.5447   17.9217 I   0  0  0  0  0  0  0  0  0  0  0  0
    8.4927   -7.7762   15.4693 O   0  0  0  0  0  0  0  0  0  0  0  0
   11.1836   -5.5810   20.3320 P   0  0  0  0  0  0  0  0  0  0  0  0
   11.0565   -5.1362   17.6034 Cl  0  0  0  0  0  0  0  0  0  0  0  0
   12.5590   -5.3325   24.2592 He  0  0  0  0  0  0  0  0  0  0  0  0
    1.9993   -8.7829   15.2484 He  0  0  0  0  0  0  0  0  0  0  0  0
    7.2437   -5.5405   18.1056 He  0  0  0  0  0  0  0  0  0  0  0  0
   12.6839   -4.8996   22.3607 He  0  0  0  0  0  0  0  0  0  0  0  0
    9.5038   -6.3023   16.7577 He  0  0  0  0  0  0  0  0  0  0  0  0
    7.1626   -8.6236   17.2322 He  0  0  0  0  0  0  0  0  0  0  0  0
   12.0649   -5.5613   24.5585 He  0  0  0  0  0  0  0  0  0  0  0  0
    7.9137   -6.9857   17.3579 He  0  0  0  0  0  0  0  0  0  0  0  0
    2.8525  -10.8579   16.5799 He  0  0  0  0  0  0  0  0  0  0  0  0
   11.9342   -4.4620   20.8011 He  0  0  0  0  0  0  0  0  0  0  0  0
   12.4713   -5.7872   23.2872 He  0  0  0  0  0  0  0  0  0  0  0  0
    4.9892   -7.7518   17.0915 He  0  0  0  0  0  0  0  0  0  0  0  0
    5.6774   -8.8520   15.5242 He  0  0  0  0  0  0  0  0  0  0  0  0
   12.5149   -5.9606   24.0164 He  0  0  0  0  0  0  0  0  0  0  0  0
  1  3  4  0
  1  8  3  0
  1  9  2  0
  1 10  4  0
  1 13  3  0
  2  5  2  0
  2  6  4  0
  2  8  2  0
  2  9  4  0
  2 10  1  0
  2 11  2  0
  3  4  4  0
  3 14  2  0
  4  6  4  0
  4  9  2  0
  4 14  3  0
  5  6  4  0
  5  9  4  0
  5 12  2  0
  5 13  1  0
  5 15  1  0
  6  9  1  0
  6 11  1  0
  7  9  2  0
  7 11  2  0
  7 14  3  0
  8 11  4  0
  8 14  4  0
  9 11  4  0
 10 13  4  0
 10 15  1  0
 11 14  3  0
 12 15  4  0
M  END
$$$$

 Created by Python create_sdf_string function

 29  9  0  0  0  0  0  0  0  0999 V2000
   11.3242   -3.8825   18.7148 N   0  0  0  0  0  0  0  0  0  0  0  0
   12.3339   -5.2410   24.1264 C   0  0  0  0  0  0  0  0  0  0  0  0
    2.8323   -8.8596   15.6976 C   0  0  0  0  0  0  0  0  0  0  0  0
   10.5072   -3.8806   16.1076 C   0  0  0  0  0  0  0  0  0  0  0  0
    7.5406   -6.7718   17.7774 C   0  0  0  0  0  0  0  0  0  0  0  0
   12.2783   -4.7208   22.3177 C   0  0  0  0  0  0  0  0  0  0  0  0
    9.4639   -5.7627   16.9002 C   0  0  0  0  0  0  0  0  0  0  0  0
    6.7415   -8.4525   16.9767 C   0  0  0  0  0  0  0  0  0  0  0  0
    9.6037   -5.5355   17.4844 C   0  0  0  0  0  0  0  0  0  0  0  0
   10.3967   -4.6452   17.0159 C   0  0  0  0  0  0  0  0  0  0  0  0
   10.1269   -6.1918   19.1380 C   0  0  0  0  0  0  0  0  0  0  0  0
    8.2629   -7.3360   17.2262 C   0  0  0  0  0  0  0  0  0  0  0  0
    9.2361   -5.5134   16.7033 C   0  0  0  0  0  0  0  0  0  0  0  0
    2.0156   -9.1789   15.8780 C   0  0  0  0  0  0  0  0  0  0  0  0
   12.0085   -5.1077   24.3142 C   0  0  0  0  0  0  0  0  0  0  0  0
    7.6932   -7.3809   17.2030 C   0  0  0  0  0  0  0  0  0  0  0  0
   11.3233   -5.1628   21.0100 C   0  0  0  0  0  0  0  0  0  0  0  0
    2.6948   -9.7134   17.0870 C   0  0  0  0  0  0  0  0  0  0  0  0
    6.3217   -8.3098   16.0985 C   0  0  0  0  0  0  0  0  0  0  0  0
    2.0605   -9.5307   16.5801 C   0  0  0  0  0  0  0  0  0  0  0  0
   11.8303   -4.3934   21.2390 C   0  0  0  0  0  0  0  0  0  0  0  0
   11.9394   -5.1173   23.0009 C   0  0  0  0  0  0  0  0  0  0  0  0
    3.8665   -9.6995   17.3882 C   0  0  0  0  0  0  0  0  0  0  0  0
    5.0254   -8.4359   16.7589 C   0  0  0  0  0  0  0  0  0  0  0  0
    8.0452   -8.1553   15.6002 C   0  0  0  0  0  0  0  0  0  0  0  0
    5.3040   -8.6027   16.0222 C   0  0  0  0  0  0  0  0  0  0  0  0
   12.3210   -5.3932   24.1276 C   0  0  0  0  0  0  0  0  0  0  0  0
   11.2796   -5.1238   20.5332 C   0  0  0  0  0  0  0  0  0  0  0  0
   10.8966   -4.5133   18.1746 C   0  0  0  0  0  0  0  0  0  0  0  0
  1 29  4  0
  2 27  1  0
  3 14  4  0
 12 16  1  0
 14 20  4  0
 17 28  4  0
 18 20  1  0
 18 23  4  0
 24 26  1  0
M  END
$$$$

 Created by Python create_sdf_string function

 29 34  0  0  0  0  0  0  0  0999 V2000
   11.6006   -2.8130   18.2146 C   0  0  0  0  0  0  0  0  0  0  0  0
    7.4944   -5.3570   19.1313 S   0  0  0  0  0  0  0  0  0  0  0  0
   13.4632   -3.6270   20.6992 C   0  0  0  0  0  0  0  0  0  0  0  0
    9.8623   -5.3211   16.3278 P   0  0  0  0  0  0  0  0  0  0  0  0
   10.4384   -6.5405   19.2672 C   0  0  0  0  0  0  0  0  0  0  0  0
   12.7161   -4.5283   24.0458 S   0  0  0  0  0  0  0  0  0  0  0  0
    7.3358   -8.0426   16.8224 N   0  0  0  0  0  0  0  0  0  0  0  0
    2.9032   -9.5833   16.2843 C   0  0  0  0  0  0  0  0  0  0  0  0
    5.7289   -7.8698   16.3742 C   0  0  0  0  0  0  0  0  0  0  0  0
    2.2733   -9.3686   16.9802 C   0  0  0  0  0  0  0  0  0  0  0  0
   11.6218   -4.5606   21.3445 S   0  0  0  0  0  0  0  0  0  0  0  0
    4.1033   -9.5571   18.0458 P   0  0  0  0  0  0  0  0  0  0  0  0
    5.0331  -10.2742   17.6858 N   0  0  0  0  0  0  0  0  0  0  0  0
    5.8941   -8.0452   15.8839 F   0  0  0  0  0  0  0  0  0  0  0  0
   10.4026   -3.9386   17.0476 O   0  0  0  0  0  0  0  0  0  0  0  0
   12.2916   -5.3205   23.5623 He  0  0  0  0  0  0  0  0  0  0  0  0
    3.1907   -8.6368   15.1395 He  0  0  0  0  0  0  0  0  0  0  0  0
   10.8144   -4.2106   15.3084 He  0  0  0  0  0  0  0  0  0  0  0  0
    9.3421   -3.8304   17.1011 He  0  0  0  0  0  0  0  0  0  0  0  0
    6.1257   -8.6604   16.9950 He  0  0  0  0  0  0  0  0  0  0  0  0
    9.6348   -6.3885   18.1933 He  0  0  0  0  0  0  0  0  0  0  0  0
   10.0769   -7.2343   16.8922 He  0  0  0  0  0  0  0  0  0  0  0  0
    8.9678   -5.4795   15.6956 He  0  0  0  0  0  0  0  0  0  0  0  0
    0.7409  -10.4599   15.9583 He  0  0  0  0  0  0  0  0  0  0  0  0
   10.7619   -5.9427   21.0932 He  0  0  0  0  0  0  0  0  0  0  0  0
   12.2157   -6.0701   23.1283 He  0  0  0  0  0  0  0  0  0  0  0  0
    7.9174   -8.0748   14.7492 He  0  0  0  0  0  0  0  0  0  0  0  0
   10.6967   -4.3852   24.6663 He  0  0  0  0  0  0  0  0  0  0  0  0
    9.6751   -3.6198   19.6701 He  0  0  0  0  0  0  0  0  0  0  0  0
  1  2  4  0
  1  3  3  0
  1  5  2  0
  1  6  4  0
  1 10  3  0
  1 11  1  0
  1 12  1  0
  1 13  2  0
  1 14  3  0
  2  4  3  0
  2 11  2  0
  2 12  3  0
  3  7  2  0
  3  9  2  0
  3 11  4  0
  3 14  2  0
  5  6  1  0
  5 13  1  0
  6 10  2  0
  6 11  2  0
  6 15  1  0
  7  8  3  0
  8 10  4  0
  8 11  4  0
  8 12  4  0
  8 13  4  0
  9 12  1  0
  9 14  3  0
  9 15  2  0
 10 12  3  0
 10 15  1  0
 13 14  3  0
 13 15  3  0
 14 15  2  0
M  END
$$$$

 Created by Python create_sdf_string function

 29 12  0  0  0  0  0  0  0  0999 V2000
   11.0275   -3.4856   18.6751 C   0  0  0  0  0  0  0  0  0  0  0  0
   12.1751   -4.9853   23.7508 C   0  0  0  0  0  0  0  0  0  0  0  0
    3.3090   -8.7202   15.8706 C   0  0  0  0  0  0  0  0  0  0  0  0
   10.2690   -4.1094   15.9694 C   0  0  0  0  0  0  0  0  0  0  0  0
    8.4257   -6.3278   18.5186 O   0  0  0  0  0  0  0  0  0  0  0  0
   12.0356   -4.0171   21.3338 C   0  0  0  0  0  0  0  0  0  0  0  0
   10.1319   -4.2979   17.1954 C   0  0  0  0  0  0  0  0  0  0  0  0
    6.5799   -8.3220   17.3497 C   0  0  0  0  0  0  0  0  0  0  0  0
    9.5190   -5.1398   16.5139 C   0  0  0  0  0  0  0  0  0  0  0  0
    9.1569   -6.4570   17.7587 C   0  0  0  0  0  0  0  0  0  0  0  0
   10.2523   -5.6038   19.4630 C   0  0  0  0  0  0  0  0  0  0  0  0
    9.1197   -7.2158   17.5335 C   0  0  0  0  0  0  0  0  0  0  0  0
    8.7271   -6.0346   15.8827 C   0  0  0  0  0  0  0  0  0  0  0  0
    1.1256   -9.6100   16.4403 O   0  0  0  0  0  0  0  0  0  0  0  0
   12.4338   -4.5729   23.9399 C   0  0  0  0  0  0  0  0  0  0  0  0
    7.4940   -7.8559   16.9832 C   0  0  0  0  0  0  0  0  0  0  0  0
   11.0169   -5.2138   21.2438 C   0  0  0  0  0  0  0  0  0  0  0  0
    2.9258   -9.1626   16.5573 C   0  0  0  0  0  0  0  0  0  0  0  0
    5.5885   -8.3868   16.4610 C   0  0  0  0  0  0  0  0  0  0  0  0
    2.1229   -9.4245   16.6354 C   0  0  0  0  0  0  0  0  0  0  0  0
   11.6380   -4.3829   21.4507 C   0  0  0  0  0  0  0  0  0  0  0  0
   11.8494   -5.1863   22.9697 C   0  0  0  0  0  0  0  0  0  0  0  0
    3.9992   -9.5626   17.4324 C   0  0  0  0  0  0  0  0  0  0  0  0
    4.7214   -9.3649   17.5587 C   0  0  0  0  0  0  0  0  0  0  0  0
    7.8441   -7.8582   15.4487 C   0  0  0  0  0  0  0  0  0  0  0  0
    5.9803   -8.1817   16.0060 C   0  0  0  0  0  0  0  0  0  0  0  0
   11.2960   -4.3850   24.4065 O   0  0  0  0  0  0  0  0  0  0  0  0
   10.6616   -4.4553   19.6929 C   0  0  0  0  0  0  0  0  0  0  0  0
   10.7321   -3.5836   17.2579 C   0  0  0  0  0  0  0  0  0  0  0  0
  1 29  4  0
  2 15  2  0
  2 22  1  0
  3 18  4  0
  6 21  4  0
  8 16  1  0
 10 12  1  0
 11 28  4  0
 14 20  1  0
 18 20  4  0
 19 26  4  0
 23 24  4  0
M  END
$$$$

 Created by Python create_sdf_string function

 29 64  0  0  0  0  0  0  0  0999 V2000
   12.2886   -2.8607   19.2610 F   0  0  0  0  0  0  0  0  0  0  0  0
   12.2401   -4.2718   23.5851 C   0  0  0  0  0  0  0  0  0  0  0  0
    4.9868   -9.8601   14.7275 O   0  0  0  0  0  0  0  0  0  0  0  0
    9.8715   -5.0402   15.3043 C   0  0  0  0  0  0  0  0  0  0  0  0
   11.7999   -5.2663   20.8635 C   0  0  0  0  0  0  0  0  0  0  0  0
   11.7653   -3.5152   18.2287 S   0  0  0  0  0  0  0  0  0  0  0  0
    7.4039   -8.9671   19.1887 C   0  0  0  0  0  0  0  0  0  0  0  0
    9.0748   -6.0238   18.0032 F   0  0  0  0  0  0  0  0  0  0  0  0
    9.5481   -6.8208   18.2477 C   0  0  0  0  0  0  0  0  0  0  0  0
   10.4576   -8.4779   18.8897 Cl  0  0  0  0  0  0  0  0  0  0  0  0
   11.3514   -5.0005   23.8668 C   0  0  0  0  0  0  0  0  0  0  0  0
    7.3405   -7.8475   16.1647 F   0  0  0  0  0  0  0  0  0  0  0  0
    2.7671  -10.0740   16.6716 O   0  0  0  0  0  0  0  0  0  0  0  0
   10.7015   -3.9487   23.3273 F   0  0  0  0  0  0  0  0  0  0  0  0
    3.3185  -11.1773   18.0672 C   0  0  0  0  0  0  0  0  0  0  0  0
    4.6965   -9.9411   17.1538 O   0  0  0  0  0  0  0  0  0  0  0  0
    6.9569   -7.3400   16.9837 Br  0  0  0  0  0  0  0  0  0  0  0  0
    6.4717   -9.3074   17.3269 C   0  0  0  0  0  0  0  0  0  0  0  0
   10.5186   -5.2001   20.7478 N   0  0  0  0  0  0  0  0  0  0  0  0
   12.2409   -3.4354   17.1082 C   0  0  0  0  0  0  0  0  0  0  0  0
    9.2055   -5.5555   17.4661 He  0  0  0  0  0  0  0  0  0  0  0  0
   10.6885   -5.3322   17.6606 He  0  0  0  0  0  0  0  0  0  0  0  0
    8.2292   -5.9218   16.2522 He  0  0  0  0  0  0  0  0  0  0  0  0
    1.4156  -10.9777   15.2435 He  0  0  0  0  0  0  0  0  0  0  0  0
   12.4487   -5.9039   21.7872 He  0  0  0  0  0  0  0  0  0  0  0  0
    2.5466   -9.6255   16.4315 He  0  0  0  0  0  0  0  0  0  0  0  0
    5.9859   -8.5108   15.4064 He  0  0  0  0  0  0  0  0  0  0  0  0
   11.4064   -5.2480   22.0771 He  0  0  0  0  0  0  0  0  0  0  0  0
   10.4640   -4.8962   23.6239 He  0  0  0  0  0  0  0  0  0  0  0  0
  1  2  1  0
  1  7  3  0
  1 11  3  0
  1 18  2  0
  1 19  4  0
  1 20  2  0
  2  6  3  0
  2  9  4  0
  2 11  1  0
  2 14  3  0
  2 18  3  0
  3  5  1  0
  3  8  3  0
  3 10  2  0
  3 11  4  0
  3 12  3  0
  3 13  4  0
  3 14  4  0
  3 15  3  0
  3 18  1  0
  4  5  3  0
  4  6  2  0
  4  7  4  0
  4  9  4  0
  4 13  1  0
  4 14  2  0
  5  6  2  0
  5  8  4  0
  5 11  1  0
  5 12  4  0
  5 14  2  0
  5 15  2  0
  5 17  1  0
  6 10  3  0
  6 19  3  0
  6 20  3  0
  7  8  2  0
  7 10  1  0
  7 12  2  0
  7 14  2  0
  7 15  3  0
  7 16  3  0
  8 10  2  0
  8 12  2  0
  8 14  3  0
  8 16  4  0
  8 20  2  0
  9 11  2  0
  9 12  2  0
  9 13  3  0
  9 18  4  0
 10 15  3  0
 10 19  1  0
 10 20  3  0
 11 19  2  0
 12 15  4  0
 12 17  4  0
 13 15  3  0
 13 16  1  0
 13 20  3  0
 16 18  3  0
 16 20  3  0
 17 20  2  0
 18 20  1  0
M  END
$$$$

 Created by Python create_sdf_string function

 29 12  0  0  0  0  0  0  0  0999 V2000
   11.5595   -3.4395   19.4145 C   0  0  0  0  0  0  0  0  0  0  0  0
   12.0571   -4.4967   23.7229 C   0  0  0  0  0  0  0  0  0  0  0  0
    4.2534   -9.1416   15.6742 C   0  0  0  0  0  0  0  0  0  0  0  0
    9.6691   -4.4869   16.2432 C   0  0  0  0  0  0  0  0  0  0  0  0
    9.3382   -5.7989   17.3395 C   0  0  0  0  0  0  0  0  0  0  0  0
   11.1774   -4.8965   20.8429 C   0  0  0  0  0  0  0  0  0  0  0  0
   11.2421   -3.6759   18.0682 C   0  0  0  0  0  0  0  0  0  0  0  0
    7.5456   -8.2445   18.0744 C   0  0  0  0  0  0  0  0  0  0  0  0
    8.8786   -6.4938   17.5990 C   0  0  0  0  0  0  0  0  0  0  0  0
    9.5695   -6.3828   18.0891 C   0  0  0  0  0  0  0  0  0  0  0  0
   10.4733   -5.0156   18.1213 C   0  0  0  0  0  0  0  0  0  0  0  0
    9.6930   -7.7205   18.6553 C   0  0  0  0  0  0  0  0  0  0  0  0
    8.4680   -5.8142   16.2284 C   0  0  0  0  0  0  0  0  0  0  0  0
    1.8593   -9.6484   16.0142 O   0  0  0  0  0  0  0  0  0  0  0  0
   11.6639   -4.7530   23.8863 C   0  0  0  0  0  0  0  0  0  0  0  0
    7.6126   -7.4810   16.5190 C   0  0  0  0  0  0  0  0  0  0  0  0
   12.0377   -4.8270   21.7739 C   0  0  0  0  0  0  0  0  0  0  0  0
    2.5169   -9.5182   16.6779 C   0  0  0  0  0  0  0  0  0  0  0  0
    5.8559   -8.4987   15.9630 C   0  0  0  0  0  0  0  0  0  0  0  0
    3.0976   -9.5346   16.7384 C   0  0  0  0  0  0  0  0  0  0  0  0
   10.8874   -3.7507   23.2888 C   0  0  0  0  0  0  0  0  0  0  0  0
   11.5025   -4.6520   21.7458 C   0  0  0  0  0  0  0  0  0  0  0  0
    3.4238  -10.2088   17.7495 C   0  0  0  0  0  0  0  0  0  0  0  0
    4.5786   -9.5736   17.5327 C   0  0  0  0  0  0  0  0  0  0  0  0
    7.1042   -7.7347   16.5987 C   0  0  0  0  0  0  0  0  0  0  0  0
    5.7641   -8.8804   17.0507 C   0  0  0  0  0  0  0  0  0  0  0  0
   11.1651   -4.3544   23.5690 C   0  0  0  0  0  0  0  0  0  0  0  0
   10.9401   -5.1140   20.1442 C   0  0  0  0  0  0  0  0  0  0  0  0
   11.1367   -3.5594   17.1420 C   0  0  0  0  0  0  0  0  0  0  0  0
  1  7  4  0
  2 15  4  0
  3 20  4  0
  6 22  4  0
  6 28  4  0
  7 29  4  0
 15 27  4  0
 16 25  4  0
 18 20  4  0
 19 26  4  0
 23 24  4  0
 24 26  4  0
M  END
$$$$

 Created by Python create_sdf_string function

 29 37  0  0  0  0  0  0  0  0999 V2000
    5.5427   -8.6199   15.4525 C   0  0  0  0  0  0  0  0  0  0  0  0
    8.3689   -6.3630   17.2909 C   0  0  0  0  0  0  0  0  0  0  0  0
   11.5378   -4.8265   21.7759 P   0  0  0  0  0  0  0  0  0  0  0  0
    7.1026   -8.2098   17.2563 O   0  0  0  0  0  0  0  0  0  0  0  0
    9.2723   -7.3366   17.0906 F   0  0  0  0  0  0  0  0  0  0  0  0
    8.7148   -6.3401   15.5153 C   0  0  0  0  0  0  0  0  0  0  0  0
    2.1784   -8.9572   16.1411 O   0  0  0  0  0  0  0  0  0  0  0  0
   11.4985   -4.8327   22.1898 C   0  0  0  0  0  0  0  0  0  0  0  0
   12.5418   -4.0037   22.1103 C   0  0  0  0  0  0  0  0  0  0  0  0
    5.7519   -9.0419   14.5143 C   0  0  0  0  0  0  0  0  0  0  0  0
    3.8491   -8.7808   17.1072 C   0  0  0  0  0  0  0  0  0  0  0  0
    2.9176   -9.1716   18.4153 C   0  0  0  0  0  0  0  0  0  0  0  0
    9.6715   -4.3367   24.5889 N   0  0  0  0  0  0  0  0  0  0  0  0
   11.9023   -4.7127   17.8951 C   0  0  0  0  0  0  0  0  0  0  0  0
   11.2695   -2.0378   18.1156 He  0  0  0  0  0  0  0  0  0  0  0  0
   12.8347   -5.3301   23.6001 He  0  0  0  0  0  0  0  0  0  0  0  0
   10.0954   -5.1140   16.8203 He  0  0  0  0  0  0  0  0  0  0  0  0
   12.3056   -3.1209   17.6324 He  0  0  0  0  0  0  0  0  0  0  0  0
    9.3523   -6.5259   18.7824 He  0  0  0  0  0  0  0  0  0  0  0  0
   11.6334   -5.7713   17.7816 He  0  0  0  0  0  0  0  0  0  0  0  0
    9.1217   -5.3552   17.4070 He  0  0  0  0  0  0  0  0  0  0  0  0
    8.0979   -8.0223   17.1025 He  0  0  0  0  0  0  0  0  0  0  0  0
    2.8891  -10.1909   17.3296 He  0  0  0  0  0  0  0  0  0  0  0  0
   11.4695   -3.3162   22.9712 He  0  0  0  0  0  0  0  0  0  0  0  0
   10.6648   -3.9443   21.6788 He  0  0  0  0  0  0  0  0  0  0  0  0
    4.4951   -9.5724   17.6036 He  0  0  0  0  0  0  0  0  0  0  0  0
    6.6128   -7.6409   16.1178 He  0  0  0  0  0  0  0  0  0  0  0  0
    6.9315   -9.8071   17.5260 He  0  0  0  0  0  0  0  0  0  0  0  0
   10.9918   -5.5062   19.9391 He  0  0  0  0  0  0  0  0  0  0  0  0
  1  5  1  0
  1  7  2  0
  1 11  2  0
  1 13  4  0
  1 14  1  0
  2  3  3  0
  2  4  3  0
  2  7  3  0
  2  9  4  0
  2 10  2  0
  2 14  3  0
  3  4  4  0
  3  8  3  0
  3  9  1  0
  4  5  2  0
  4  7  3  0
  4  8  2  0
  4  9  4  0
  4 10  1  0
  4 14  4  0
  5  7  3  0
  5 11  1  0
  5 12  1  0
  5 13  3  0
  5 14  4  0
  6  7  1  0
  6 11  2  0
  7 10  1  0
  7 11  3  0
  7 13  1  0
  7 14  3  0
  8 10  2  0
  8 13  4  0
  9 11  4  0
 10 11  1  0
 11 12  1  0
 12 13  1  0
M  END
$$$$

 Created by Python create_sdf_string function

 29  6  0  0  0  0  0  0  0  0999 V2000
   11.2429   -2.8128   18.1512 C   0  0  0  0  0  0  0  0  0  0  0  0
   12.3049   -4.7450   23.5740 C   0  0  0  0  0  0  0  0  0  0  0  0
    5.3271   -8.5122   15.8382 C   0  0  0  0  0  0  0  0  0  0  0  0
    9.7561   -4.7666   16.7532 C   0  0  0  0  0  0  0  0  0  0  0  0
    8.6682   -6.3599   16.9060 C   0  0  0  0  0  0  0  0  0  0  0  0
   11.5084   -4.6823   21.1438 C   0  0  0  0  0  0  0  0  0  0  0  0
   11.3509   -3.4937   17.5881 C   0  0  0  0  0  0  0  0  0  0  0  0
    7.0061   -8.3023   17.0507 C   0  0  0  0  0  0  0  0  0  0  0  0
    8.9825   -7.5505   17.6561 C   0  0  0  0  0  0  0  0  0  0  0  0
    9.9519   -6.4167   18.5685 C   0  0  0  0  0  0  0  0  0  0  0  0
   11.0699   -5.2934   18.5356 C   0  0  0  0  0  0  0  0  0  0  0  0
    9.7548   -5.0781   17.3888 C   0  0  0  0  0  0  0  0  0  0  0  0
    8.2843   -6.1102   16.0378 C   0  0  0  0  0  0  0  0  0  0  0  0
    2.5970   -9.1431   16.1698 O   0  0  0  0  0  0  0  0  0  0  0  0
   11.4390   -4.5182   22.4664 C   0  0  0  0  0  0  0  0  0  0  0  0
    7.8546   -7.9115   17.0248 C   0  0  0  0  0  0  0  0  0  0  0  0
   12.1688   -4.5065   22.3543 C   0  0  0  0  0  0  0  0  0  0  0  0
    2.4949   -9.7200   17.2678 N   0  0  0  0  0  0  0  0  0  0  0  0
    5.3880   -8.5749   15.5498 C   0  0  0  0  0  0  0  0  0  0  0  0
    3.8113   -9.0664   16.7687 C   0  0  0  0  0  0  0  0  0  0  0  0
   11.1083   -3.4897   23.1849 C   0  0  0  0  0  0  0  0  0  0  0  0
   10.7948   -3.9921   21.6169 C   0  0  0  0  0  0  0  0  0  0  0  0
    3.1655   -9.7808   17.5462 C   0  0  0  0  0  0  0  0  0  0  0  0
    4.5410   -9.4649   17.6046 C   0  0  0  0  0  0  0  0  0  0  0  0
    6.7623   -7.6054   15.7918 C   0  0  0  0  0  0  0  0  0  0  0  0
    6.6579   -8.8368   17.4116 C   0  0  0  0  0  0  0  0  0  0  0  0
   10.9501   -3.8691   24.2974 O   0  0  0  0  0  0  0  0  0  0  0  0
   11.0154   -4.8741   20.0122 C   0  0  0  0  0  0  0  0  0  0  0  0
   11.1983   -4.2253   18.1195 C   0  0  0  0  0  0  0  0  0  0  0  0
  1  7  4  0
  2 17  4  0
  3 19  4  0
  5 13  4  0
  6 28  4  0
  8 26  4  0
M  END
$$$$

 Created by Python create_sdf_string function

 29 69  0  0  0  0  0  0  0  0999 V2000
   12.9338   -3.5483   23.2248 C   0  0  0  0  0  0  0  0  0  0  0  0
    4.5466   -8.2905   15.9785 O   0  0  0  0  0  0  0  0  0  0  0  0
    9.3017   -5.3308   16.0785 N   0  0  0  0  0  0  0  0  0  0  0  0
    8.9624   -7.5608   16.5769 F   0  0  0  0  0  0  0  0  0  0  0  0
   11.4951   -4.6532   22.0541 S   0  0  0  0  0  0  0  0  0  0  0  0
    8.6304   -5.5399   16.9424 C   0  0  0  0  0  0  0  0  0  0  0  0
    9.3325   -5.0627   17.7878 Cl  0  0  0  0  0  0  0  0  0  0  0  0
    2.7570  -10.1757   16.0159 P   0  0  0  0  0  0  0  0  0  0  0  0
   11.4324   -3.2820   22.4099 C   0  0  0  0  0  0  0  0  0  0  0  0
    7.7785   -7.0628   16.1661 C   0  0  0  0  0  0  0  0  0  0  0  0
   12.3854   -3.9331   22.1720 P   0  0  0  0  0  0  0  0  0  0  0  0
    2.4026   -9.5180   16.2845 N   0  0  0  0  0  0  0  0  0  0  0  0
    1.4114   -9.1193   17.4548 F   0  0  0  0  0  0  0  0  0  0  0  0
   10.6203   -2.6112   21.0395 C   0  0  0  0  0  0  0  0  0  0  0  0
   10.9915   -2.3999   22.3920 C   0  0  0  0  0  0  0  0  0  0  0  0
    1.7445  -10.0695   17.9101 S   0  0  0  0  0  0  0  0  0  0  0  0
    3.7833  -10.3481   16.9928 C   0  0  0  0  0  0  0  0  0  0  0  0
    6.5172   -7.5088   16.1198 C   0  0  0  0  0  0  0  0  0  0  0  0
    7.6341   -9.1058   19.2140 C   0  0  0  0  0  0  0  0  0  0  0  0
   11.5048   -4.1026   17.8218 C   0  0  0  0  0  0  0  0  0  0  0  0
   11.7300   -1.4780   18.5010 He  0  0  0  0  0  0  0  0  0  0  0  0
   10.1394   -3.7003   18.0142 He  0  0  0  0  0  0  0  0  0  0  0  0
    7.1733   -8.8690   17.3376 He  0  0  0  0  0  0  0  0  0  0  0  0
    8.7803   -5.1567   19.3115 He  0  0  0  0  0  0  0  0  0  0  0  0
   10.9227   -5.2463   16.8096 He  0  0  0  0  0  0  0  0  0  0  0  0
    7.9036   -5.4532   16.9077 He  0  0  0  0  0  0  0  0  0  0  0  0
    5.5338   -7.4699   15.4160 He  0  0  0  0  0  0  0  0  0  0  0  0
   10.8649   -4.8242   23.9512 He  0  0  0  0  0  0  0  0  0  0  0  0
   11.9429   -5.3682   19.1966 He  0  0  0  0  0  0  0  0  0  0  0  0
  1  6  3  0
  1 12  1  0
  1 17  2  0
  1 19  2  0
  2  3  3  0
  2  6  3  0
  2  7  3  0
  2  9  2  0
  2 10  3  0
  2 11  3  0
  2 14  2  0
  2 15  2  0
  2 16  4  0
  2 18  4  0
  2 19  3  0
  2 20  1  0
  3  9  2  0
  3 12  3  0
  3 14  4  0
  3 16  4  0
  4  8  4  0
  4  9  4  0
  4 14  1  0
  4 15  1  0
  4 18  2  0
  4 20  2  0
  5  6  2  0
  5  7  4  0
  5  8  2  0
  5 14  4  0
  5 17  1  0
  5 20  2  0
  6 13  1  0
  6 14  2  0
  6 18  4  0
  6 20  3  0
  7  9  3  0
  7 10  1  0
  7 12  4  0
  7 13  1  0
  7 15  2  0
  8 10  1  0
  8 12  4  0
  8 14  4  0
  8 16  2  0
  8 17  1  0
  8 19  3  0
  9 11  1  0
  9 12  4  0
  9 19  1  0
 10 11  1  0
 10 12  4  0
 10 17  4  0
 11 13  3  0
 11 15  2  0
 11 18  3  0
 11 19  4  0
 11 20  4  0
 12 13  4  0
 12 16  4  0
 12 17  2  0
 12 19  3  0
 13 16  1  0
 13 17  3  0
 14 15  1  0
 14 16  3  0
 14 19  2  0
 14 20  3  0
 16 17  2  0
M  END
$$$$

 Created by Python create_sdf_string function

 29  7  0  0  0  0  0  0  0  0999 V2000
   11.2022   -2.4790   18.4696 O   0  0  0  0  0  0  0  0  0  0  0  0
   12.6252   -3.8006   23.3093 C   0  0  0  0  0  0  0  0  0  0  0  0
    4.7758   -8.4165   16.3366 C   0  0  0  0  0  0  0  0  0  0  0  0
    9.1816   -5.2290   16.3782 N   0  0  0  0  0  0  0  0  0  0  0  0
    8.4841   -7.4267   16.9613 C   0  0  0  0  0  0  0  0  0  0  0  0
   11.3560   -4.4245   21.6430 C   0  0  0  0  0  0  0  0  0  0  0  0
   10.5500   -3.8664   18.2081 C   0  0  0  0  0  0  0  0  0  0  0  0
    6.5800   -8.4805   17.1703 C   0  0  0  0  0  0  0  0  0  0  0  0
    8.8620   -5.8340   16.8328 C   0  0  0  0  0  0  0  0  0  0  0  0
    9.7417   -4.8760   19.3657 C   0  0  0  0  0  0  0  0  0  0  0  0
   10.7352   -4.6997   17.1406 C   0  0  0  0  0  0  0  0  0  0  0  0
    9.8297   -5.1878   17.6468 C   0  0  0  0  0  0  0  0  0  0  0  0
    8.0121   -6.2142   16.3714 C   0  0  0  0  0  0  0  0  0  0  0  0
    2.7935   -9.1065   16.3645 C   0  0  0  0  0  0  0  0  0  0  0  0
   11.5450   -3.6047   22.4983 C   0  0  0  0  0  0  0  0  0  0  0  0
    7.3424   -7.3930   16.2739 C   0  0  0  0  0  0  0  0  0  0  0  0
   12.2324   -4.2086   22.3435 C   0  0  0  0  0  0  0  0  0  0  0  0
    2.4139   -9.2141   16.5086 N   0  0  0  0  0  0  0  0  0  0  0  0
    5.1367   -8.1706   16.1231 C   0  0  0  0  0  0  0  0  0  0  0  0
    1.7595   -9.7994   17.1413 N   0  0  0  0  0  0  0  0  0  0  0  0
   11.1070   -3.5967   21.0248 C   0  0  0  0  0  0  0  0  0  0  0  0
   11.0637   -2.9908   22.3891 C   0  0  0  0  0  0  0  0  0  0  0  0
    2.1309  -10.1170   17.5384 N   0  0  0  0  0  0  0  0  0  0  0  0
    3.6373   -9.7516   17.3594 C   0  0  0  0  0  0  0  0  0  0  0  0
    6.1346   -7.7426   16.2382 C   0  0  0  0  0  0  0  0  0  0  0  0
    7.5672   -8.1679   17.9185 C   0  0  0  0  0  0  0  0  0  0  0  0
   11.4082   -4.2873   23.8454 O   0  0  0  0  0  0  0  0  0  0  0  0
   11.3259   -4.8629   19.5548 C   0  0  0  0  0  0  0  0  0  0  0  0
   11.1067   -3.8431   17.7653 C   0  0  0  0  0  0  0  0  0  0  0  0
  3 19  4  0
  6 21  4  0
 11 29  1  0
 14 18  4  0
 18 20  4  0
 20 23  4  0
 23 24  4  0
M  END
$$$$

 Created by Python create_sdf_string function

 29 33  0  0  0  0  0  0  0  0999 V2000
   12.5314   -3.2445   23.0142 C   0  0  0  0  0  0  0  0  0  0  0  0
    9.4113   -8.5922   18.0020 N   0  0  0  0  0  0  0  0  0  0  0  0
    9.8054   -3.8755   19.5056 I   0  0  0  0  0  0  0  0  0  0  0  0
   10.9026   -3.9279   16.9800 C   0  0  0  0  0  0  0  0  0  0  0  0
   11.5006   -4.5039   16.4891 F   0  0  0  0  0  0  0  0  0  0  0  0
   11.7436   -3.5659   21.9924 C   0  0  0  0  0  0  0  0  0  0  0  0
   11.6333   -2.8628   22.5263 F   0  0  0  0  0  0  0  0  0  0  0  0
    5.7560   -8.6212   15.2110 C   0  0  0  0  0  0  0  0  0  0  0  0
   11.3264   -3.2397   22.3659 N   0  0  0  0  0  0  0  0  0  0  0  0
    2.1631   -9.9977   16.9781 N   0  0  0  0  0  0  0  0  0  0  0  0
    3.9039   -9.7749   16.5892 C   0  0  0  0  0  0  0  0  0  0  0  0
    7.2339   -8.5774   16.1945 C   0  0  0  0  0  0  0  0  0  0  0  0
   10.2007   -3.1997   17.2280 C   0  0  0  0  0  0  0  0  0  0  0  0
   12.5778   -4.2161   18.6904 He  0  0  0  0  0  0  0  0  0  0  0  0
    5.5824   -9.2760   15.1239 He  0  0  0  0  0  0  0  0  0  0  0  0
    9.4776   -4.9785   14.5881 He  0  0  0  0  0  0  0  0  0  0  0  0
   11.8447   -3.9872   21.5861 He  0  0  0  0  0  0  0  0  0  0  0  0
   11.8533   -3.8899   17.4507 He  0  0  0  0  0  0  0  0  0  0  0  0
    5.9085   -7.3811   15.7470 He  0  0  0  0  0  0  0  0  0  0  0  0
    9.3217   -6.1154   16.5163 He  0  0  0  0  0  0  0  0  0  0  0  0
    7.3851   -7.5568   15.0843 He  0  0  0  0  0  0  0  0  0  0  0  0
    2.0620   -9.6121   16.1453 He  0  0  0  0  0  0  0  0  0  0  0  0
    7.3044   -7.2498   16.3009 He  0  0  0  0  0  0  0  0  0  0  0  0
    2.1551   -8.9127   16.0651 He  0  0  0  0  0  0  0  0  0  0  0  0
    1.5405  -10.4604   17.8774 He  0  0  0  0  0  0  0  0  0  0  0  0
   10.3353   -3.2629   23.5963 He  0  0  0  0  0  0  0  0  0  0  0  0
    6.7373   -7.5153   16.2153 He  0  0  0  0  0  0  0  0  0  0  0  0
   11.2975   -5.1151   24.3959 He  0  0  0  0  0  0  0  0  0  0  0  0
   10.3862   -5.5601   18.6391 He  0  0  0  0  0  0  0  0  0  0  0  0
  1  2  3  0
  1  6  2  0
  1  8  1  0
  1 12  2  0
  1 13  2  0
  2  6  3  0
  2  9  2  0
  2 10  2  0
  3  5  3  0
  3  8  2  0
  3  9  4  0
  3 10  2  0
  3 11  4  0
  4  5  1  0
  4  7  2  0
  4  8  4  0
  4 13  3  0
  5  6  2  0
  5  7  1  0
  5  8  2  0
  5 10  4  0
  5 11  1  0
  6  9  1  0
  6 10  1  0
  6 13  4  0
  7  9  3  0
  7 12  2  0
  8  9  2  0
  8 12  1  0
  9 11  1  0
 10 11  2  0
 10 13  4  0
 11 13  3  0
M  END
$$$$

 Created by Python create_sdf_string function

 29  7  0  0  0  0  0  0  0  0999 V2000
   11.7303   -4.2226   19.0357 C   0  0  0  0  0  0  0  0  0  0  0  0
   12.3696   -3.4888   22.8491 C   0  0  0  0  0  0  0  0  0  0  0  0
    5.2863   -8.8365   15.7398 C   0  0  0  0  0  0  0  0  0  0  0  0
    9.1600   -4.8184   15.9073 O   0  0  0  0  0  0  0  0  0  0  0  0
    9.0051   -7.8455   17.7400 C   0  0  0  0  0  0  0  0  0  0  0  0
   11.3932   -4.0906   20.9338 C   0  0  0  0  0  0  0  0  0  0  0  0
   11.4476   -3.8575   17.7891 C   0  0  0  0  0  0  0  0  0  0  0  0
    6.0914   -7.5985   16.0920 C   0  0  0  0  0  0  0  0  0  0  0  0
    8.9848   -5.9303   16.7925 C   0  0  0  0  0  0  0  0  0  0  0  0
   10.4475   -4.3244   19.7363 C   0  0  0  0  0  0  0  0  0  0  0  0
   10.7638   -4.1238   17.1565 C   0  0  0  0  0  0  0  0  0  0  0  0
   10.9962   -4.0735   16.5268 C   0  0  0  0  0  0  0  0  0  0  0  0
    7.6605   -7.3530   15.7035 C   0  0  0  0  0  0  0  0  0  0  0  0
    2.3173   -9.2568   16.2489 N   0  0  0  0  0  0  0  0  0  0  0  0
   11.4376   -3.5671   22.1241 C   0  0  0  0  0  0  0  0  0  0  0  0
    7.5888   -7.2251   16.4670 C   0  0  0  0  0  0  0  0  0  0  0  0
   11.2913   -3.2083   22.5917 C   0  0  0  0  0  0  0  0  0  0  0  0
    2.7659   -9.1055   16.0886 C   0  0  0  0  0  0  0  0  0  0  0  0
    5.1711   -8.7182   16.0300 C   0  0  0  0  0  0  0  0  0  0  0  0
    1.8176   -9.9764   17.3726 N   0  0  0  0  0  0  0  0  0  0  0  0
   11.2536   -3.5797   22.3028 N   0  0  0  0  0  0  0  0  0  0  0  0
   10.6223   -3.0994   23.8504 C   0  0  0  0  0  0  0  0  0  0  0  0
    2.3125   -9.7407   17.2427 N   0  0  0  0  0  0  0  0  0  0  0  0
    3.5244   -9.2620   16.8376 C   0  0  0  0  0  0  0  0  0  0  0  0
    6.9407   -7.7521   16.5287 C   0  0  0  0  0  0  0  0  0  0  0  0
    6.9625   -8.2582   16.4775 C   0  0  0  0  0  0  0  0  0  0  0  0
   11.3213   -4.3143   24.2173 O   0  0  0  0  0  0  0  0  0  0  0  0
   10.1079   -5.6511   18.6682 C   0  0  0  0  0  0  0  0  0  0  0  0
   10.2399   -4.2989   17.3784 C   0  0  0  0  0  0  0  0  0  0  0  0
  1  7  4  0
  3 19  1  0
 11 12  1  0
 14 18  4  0
 15 21  1  0
 20 23  4  0
 23 24  4  0
M  END
$$$$

 Created by Python create_sdf_string function

 29 51  0  0  0  0  0  0  0  0999 V2000
   11.6042   -5.2702   18.6849 C   0  0  0  0  0  0  0  0  0  0  0  0
    5.3209   -8.1002   14.8671 C   0  0  0  0  0  0  0  0  0  0  0  0
    8.3887   -7.9948   18.7385 C   0  0  0  0  0  0  0  0  0  0  0  0
    7.1739   -7.8926   15.1053 O   0  0  0  0  0  0  0  0  0  0  0  0
   10.5394   -4.3111   17.2479 C   0  0  0  0  0  0  0  0  0  0  0  0
    7.8439   -6.1779   16.8059 C   0  0  0  0  0  0  0  0  0  0  0  0
    3.4656  -10.7460   16.0944 C   0  0  0  0  0  0  0  0  0  0  0  0
   11.0423   -2.5476   22.4034 C   0  0  0  0  0  0  0  0  0  0  0  0
    6.6441   -7.5756   16.6942 C   0  0  0  0  0  0  0  0  0  0  0  0
   10.6605   -3.8771   22.2380 C   0  0  0  0  0  0  0  0  0  0  0  0
    4.1871   -9.7335   14.8303 O   0  0  0  0  0  0  0  0  0  0  0  0
    4.2176   -8.7717   15.5289 F   0  0  0  0  0  0  0  0  0  0  0  0
    2.1092   -9.9351   17.7798 O   0  0  0  0  0  0  0  0  0  0  0  0
   11.3844   -4.6122   21.8950 B   0  0  0  0  0  0  0  0  0  0  0  0
    3.6372   -8.5323   17.2280 P   0  0  0  0  0  0  0  0  0  0  0  0
    3.2058   -9.6175   16.9348 C   0  0  0  0  0  0  0  0  0  0  0  0
    7.0689   -8.3765   16.9080 C   0  0  0  0  0  0  0  0  0  0  0  0
    8.8199   -5.2998   18.8048 Se  0  0  0  0  0  0  0  0  0  0  0  0
    9.7914   -4.7493   17.5618 S   0  0  0  0  0  0  0  0  0  0  0  0
   11.5868   -3.1846   22.6468 He  0  0  0  0  0  0  0  0  0  0  0  0
    8.0932   -3.7231   15.9874 He  0  0  0  0  0  0  0  0  0  0  0  0
   11.3009   -2.9986   20.8094 He  0  0  0  0  0  0  0  0  0  0  0  0
   11.8818   -4.3326   17.3943 He  0  0  0  0  0  0  0  0  0  0  0  0
    9.2383   -5.4355   16.9457 He  0  0  0  0  0  0  0  0  0  0  0  0
    9.4183   -5.4535   20.1377 He  0  0  0  0  0  0  0  0  0  0  0  0
    7.9101   -3.8931   17.4180 He  0  0  0  0  0  0  0  0  0  0  0  0
   11.2932   -3.0390   22.8412 He  0  0  0  0  0  0  0  0  0  0  0  0
    6.7636   -7.8742   16.9279 He  0  0  0  0  0  0  0  0  0  0  0  0
   12.0579   -5.7573   24.7194 He  0  0  0  0  0  0  0  0  0  0  0  0
  1  2  4  0
  1  3  1  0
  1  6  3  0
  1 14  3  0
  1 16  3  0
  1 19  4  0
  2  3  1  0
  2  4  2  0
  2  5  1  0
  2  7  4  0
  2 15  2  0
  2 18  4  0
  4  6  4  0
  4  7  4  0
  4 19  1  0
  5  6  1  0
  5  7  1  0
  5 18  1  0
  6 13  2  0
  6 14  3  0
  6 17  3  0
  7  9  3  0
  7 11  2  0
  7 12  4  0
  7 13  4  0
  7 14  2  0
  7 17  4  0
  7 18  1  0
  8 10  1  0
  8 13  3  0
  8 14  1  0
  8 15  2  0
  9 12  1  0
  9 14  3  0
  9 17  4  0
 10 12  1  0
 10 13  3  0
 10 14  4  0
 10 15  2  0
 11 13  2  0
 12 13  2  0
 12 17  4  0
 12 19  4  0
 13 15  4  0
 13 17  1  0
 15 16  4  0
 15 17  3  0
 15 19  2  0
 16 19  1  0
 17 19  2  0
 18 19  3  0
M  END
$$$$

 Created by Python create_sdf_string function

 29 16  0  0  0  0  0  0  0  0999 V2000
   11.2246   -4.6734   19.2518 C   0  0  0  0  0  0  0  0  0  0  0  0
   11.2476   -3.5192   23.3418 C   0  0  0  0  0  0  0  0  0  0  0  0
    5.8512   -8.2505   15.4122 C   0  0  0  0  0  0  0  0  0  0  0  0
    8.8964   -4.0467   15.7758 O   0  0  0  0  0  0  0  0  0  0  0  0
    8.6102   -7.9312   18.0116 C   0  0  0  0  0  0  0  0  0  0  0  0
   11.1578   -3.4684   20.6920 C   0  0  0  0  0  0  0  0  0  0  0  0
   11.3477   -3.8663   17.6309 C   0  0  0  0  0  0  0  0  0  0  0  0
    7.5631   -7.6714   15.4555 C   0  0  0  0  0  0  0  0  0  0  0  0
    9.0752   -5.9373   17.1476 C   0  0  0  0  0  0  0  0  0  0  0  0
   10.3358   -5.1828   19.8610 C   0  0  0  0  0  0  0  0  0  0  0  0
    8.9087   -4.6172   16.2375 C   0  0  0  0  0  0  0  0  0  0  0  0
   10.7428   -4.1329   17.1852 C   0  0  0  0  0  0  0  0  0  0  0  0
    8.0141   -6.5338   16.2516 C   0  0  0  0  0  0  0  0  0  0  0  0
    2.9297   -9.4545   16.2916 C   0  0  0  0  0  0  0  0  0  0  0  0
   10.9507   -2.8725   22.6962 C   0  0  0  0  0  0  0  0  0  0  0  0
    6.4002   -8.0158   16.8113 C   0  0  0  0  0  0  0  0  0  0  0  0
   11.1138   -3.9478   21.8080 C   0  0  0  0  0  0  0  0  0  0  0  0
    3.7667   -9.3076   15.1608 O   0  0  0  0  0  0  0  0  0  0  0  0
    4.3199   -8.9228   16.2797 C   0  0  0  0  0  0  0  0  0  0  0  0
    2.2310   -9.8922   17.3694 C   0  0  0  0  0  0  0  0  0  0  0  0
   11.2022   -4.8224   21.6363 C   0  0  0  0  0  0  0  0  0  0  0  0
   11.1032   -2.9818   23.6959 O   0  0  0  0  0  0  0  0  0  0  0  0
    3.5351   -9.1170   17.4104 C   0  0  0  0  0  0  0  0  0  0  0  0
    3.6109   -9.0868   17.1090 C   0  0  0  0  0  0  0  0  0  0  0  0
    7.2924   -8.1663   17.2716 C   0  0  0  0  0  0  0  0  0  0  0  0
    6.9171   -7.6202   16.8445 C   0  0  0  0  0  0  0  0  0  0  0  0
   11.5959   -4.7512   24.2043 O   0  0  0  0  0  0  0  0  0  0  0  0
    9.6995   -5.4056   18.6267 C   0  0  0  0  0  0  0  0  0  0  0  0
   10.2864   -4.8346   17.7041 C   0  0  0  0  0  0  0  0  0  0  0  0
  1 10  4  0
  2 15  1  0
  2 22  1  0
  2 27  2  0
  4 11  2  0
  5 25  1  0
  6 17  4  0
  7 12  4  0
  8 13  4  0
 10 28  4  0
 14 20  4  0
 15 17  1  0
 16 25  4  0
 16 26  4  0
 17 21  4  0
 23 24  4  0
M  END
$$$$

 Created by Python create_sdf_string function

 29 64  0  0  0  0  0  0  0  0999 V2000
   12.0535   -2.9888   23.9675 C   0  0  0  0  0  0  0  0  0  0  0  0
    5.7574   -7.0257   15.3876 O   0  0  0  0  0  0  0  0  0  0  0  0
    9.2738   -5.2066   16.1802 O   0  0  0  0  0  0  0  0  0  0  0  0
    8.6295   -6.6862   17.4578 I   0  0  0  0  0  0  0  0  0  0  0  0
    9.0609   -5.6742   17.6292 Br  0  0  0  0  0  0  0  0  0  0  0  0
    9.9995   -3.8980   18.3966 C   0  0  0  0  0  0  0  0  0  0  0  0
    9.4712   -4.5605   17.4634 O   0  0  0  0  0  0  0  0  0  0  0  0
    9.5431   -6.3196   16.3225 N   0  0  0  0  0  0  0  0  0  0  0  0
    3.2313   -9.5723   15.9803 C   0  0  0  0  0  0  0  0  0  0  0  0
   10.6849   -2.7802   23.6146 C   0  0  0  0  0  0  0  0  0  0  0  0
   12.1378   -4.6622   23.0306 Br  0  0  0  0  0  0  0  0  0  0  0  0
    4.7999   -8.7890   16.2682 C   0  0  0  0  0  0  0  0  0  0  0  0
    2.2949   -8.8341   16.9884 C   0  0  0  0  0  0  0  0  0  0  0  0
   11.9037   -2.4779   21.8916 N   0  0  0  0  0  0  0  0  0  0  0  0
    1.2379   -9.1440   17.1308 C   0  0  0  0  0  0  0  0  0  0  0  0
    3.4887   -9.5566   17.4411 C   0  0  0  0  0  0  0  0  0  0  0  0
    7.7395   -8.0160   16.2855 F   0  0  0  0  0  0  0  0  0  0  0  0
    7.1580   -6.9095   17.2551 Se  0  0  0  0  0  0  0  0  0  0  0  0
   11.8034   -5.5494   23.1259 O   0  0  0  0  0  0  0  0  0  0  0  0
    9.5773   -5.9442   19.3024 C   0  0  0  0  0  0  0  0  0  0  0  0
   12.0177   -4.3876   17.7116 C   0  0  0  0  0  0  0  0  0  0  0  0
   11.6913   -4.8636   20.7878 He  0  0  0  0  0  0  0  0  0  0  0  0
   11.8322   -2.6479   21.9829 He  0  0  0  0  0  0  0  0  0  0  0  0
   10.2352   -4.7561   16.3544 He  0  0  0  0  0  0  0  0  0  0  0  0
    7.8901   -8.2464   14.9243 He  0  0  0  0  0  0  0  0  0  0  0  0
    7.3476   -4.3618   15.8231 He  0  0  0  0  0  0  0  0  0  0  0  0
    6.4014   -8.4380   17.4806 He  0  0  0  0  0  0  0  0  0  0  0  0
    2.9713   -9.6181   14.3985 He  0  0  0  0  0  0  0  0  0  0  0  0
   11.2242   -5.0713   21.9611 He  0  0  0  0  0  0  0  0  0  0  0  0
  1  5  4  0
  1  6  2  0
  1  9  2  0
  1 17  2  0
  2  3  3  0
  2  4  2  0
  2  7  3  0
  2 16  2  0
  2 20  4  0
  3  5  2  0
  3 10  1  0
  3 11  3  0
  3 13  1  0
  3 16  1  0
  3 19  4  0
  4  6  2  0
  4 20  2  0
  4 21  2  0
  5 15  4  0
  5 21  2  0
  6  7  4  0
  6 16  4  0
  6 21  2  0
  7  8  2  0
  7 11  2  0
  7 13  1  0
  7 14  4  0
  7 16  1  0
  7 20  1  0
  7 21  4  0
  8 11  2  0
  8 16  2  0
  8 20  4  0
  8 21  3  0
  9 13  4  0
  9 16  2  0
  9 20  1  0
  9 21  2  0
 10 12  3  0
 10 14  1  0
 11 13  4  0
 11 14  4  0
 11 16  1  0
 11 18  4  0
 11 19  1  0
 11 21  4  0
 12 13  2  0
 12 14  4  0
 12 16  1  0
 12 19  3  0
 12 20  3  0
 12 21  4  0
 13 15  1  0
 13 20  3  0
 14 17  4  0
 14 19  2  0
 15 18  4  0
 15 21  2  0
 16 21  1  0
 17 19  3  0
 17 21  3  0
 18 19  2  0
 18 21  4  0
 19 21  2  0
M  END
$$$$

 Created by Python create_sdf_string function

 29 18  0  0  0  0  0  0  0  0999 V2000
   11.1806   -4.4123   20.4619 C   0  0  0  0  0  0  0  0  0  0  0  0
   11.5180   -2.9251   24.1488 C   0  0  0  0  0  0  0  0  0  0  0  0
    6.1568   -7.5335   15.6357 C   0  0  0  0  0  0  0  0  0  0  0  0
    9.1274   -4.8014   16.1837 C   0  0  0  0  0  0  0  0  0  0  0  0
    8.5719   -7.1760   17.4359 C   0  0  0  0  0  0  0  0  0  0  0  0
   11.3227   -2.8822   21.8135 C   0  0  0  0  0  0  0  0  0  0  0  0
   10.2867   -4.1742   16.4575 N   0  0  0  0  0  0  0  0  0  0  0  0
    7.6635   -7.8703   15.4551 C   0  0  0  0  0  0  0  0  0  0  0  0
    9.2013   -6.0963   17.3521 C   0  0  0  0  0  0  0  0  0  0  0  0
   10.6225   -4.0139   18.6809 C   0  0  0  0  0  0  0  0  0  0  0  0
    8.1473   -4.8639   15.5653 O   0  0  0  0  0  0  0  0  0  0  0  0
   10.1771   -4.4622   17.7688 C   0  0  0  0  0  0  0  0  0  0  0  0
    9.2381   -6.2676   17.1379 N   0  0  0  0  0  0  0  0  0  0  0  0
    3.2499   -8.8531   15.9245 C   0  0  0  0  0  0  0  0  0  0  0  0
   11.1206   -2.6557   23.5946 C   0  0  0  0  0  0  0  0  0  0  0  0
    6.2414   -8.4011   17.2205 C   0  0  0  0  0  0  0  0  0  0  0  0
   11.6358   -4.5142   22.8767 C   0  0  0  0  0  0  0  0  0  0  0  0
    2.8917   -8.9455   15.3115 C   0  0  0  0  0  0  0  0  0  0  0  0
    4.6848   -8.5665   16.5707 C   0  0  0  0  0  0  0  0  0  0  0  0
    2.2233   -9.3720   16.8177 C   0  0  0  0  0  0  0  0  0  0  0  0
   11.3259   -4.9786   21.5070 C   0  0  0  0  0  0  0  0  0  0  0  0
   11.3062   -2.9705   21.7297 N   0  0  0  0  0  0  0  0  0  0  0  0
    1.5760   -9.4876   16.7890 C   0  0  0  0  0  0  0  0  0  0  0  0
    3.8061   -9.1419   17.0386 C   0  0  0  0  0  0  0  0  0  0  0  0
    7.6280   -8.4031   16.8694 C   0  0  0  0  0  0  0  0  0  0  0  0
    6.5541   -7.4179   17.3541 C   0  0  0  0  0  0  0  0  0  0  0  0
   11.7412   -5.2534   23.4461 O   0  0  0  0  0  0  0  0  0  0  0  0
   10.3096   -5.8757   19.2916 C   0  0  0  0  0  0  0  0  0  0  0  0
   11.1957   -4.0527   18.1228 C   0  0  0  0  0  0  0  0  0  0  0  0
  1 21  4  0
  2 15  4  0
  3  8  1  0
  4 11  2  0
  5  9  1  0
  5 13  1  0
  5 25  1  0
  6 22  4  0
  9 13  1  0
 10 12  4  0
 14 18  4  0
 16 19  1  0
 16 25  1  0
 16 26  1  0
 17 21  4  0
 17 27  1  0
 19 24  1  0
 20 23  4  0
M  END
$$$$

 Created by Python create_sdf_string function

 29 72  0  0  0  0  0  0  0  0999 V2000
   12.3638   -4.8135   21.0515 C   0  0  0  0  0  0  0  0  0  0  0  0
   11.2805   -3.6548   23.2027 C   0  0  0  0  0  0  0  0  0  0  0  0
    7.1574   -8.9080   15.0672 O   0  0  0  0  0  0  0  0  0  0  0  0
   10.3657   -6.1913   16.7737 N   0  0  0  0  0  0  0  0  0  0  0  0
   11.6679   -3.4810   21.8843 F   0  0  0  0  0  0  0  0  0  0  0  0
    9.3773   -3.6656   15.8477 N   0  0  0  0  0  0  0  0  0  0  0  0
    8.4093   -7.8890   15.5962 N   0  0  0  0  0  0  0  0  0  0  0  0
    8.7601   -6.1769   19.1947 C   0  0  0  0  0  0  0  0  0  0  0  0
    6.8301   -4.2572   15.9370 P   0  0  0  0  0  0  0  0  0  0  0  0
   10.6139   -4.7579   17.0907 O   0  0  0  0  0  0  0  0  0  0  0  0
    2.1294   -7.9249   15.9171 C   0  0  0  0  0  0  0  0  0  0  0  0
   10.3296   -4.0970   23.4110 O   0  0  0  0  0  0  0  0  0  0  0  0
    5.5620   -9.8715   17.4378 O   0  0  0  0  0  0  0  0  0  0  0  0
    2.2901   -8.0487   15.1328 I   0  0  0  0  0  0  0  0  0  0  0  0
    4.0111   -8.7730   17.1356 Cl  0  0  0  0  0  0  0  0  0  0  0  0
    1.7869   -9.4669   18.4089 C   0  0  0  0  0  0  0  0  0  0  0  0
   11.5602   -2.7464   21.2645 N   0  0  0  0  0  0  0  0  0  0  0  0
    1.7942   -9.5434   16.7268 N   0  0  0  0  0  0  0  0  0  0  0  0
    6.2869   -7.9732   17.0968 Cl  0  0  0  0  0  0  0  0  0  0  0  0
    9.5805   -4.3802   19.6273 F   0  0  0  0  0  0  0  0  0  0  0  0
   10.9734   -4.4009   17.0705 C   0  0  0  0  0  0  0  0  0  0  0  0
    7.1150   -4.6078   17.7295 He  0  0  0  0  0  0  0  0  0  0  0  0
   11.7186   -3.5370   17.3616 He  0  0  0  0  0  0  0  0  0  0  0  0
    9.7355   -7.3550   17.4124 He  0  0  0  0  0  0  0  0  0  0  0  0
   11.2820   -5.7945   23.0552 He  0  0  0  0  0  0  0  0  0  0  0  0
   10.8378   -4.1168   22.7839 He  0  0  0  0  0  0  0  0  0  0  0  0
    2.9084   -9.5828   15.7063 He  0  0  0  0  0  0  0  0  0  0  0  0
    6.7816   -6.5695   17.1232 He  0  0  0  0  0  0  0  0  0  0  0  0
   12.2318   -5.1942   23.1684 He  0  0  0  0  0  0  0  0  0  0  0  0
  1  3  2  0
  1  4  4  0
  1  6  2  0
  1 14  3  0
  1 16  4  0
  1 18  4  0
  2 11  2  0
  2 15  4  0
  2 16  3  0
  2 18  2  0
  2 19  1  0
  2 20  3  0
  2 21  4  0
  3  6  3  0
  3  9  4  0
  3 11  4  0
  3 12  3  0
  3 18  3  0
  3 20  2  0
  4  5  1  0
  4  6  1  0
  4  7  4  0
  4  9  2  0
  4 17  1  0
  4 19  2  0
  5  6  2  0
  5  7  4  0
  5  8  4  0
  5 11  3  0
  5 15  4  0
  5 18  1  0
  5 21  1  0
  6  7  2  0
  6 10  2  0
  6 16  1  0
  7  8  1  0
  7 10  3  0
  7 11  4  0
  7 12  1  0
  7 21  3  0
  8 12  3  0
  8 13  1  0
  8 17  1  0
  8 20  2  0
  9 12  1  0
  9 14  1  0
  9 16  3  0
  9 17  1  0
  9 18  4  0
 10 13  2  0
 10 16  2  0
 10 17  1  0
 10 19  3  0
 11 12  2  0
 11 14  4  0
 11 18  3  0
 12 16  4  0
 12 17  1  0
 12 20  3  0
 13 14  2  0
 13 15  3  0
 13 20  4  0
 13 21  4  0
 14 17  4  0
 14 18  3  0
 14 19  2  0
 14 21  4  0
 15 17  2  0
 15 20  2  0
 17 21  2  0
 18 21  2  0
 19 21  3  0
M  END
$$$$

 Created by Python create_sdf_string function

 29 14  0  0  0  0  0  0  0  0999 V2000
   11.8162   -4.8154   21.0914 C   0  0  0  0  0  0  0  0  0  0  0  0
   10.8967   -3.5124   23.2279 C   0  0  0  0  0  0  0  0  0  0  0  0
    7.1273   -8.6332   15.8415 C   0  0  0  0  0  0  0  0  0  0  0  0
    8.3868   -5.6954   17.2086 C   0  0  0  0  0  0  0  0  0  0  0  0
    9.2632   -6.2325   17.0710 N   0  0  0  0  0  0  0  0  0  0  0  0
   11.1721   -3.7916   21.6152 C   0  0  0  0  0  0  0  0  0  0  0  0
    9.6542   -4.1292   16.1839 N   0  0  0  0  0  0  0  0  0  0  0  0
    8.1803   -7.8818   16.0654 C   0  0  0  0  0  0  0  0  0  0  0  0
    9.4670   -6.0305   18.4850 C   0  0  0  0  0  0  0  0  0  0  0  0
   10.9565   -3.7151   18.0440 C   0  0  0  0  0  0  0  0  0  0  0  0
    7.8308   -5.5596   15.8849 C   0  0  0  0  0  0  0  0  0  0  0  0
   10.7642   -4.3115   17.0081 C   0  0  0  0  0  0  0  0  0  0  0  0
    9.2397   -7.0594   17.6672 C   0  0  0  0  0  0  0  0  0  0  0  0
    2.3951   -8.4784   15.9199 C   0  0  0  0  0  0  0  0  0  0  0  0
   10.6345   -3.4577   23.8309 O   0  0  0  0  0  0  0  0  0  0  0  0
    5.4098   -8.8475   17.3550 C   0  0  0  0  0  0  0  0  0  0  0  0
   11.6024   -4.9912   23.5016 C   0  0  0  0  0  0  0  0  0  0  0  0
    2.9260   -8.2551   15.9778 C   0  0  0  0  0  0  0  0  0  0  0  0
    4.2312   -8.6795   16.8852 C   0  0  0  0  0  0  0  0  0  0  0  0
    2.4100   -9.9374   17.4048 C   0  0  0  0  0  0  0  0  0  0  0  0
   11.1332   -4.1139   22.0070 C   0  0  0  0  0  0  0  0  0  0  0  0
   11.1454   -3.0257   20.9383 N   0  0  0  0  0  0  0  0  0  0  0  0
    1.8056   -9.4982   16.8213 N   0  0  0  0  0  0  0  0  0  0  0  0
    3.3221   -9.1703   16.9440 C   0  0  0  0  0  0  0  0  0  0  0  0
    6.2964   -7.7300   17.1372 C   0  0  0  0  0  0  0  0  0  0  0  0
    6.9203   -7.3098   16.8934 C   0  0  0  0  0  0  0  0  0  0  0  0
   11.9572   -5.1631   23.1024 C   0  0  0  0  0  0  0  0  0  0  0  0
   10.1707   -4.4032   19.5107 C   0  0  0  0  0  0  0  0  0  0  0  0
   10.6456   -4.3947   17.4502 C   0  0  0  0  0  0  0  0  0  0  0  0
  1 21  4  0
  1 27  4  0
  2 15  4  0
  3  8  4  0
  5 13  4  0
 12 29  1  0
 14 18  4  0
 14 23  4  0
 16 19  1  0
 17 27  4  0
 19 24  4  0
 20 23  4  0
 20 24  4  0
 25 26  4  0
M  END
$$$$

 Created by Python create_sdf_string function

 29 60  0  0  0  0  0  0  0  0999 V2000
   11.5619   -3.3488   22.4654 C   0  0  0  0  0  0  0  0  0  0  0  0
    6.7446   -9.0117   14.2227 C   0  0  0  0  0  0  0  0  0  0  0  0
    7.7673   -6.5712   17.1284 C   0  0  0  0  0  0  0  0  0  0  0  0
    7.8678   -7.4643   18.6217 N   0  0  0  0  0  0  0  0  0  0  0  0
   11.5320   -3.9874   21.4535 N   0  0  0  0  0  0  0  0  0  0  0  0
    7.5353   -8.5351   15.8503 N   0  0  0  0  0  0  0  0  0  0  0  0
    9.4420   -5.6671   19.3519 C   0  0  0  0  0  0  0  0  0  0  0  0
    6.8359   -6.4421   15.4465 Cl  0  0  0  0  0  0  0  0  0  0  0  0
    8.5607   -7.3405   17.0873 C   0  0  0  0  0  0  0  0  0  0  0  0
   11.6141   -4.5603   23.0187 S   0  0  0  0  0  0  0  0  0  0  0  0
    2.7168   -9.0098   15.2179 C   0  0  0  0  0  0  0  0  0  0  0  0
    4.0437   -8.6089   16.8941 C   0  0  0  0  0  0  0  0  0  0  0  0
    3.0819   -9.9401   17.7353 O   0  0  0  0  0  0  0  0  0  0  0  0
    9.7640   -3.9418   21.5882 F   0  0  0  0  0  0  0  0  0  0  0  0
    3.0790   -9.2554   16.7358 C   0  0  0  0  0  0  0  0  0  0  0  0
    5.8967   -7.5805   17.0026 I   0  0  0  0  0  0  0  0  0  0  0  0
    6.1788   -8.7529   17.6961 C   0  0  0  0  0  0  0  0  0  0  0  0
   11.3444   -5.3247   23.0264 P   0  0  0  0  0  0  0  0  0  0  0  0
    9.9532   -4.2853   19.0457 N   0  0  0  0  0  0  0  0  0  0  0  0
   12.1996   -4.8256   18.5489 C   0  0  0  0  0  0  0  0  0  0  0  0
   11.8459   -4.9007   21.7829 He  0  0  0  0  0  0  0  0  0  0  0  0
    9.8846   -4.3634   16.2927 He  0  0  0  0  0  0  0  0  0  0  0  0
    9.9609   -4.0158   18.0727 He  0  0  0  0  0  0  0  0  0  0  0  0
    9.9420   -5.1060   15.5023 He  0  0  0  0  0  0  0  0  0  0  0  0
    1.6255   -9.6088   16.5156 He  0  0  0  0  0  0  0  0  0  0  0  0
   11.1516   -2.1771   23.4649 He  0  0  0  0  0  0  0  0  0  0  0  0
    6.2689   -9.0515   16.1181 He  0  0  0  0  0  0  0  0  0  0  0  0
   10.9191   -3.5083   21.6215 He  0  0  0  0  0  0  0  0  0  0  0  0
    0.8668   -9.8598   16.5734 He  0  0  0  0  0  0  0  0  0  0  0  0
  1  2  2  0
  1  3  2  0
  1  4  1  0
  1  6  1  0
  1  8  1  0
  1 12  4  0
  1 13  1  0
  1 14  1  0
  1 15  3  0
  1 18  4  0
  1 20  2  0
  2  3  1  0
  2  4  4  0
  2  5  3  0
  2  6  3  0
  2  7  3  0
  2 10  2  0
  2 13  2  0
  2 16  4  0
  2 17  2  0
  2 20  1  0
  3  7  1  0
  3  9  4  0
  3 10  1  0
  3 18  4  0
  4  5  1  0
  4  6  3  0
  4  7  3  0
  4  8  4  0
  4 13  2  0
  4 14  1  0
  4 16  2  0
  5 14  3  0
  5 15  3  0
  5 20  1  0
  6  7  2  0
  6 11  3  0
  6 20  4  0
  7  9  3  0
  7 19  4  0
  7 20  2  0
  8 16  3  0
  8 20  4  0
  9 11  3  0
  9 16  3  0
  9 18  4  0
  9 19  3  0
  9 20  2  0
 10 11  4  0
 10 15  1  0
 10 18  2  0
 10 20  4  0
 11 16  3  0
 13 17  3  0
 13 19  4  0
 14 20  4  0
 16 17  3  0
 17 20  3  0
 18 20  4  0
 19 20  2  0
M  END
$$$$

 Created by Python create_sdf_string function

 29 17  0  0  0  0  0  0  0  0999 V2000
   11.9954   -5.0383   21.7312 C   0  0  0  0  0  0  0  0  0  0  0  0
   11.0445   -3.3457   22.9537 C   0  0  0  0  0  0  0  0  0  0  0  0
    6.6137   -8.7741   15.5640 C   0  0  0  0  0  0  0  0  0  0  0  0
    8.3258   -6.5750   16.9294 C   0  0  0  0  0  0  0  0  0  0  0  0
    8.2668   -7.2216   18.0624 N   0  0  0  0  0  0  0  0  0  0  0  0
   11.2723   -4.3963   20.6954 C   0  0  0  0  0  0  0  0  0  0  0  0
    9.7616   -4.3498   16.3860 C   0  0  0  0  0  0  0  0  0  0  0  0
    7.7179   -8.4455   15.7583 C   0  0  0  0  0  0  0  0  0  0  0  0
    9.6831   -5.8778   18.5493 C   0  0  0  0  0  0  0  0  0  0  0  0
   10.4481   -3.9894   17.7231 C   0  0  0  0  0  0  0  0  0  0  0  0
    7.0538   -6.4614   15.6344 C   0  0  0  0  0  0  0  0  0  0  0  0
    9.5050   -4.7120   16.3437 C   0  0  0  0  0  0  0  0  0  0  0  0
    8.4651   -6.8456   17.0698 C   0  0  0  0  0  0  0  0  0  0  0  0
    1.6014   -9.5496   16.6472 C   0  0  0  0  0  0  0  0  0  0  0  0
   10.8496   -2.5259   23.6143 O   0  0  0  0  0  0  0  0  0  0  0  0
    6.3031   -8.3082   15.8220 C   0  0  0  0  0  0  0  0  0  0  0  0
   11.6380   -4.7299   23.3818 C   0  0  0  0  0  0  0  0  0  0  0  0
    2.9576   -9.0004   15.7865 C   0  0  0  0  0  0  0  0  0  0  0  0
    3.8573   -8.8332   16.6485 C   0  0  0  0  0  0  0  0  0  0  0  0
    2.9955   -9.7435   17.5810 C   0  0  0  0  0  0  0  0  0  0  0  0
   10.8908   -3.4433   21.6108 C   0  0  0  0  0  0  0  0  0  0  0  0
   10.4612   -3.5609   21.2284 C   0  0  0  0  0  0  0  0  0  0  0  0
    1.3768   -9.8022   16.9333 C   0  0  0  0  0  0  0  0  0  0  0  0
    3.0739   -9.1730   16.8598 C   0  0  0  0  0  0  0  0  0  0  0  0
    5.8021   -8.0894   16.9790 C   0  0  0  0  0  0  0  0  0  0  0  0
    5.7879   -8.3737   17.7270 C   0  0  0  0  0  0  0  0  0  0  0  0
   11.7328   -5.0017   23.2205 C   0  0  0  0  0  0  0  0  0  0  0  0
   10.1835   -4.8363   18.5822 N   0  0  0  0  0  0  0  0  0  0  0  0
   11.3704   -4.5507   19.1368 C   0  0  0  0  0  0  0  0  0  0  0  0
  1  6  4  0
  1 27  4  0
  2 15  4  0
  3  8  4  0
  3 16  4  0
  4 13  4  0
  6 29  1  0
  7 12  4  0
  9 28  4  0
 14 23  4  0
 14 24  4  0
 17 27  4  0
 18 19  4  0
 19 24  4  0
 20 23  4  0
 21 22  4  0
 25 26  4  0
M  END
$$$$

 Created by Python create_sdf_string function

 29 57  0  0  0  0  0  0  0  0999 V2000
   11.6286   -6.2448   21.1637 C   0  0  0  0  0  0  0  0  0  0  0  0
    6.3544   -8.2643   14.7239 C   0  0  0  0  0  0  0  0  0  0  0  0
    8.1615   -6.6953   17.7706 F   0  0  0  0  0  0  0  0  0  0  0  0
    8.1338   -7.3601   19.2863 C   0  0  0  0  0  0  0  0  0  0  0  0
   11.0866   -3.5597   16.5926 C   0  0  0  0  0  0  0  0  0  0  0  0
   11.9311   -4.7658   17.6157 F   0  0  0  0  0  0  0  0  0  0  0  0
    8.5016   -6.2878   16.4177 O   0  0  0  0  0  0  0  0  0  0  0  0
    8.1670   -6.8254   17.5695 C   0  0  0  0  0  0  0  0  0  0  0  0
    1.6292   -8.1494   16.7304 Cl  0  0  0  0  0  0  0  0  0  0  0  0
   11.9301   -2.2369   23.5962 O   0  0  0  0  0  0  0  0  0  0  0  0
    5.5813   -8.4237   15.3933 F   0  0  0  0  0  0  0  0  0  0  0  0
    1.9759   -9.0515   14.8249 N   0  0  0  0  0  0  0  0  0  0  0  0
    4.3494   -8.1900   16.7984 C   0  0  0  0  0  0  0  0  0  0  0  0
    2.6411   -8.4191   18.4572 I   0  0  0  0  0  0  0  0  0  0  0  0
   10.0399   -3.2414   21.4771 C   0  0  0  0  0  0  0  0  0  0  0  0
    1.8215  -10.8858   16.8397 C   0  0  0  0  0  0  0  0  0  0  0  0
    4.6282   -7.7677   18.0758 P   0  0  0  0  0  0  0  0  0  0  0  0
   12.6067   -4.8807   23.5292 O   0  0  0  0  0  0  0  0  0  0  0  0
   10.1154   -4.2159   18.4868 N   0  0  0  0  0  0  0  0  0  0  0  0
   10.3876   -2.1438   23.1379 He  0  0  0  0  0  0  0  0  0  0  0  0
   11.9047   -5.8406   22.0291 He  0  0  0  0  0  0  0  0  0  0  0  0
    9.0676   -7.4093   16.3780 He  0  0  0  0  0  0  0  0  0  0  0  0
    9.8245   -6.1499   19.0983 He  0  0  0  0  0  0  0  0  0  0  0  0
    8.4646   -5.9939   17.5537 He  0  0  0  0  0  0  0  0  0  0  0  0
   11.6697   -5.6266   22.9006 He  0  0  0  0  0  0  0  0  0  0  0  0
    9.6861   -2.9824   22.8550 He  0  0  0  0  0  0  0  0  0  0  0  0
    3.2774   -9.0302   16.3694 He  0  0  0  0  0  0  0  0  0  0  0  0
    5.8401   -7.8926   16.8381 He  0  0  0  0  0  0  0  0  0  0  0  0
   11.4659   -4.8478   20.0861 He  0  0  0  0  0  0  0  0  0  0  0  0
  1  5  4  0
  1  9  1  0
  1 12  4  0
  1 14  2  0
  1 15  3  0
  2  8  3  0
  2 10  2  0
  2 11  2  0
  2 15  2  0
  2 17  3  0
  3 11  3  0
  3 12  4  0
  3 17  1  0
  4  7  2  0
  4  8  3  0
  4 10  3  0
  4 17  2  0
  4 18  2  0
  4 19  2  0
  5  6  4  0
  5  7  1  0
  5  8  4  0
  5 12  4  0
  5 16  1  0
  5 17  4  0
  6 10  3  0
  6 12  2  0
  6 13  3  0
  6 14  3  0
  6 15  3  0
  6 17  2  0
  6 18  1  0
  7 11  4  0
  7 15  2  0
  7 17  3  0
  7 19  1  0
  8 13  4  0
  8 14  3  0
  8 15  4  0
  8 17  4  0
  9 13  4  0
  9 16  4  0
 10 15  1  0
 10 16  1  0
 10 17  1  0
 10 18  1  0
 11 12  1  0
 11 13  2  0
 11 14  2  0
 11 16  2  0
 11 17  4  0
 11 19  2  0
 12 13  4  0
 12 16  4  0
 14 17  4  0
 15 19  3  0
 17 18  1  0
M  END
$$$$

 Created by Python create_sdf_string function

 29 22  0  0  0  0  0  0  0  0999 V2000
   11.4628   -5.0560   20.8438 C   0  0  0  0  0  0  0  0  0  0  0  0
   10.3884   -2.1731   23.5857 C   0  0  0  0  0  0  0  0  0  0  0  0
    6.9734   -8.3342   15.4721 C   0  0  0  0  0  0  0  0  0  0  0  0
    8.2531   -6.9831   17.2478 C   0  0  0  0  0  0  0  0  0  0  0  0
    8.6468   -7.5168   18.4027 C   0  0  0  0  0  0  0  0  0  0  0  0
   11.8831   -5.2529   21.8654 C   0  0  0  0  0  0  0  0  0  0  0  0
   10.7235   -4.0310   16.7221 C   0  0  0  0  0  0  0  0  0  0  0  0
    8.1703   -7.7547   15.8009 C   0  0  0  0  0  0  0  0  0  0  0  0
   10.0495   -5.6707   18.8193 C   0  0  0  0  0  0  0  0  0  0  0  0
   11.1808   -4.0741   17.4680 C   0  0  0  0  0  0  0  0  0  0  0  0
    8.9248   -5.5791   16.3343 O   0  0  0  0  0  0  0  0  0  0  0  0
    7.6591   -7.3009   17.4182 C   0  0  0  0  0  0  0  0  0  0  0  0
    9.3555   -5.9213   17.6594 C   0  0  0  0  0  0  0  0  0  0  0  0
    1.8285   -9.1940   16.5190 C   0  0  0  0  0  0  0  0  0  0  0  0
   11.1534   -2.7578   24.0524 O   0  0  0  0  0  0  0  0  0  0  0  0
    5.5798   -8.3347   15.7397 C   0  0  0  0  0  0  0  0  0  0  0  0
   11.8229   -4.9667   22.9771 C   0  0  0  0  0  0  0  0  0  0  0  0
    2.1090   -9.0938   15.3929 N   0  0  0  0  0  0  0  0  0  0  0  0
    3.7826   -8.6116   15.9846 C   0  0  0  0  0  0  0  0  0  0  0  0
    2.9720   -9.2310   17.2735 C   0  0  0  0  0  0  0  0  0  0  0  0
   10.5842   -3.0326   22.6914 C   0  0  0  0  0  0  0  0  0  0  0  0
   10.4867   -3.4655   21.4962 C   0  0  0  0  0  0  0  0  0  0  0  0
    1.4081   -9.4777   16.6220 C   0  0  0  0  0  0  0  0  0  0  0  0
    3.6514   -8.7251   16.4929 C   0  0  0  0  0  0  0  0  0  0  0  0
    6.0443   -7.9976   16.7887 C   0  0  0  0  0  0  0  0  0  0  0  0
    5.2386   -8.0750   17.7026 C   0  0  0  0  0  0  0  0  0  0  0  0
   11.8870   -4.5453   23.5135 C   0  0  0  0  0  0  0  0  0  0  0  0
   10.7538   -4.5498   18.6336 N   0  0  0  0  0  0  0  0  0  0  0  0
   10.9887   -4.6902   19.7834 C   0  0  0  0  0  0  0  0  0  0  0  0
  1  6  4  0
  1 29  4  0
  2 15  1  0
  2 21  1  0
  3  8  4  0
  3 16  4  0
  4 12  4  0
  4 13  4  0
  6 17  4  0
  7 10  4  0
  9 13  4  0
  9 28  4  0
 10 28  4  0
 14 23  4  0
 17 27  4  0
 18 19  4  0
 18 23  4  0
 19 24  4  0
 20 24  4  0
 21 22  4  0
 25 26  4  0
 28 29  1  0
M  END
$$$$

 Created by Python create_sdf_string function

 29 68  0  0  0  0  0  0  0  0999 V2000
   10.7032   -5.3826   20.0703 C   0  0  0  0  0  0  0  0  0  0  0  0
    7.9524   -8.8889   14.8536 N   0  0  0  0  0  0  0  0  0  0  0  0
    8.9699   -7.3084   17.4615 O   0  0  0  0  0  0  0  0  0  0  0  0
    9.0026   -7.7605   18.1873 C   0  0  0  0  0  0  0  0  0  0  0  0
   12.3133   -5.7350   20.8540 C   0  0  0  0  0  0  0  0  0  0  0  0
   11.3187   -3.6095   16.5288 C   0  0  0  0  0  0  0  0  0  0  0  0
    8.2056   -7.5450   15.6799 C   0  0  0  0  0  0  0  0  0  0  0  0
   10.9875   -5.1490   20.2415 O   0  0  0  0  0  0  0  0  0  0  0  0
   11.4346   -4.9749   16.4681 C   0  0  0  0  0  0  0  0  0  0  0  0
    8.8221   -6.5892   16.2675 C   0  0  0  0  0  0  0  0  0  0  0  0
    2.1462   -9.4493   16.7128 Cl  0  0  0  0  0  0  0  0  0  0  0  0
   12.1587   -3.4356   24.8356 O   0  0  0  0  0  0  0  0  0  0  0  0
    3.0887   -8.4379   15.6720 O   0  0  0  0  0  0  0  0  0  0  0  0
    1.2274   -9.3657   18.0250 C   0  0  0  0  0  0  0  0  0  0  0  0
    9.8370   -2.9100   22.8472 F   0  0  0  0  0  0  0  0  0  0  0  0
    6.3831   -8.0904   17.1463 Cl  0  0  0  0  0  0  0  0  0  0  0  0
    5.5626   -9.8722   17.0021 O   0  0  0  0  0  0  0  0  0  0  0  0
   11.3795   -4.8289   23.0504 O   0  0  0  0  0  0  0  0  0  0  0  0
   11.6279   -2.5803   18.1296 N   0  0  0  0  0  0  0  0  0  0  0  0
   10.9255   -4.8054   19.4634 C   0  0  0  0  0  0  0  0  0  0  0  0
    9.8931   -3.2697   23.1062 He  0  0  0  0  0  0  0  0  0  0  0  0
    8.6891   -7.8838   16.6447 He  0  0  0  0  0  0  0  0  0  0  0  0
    9.1844   -5.2348   17.2705 He  0  0  0  0  0  0  0  0  0  0  0  0
    6.0666   -8.8848   15.3096 He  0  0  0  0  0  0  0  0  0  0  0  0
   11.3054   -5.5219   24.2554 He  0  0  0  0  0  0  0  0  0  0  0  0
    1.0567   -9.0497   15.8353 He  0  0  0  0  0  0  0  0  0  0  0  0
   11.0010   -3.7593   22.4296 He  0  0  0  0  0  0  0  0  0  0  0  0
   -0.3829   -9.7599   16.3826 He  0  0  0  0  0  0  0  0  0  0  0  0
    3.5091   -8.4940   15.7508 He  0  0  0  0  0  0  0  0  0  0  0  0
  1  2  1  0
  1  3  2  0
  1  5  4  0
  1  7  4  0
  1  9  1  0
  1 10  2  0
  1 13  2  0
  1 14  4  0
  2  7  3  0
  2  9  3  0
  2 11  1  0
  2 17  4  0
  2 19  4  0
  3  5  2  0
  3  6  4  0
  3  8  1  0
  3  9  2  0
  3 11  3  0
  3 13  3  0
  4  8  4  0
  4  9  4  0
  4 11  4  0
  4 12  3  0
  4 17  1  0
  4 19  1  0
  4 20  3  0
  5  6  4  0
  5 19  4  0
  6  8  3  0
  6  9  4  0
  6 11  3  0
  6 14  1  0
  6 15  2  0
  6 16  3  0
  7 16  3  0
  7 20  4  0
  8  9  1  0
  8 12  1  0
  8 19  2  0
  8 20  4  0
  9 12  1  0
  9 15  2  0
  9 16  4  0
  9 19  4  0
  9 20  3  0
 10 12  1  0
 10 14  1  0
 10 15  4  0
 10 16  2  0
 10 17  1  0
 10 18  1  0
 10 19  2  0
 10 20  1  0
 11 14  3  0
 11 15  2  0
 11 20  3  0
 12 13  3  0
 13 14  1  0
 13 18  2  0
 13 20  4  0
 14 15  3  0
 14 19  3  0
 16 19  4  0
 17 19  1  0
 17 20  1  0
 18 19  2  0
 18 20  1  0
 19 20  1  0
M  END
$$$$

 Created by Python create_sdf_string function

 29 23  0  0  0  0  0  0  0  0999 V2000
   10.9461   -4.7871   20.2198 C   0  0  0  0  0  0  0  0  0  0  0  0
   10.6439   -3.1830   23.5862 C   0  0  0  0  0  0  0  0  0  0  0  0
    7.3079   -8.5832   15.4254 N   0  0  0  0  0  0  0  0  0  0  0  0
    9.0100   -6.6904   17.3890 C   0  0  0  0  0  0  0  0  0  0  0  0
    9.1941   -7.1822   18.0474 C   0  0  0  0  0  0  0  0  0  0  0  0
   11.7120   -5.1290   21.2746 C   0  0  0  0  0  0  0  0  0  0  0  0
   10.8618   -3.8709   16.5696 C   0  0  0  0  0  0  0  0  0  0  0  0
    7.8892   -7.5463   15.7439 C   0  0  0  0  0  0  0  0  0  0  0  0
   10.5446   -5.2204   19.4671 C   0  0  0  0  0  0  0  0  0  0  0  0
   10.6971   -4.1029   17.0201 C   0  0  0  0  0  0  0  0  0  0  0  0
    8.5814   -6.3403   16.2853 C   0  0  0  0  0  0  0  0  0  0  0  0
    8.4531   -7.8033   17.2051 C   0  0  0  0  0  0  0  0  0  0  0  0
    9.8137   -5.4023   17.4230 C   0  0  0  0  0  0  0  0  0  0  0  0
    2.5424   -9.4763   16.8749 C   0  0  0  0  0  0  0  0  0  0  0  0
   11.0387   -3.3858   24.9325 O   0  0  0  0  0  0  0  0  0  0  0  0
    5.8823   -8.7429   16.0473 C   0  0  0  0  0  0  0  0  0  0  0  0
   11.6131   -5.0017   23.6573 C   0  0  0  0  0  0  0  0  0  0  0  0
    1.2520   -9.0157   15.9743 C   0  0  0  0  0  0  0  0  0  0  0  0
    2.7988   -8.6962   15.9028 C   0  0  0  0  0  0  0  0  0  0  0  0
    1.6320   -9.8143   17.0691 C   0  0  0  0  0  0  0  0  0  0  0  0
   10.7206   -3.8051   22.1730 C   0  0  0  0  0  0  0  0  0  0  0  0
   10.4969   -3.2230   22.7285 C   0  0  0  0  0  0  0  0  0  0  0  0
    0.5343   -9.6657   16.5154 C   0  0  0  0  0  0  0  0  0  0  0  0
    3.3432   -8.9395   16.4145 C   0  0  0  0  0  0  0  0  0  0  0  0
    6.1654   -8.1558   16.9221 C   0  0  0  0  0  0  0  0  0  0  0  0
    5.0368   -8.9697   16.6289 C   0  0  0  0  0  0  0  0  0  0  0  0
   11.5489   -4.8693   23.1620 C   0  0  0  0  0  0  0  0  0  0  0  0
   11.2186   -3.2181   18.2818 N   0  0  0  0  0  0  0  0  0  0  0  0
   10.7191   -4.6083   19.1390 C   0  0  0  0  0  0  0  0  0  0  0  0
  1  6  4  0
  1 29  4  0
  2 15  1  0
  2 22  4  0
  3  8  4  0
  3 16  1  0
  4 12  4  0
  4 13  4  0
  5 12  4  0
  7 10  4  0
  8 11  4  0
  9 29  4  0
 10 28  4  0
 14 20  4  0
 14 24  4  0
 16 25  4  0
 16 26  1  0
 17 27  4  0
 18 19  4  0
 18 23  4  0
 19 24  4  0
 20 23  4  0
 21 22  4  0
M  END
$$$$

 Created by Python create_sdf_string function

 29 54  0  0  0  0  0  0  0  0999 V2000
   10.0021   -5.2530   19.3669 O   0  0  0  0  0  0  0  0  0  0  0  0
    6.9654   -8.2275   15.5130 S   0  0  0  0  0  0  0  0  0  0  0  0
    7.9972   -8.5676   15.3039 C   0  0  0  0  0  0  0  0  0  0  0  0
   10.4390   -4.0079   20.2690 C   0  0  0  0  0  0  0  0  0  0  0  0
   11.2817   -4.8322   15.8956 N   0  0  0  0  0  0  0  0  0  0  0  0
    8.7932   -6.6858   15.6183 N   0  0  0  0  0  0  0  0  0  0  0  0
   10.2119   -3.9814   16.6888 C   0  0  0  0  0  0  0  0  0  0  0  0
    4.0437   -8.2772   16.8025 C   0  0  0  0  0  0  0  0  0  0  0  0
   12.1481   -4.4095   24.7693 O   0  0  0  0  0  0  0  0  0  0  0  0
    6.0529   -8.1540   16.7133 C   0  0  0  0  0  0  0  0  0  0  0  0
    1.7937   -9.6214   15.3644 F   0  0  0  0  0  0  0  0  0  0  0  0
    1.9821   -9.0193   16.9869 O   0  0  0  0  0  0  0  0  0  0  0  0
   10.2294   -3.1868   21.9576 C   0  0  0  0  0  0  0  0  0  0  0  0
   11.6084   -2.2804   23.0872 S   0  0  0  0  0  0  0  0  0  0  0  0
   -0.9740   -9.3842   17.3201 F   0  0  0  0  0  0  0  0  0  0  0  0
    3.3718   -9.0713   16.3313 F   0  0  0  0  0  0  0  0  0  0  0  0
    4.4019   -8.7597   17.0745 C   0  0  0  0  0  0  0  0  0  0  0  0
   11.6520   -4.6889   23.2936 Cl  0  0  0  0  0  0  0  0  0  0  0  0
   11.1148   -3.4124   18.1061 N   0  0  0  0  0  0  0  0  0  0  0  0
   10.7602   -5.1738   19.9803 C   0  0  0  0  0  0  0  0  0  0  0  0
   11.1451   -3.6624   24.0218 He  0  0  0  0  0  0  0  0  0  0  0  0
    8.8650   -6.1184   17.4884 He  0  0  0  0  0  0  0  0  0  0  0  0
    8.7319   -6.4911   18.0976 He  0  0  0  0  0  0  0  0  0  0  0  0
   11.7257   -4.6988   20.8493 He  0  0  0  0  0  0  0  0  0  0  0  0
   10.6367   -3.0927   15.4608 He  0  0  0  0  0  0  0  0  0  0  0  0
    7.8967   -7.3087   18.0638 He  0  0  0  0  0  0  0  0  0  0  0  0
   12.1591   -5.8405   23.7657 He  0  0  0  0  0  0  0  0  0  0  0  0
    2.5911   -8.8628   15.7827 He  0  0  0  0  0  0  0  0  0  0  0  0
    5.4984   -8.0318   15.8476 He  0  0  0  0  0  0  0  0  0  0  0  0
  1 10  4  0
  1 19  2  0
  1 20  4  0
  2  3  4  0
  2  4  3  0
  2  5  1  0
  2  8  3  0
  2 10  1  0
  2 13  3  0
  2 14  2  0
  2 16  2  0
  2 20  3  0
  3 14  1  0
  3 16  3  0
  3 17  4  0
  3 19  4  0
  4  5  4  0
  4  7  2  0
  4  9  1  0
  4 10  4  0
  4 16  3  0
  4 19  1  0
  4 20  1  0
  5  7  3  0
  5  8  1  0
  6 17  1  0
  6 18  3  0
  7  8  4  0
  7  9  1  0
  7 10  4  0
  7 11  3  0
  7 14  2  0
  7 17  1  0
  8 13  1  0
  8 14  2  0
  8 16  3  0
  8 19  4  0
  9 10  4  0
  9 12  1  0
  9 16  2  0
  9 17  3  0
 10 16  2  0
 10 19  2  0
 11 15  4  0
 11 18  1  0
 12 15  4  0
 12 16  1  0
 13 14  4  0
 13 16  1  0
 13 20  1  0
 14 15  3  0
 14 19  3  0
 16 20  2  0
 18 19  1  0
M  END
$$$$

 Created by Python create_sdf_string function

 29 25  0  0  0  0  0  0  0  0999 V2000
   10.2049   -5.5954   19.3855 C   0  0  0  0  0  0  0  0  0  0  0  0
   11.3901   -3.8078   24.0859 C   0  0  0  0  0  0  0  0  0  0  0  0
    7.1365   -8.0471   16.2993 C   0  0  0  0  0  0  0  0  0  0  0  0
    8.7667   -6.5260   17.2656 C   0  0  0  0  0  0  0  0  0  0  0  0
    8.9613   -6.3035   17.6207 C   0  0  0  0  0  0  0  0  0  0  0  0
   11.3023   -4.9957   21.1695 C   0  0  0  0  0  0  0  0  0  0  0  0
   10.6900   -3.7532   15.8940 N   0  0  0  0  0  0  0  0  0  0  0  0
    7.9549   -7.7970   15.4949 C   0  0  0  0  0  0  0  0  0  0  0  0
   10.9218   -4.0573   20.2432 C   0  0  0  0  0  0  0  0  0  0  0  0
   10.5734   -4.1230   16.6385 N   0  0  0  0  0  0  0  0  0  0  0  0
    8.7455   -6.8384   15.7041 C   0  0  0  0  0  0  0  0  0  0  0  0
    7.8025   -7.3345   17.7688 C   0  0  0  0  0  0  0  0  0  0  0  0
   10.2647   -4.5411   17.2810 C   0  0  0  0  0  0  0  0  0  0  0  0
    3.8008   -8.5855   16.4854 C   0  0  0  0  0  0  0  0  0  0  0  0
   11.6796   -4.0752   25.2324 O   0  0  0  0  0  0  0  0  0  0  0  0
    6.0040   -8.2708   16.6971 C   0  0  0  0  0  0  0  0  0  0  0  0
   11.9993   -5.4579   23.5717 C   0  0  0  0  0  0  0  0  0  0  0  0
    1.0455   -9.5093   15.5673 C   0  0  0  0  0  0  0  0  0  0  0  0
    2.3219   -9.0450   15.4248 C   0  0  0  0  0  0  0  0  0  0  0  0
    1.7862   -9.3971   17.1826 O   0  0  0  0  0  0  0  0  0  0  0  0
   10.9182   -3.1660   22.1396 C   0  0  0  0  0  0  0  0  0  0  0  0
   10.9996   -3.1006   22.9923 C   0  0  0  0  0  0  0  0  0  0  0  0
    0.6873   -9.6127   16.7058 N   0  0  0  0  0  0  0  0  0  0  0  0
    2.9435   -8.8810   16.3989 C   0  0  0  0  0  0  0  0  0  0  0  0
    5.1814   -8.2767   15.9173 N   0  0  0  0  0  0  0  0  0  0  0  0
    4.8820   -8.5767   17.3877 C   0  0  0  0  0  0  0  0  0  0  0  0
   11.7454   -4.9255   23.0938 C   0  0  0  0  0  0  0  0  0  0  0  0
   10.9239   -3.4159   18.1179 N   0  0  0  0  0  0  0  0  0  0  0  0
   10.7253   -4.6618   19.9872 C   0  0  0  0  0  0  0  0  0  0  0  0
  1 29  4  0
  2 15  1  0
  2 22  4  0
  3  8  4  0
  3 16  1  0
  4  5  4  0
  4 11  4  0
  4 12  4  0
  5 12  4  0
  5 13  4  0
  7 10  1  0
  8 11  4  0
  9 29  1  0
 10 13  4  0
 13 28  4  0
 14 24  4  0
 16 25  4  0
 16 26  4  0
 17 27  4  0
 18 19  4  0
 18 23  4  0
 19 24  4  0
 20 23  4  0
 20 24  4  0
 21 22  4  0
M  END
$$$$

 Created by Python create_sdf_string function

 29 87  0  0  0  0  0  0  0  0999 V2000
    6.9978   -8.0781   16.1098 O   0  0  0  0  0  0  0  0  0  0  0  0
    9.5802   -6.5081   18.1903 C   0  0  0  0  0  0  0  0  0  0  0  0
   10.0202   -6.1758   18.1707 C   0  0  0  0  0  0  0  0  0  0  0  0
    9.9649   -5.6214   21.2875 S   0  0  0  0  0  0  0  0  0  0  0  0
   10.9303   -3.7019   15.1847 C   0  0  0  0  0  0  0  0  0  0  0  0
   11.4450   -4.4862   19.5811 C   0  0  0  0  0  0  0  0  0  0  0  0
   11.8006   -4.0036   16.5587 P   0  0  0  0  0  0  0  0  0  0  0  0
    8.6970   -6.7625   15.3190 C   0  0  0  0  0  0  0  0  0  0  0  0
    8.0335   -8.2020   18.1075 C   0  0  0  0  0  0  0  0  0  0  0  0
   10.7378   -3.1037   17.7130 P   0  0  0  0  0  0  0  0  0  0  0  0
    3.2265   -7.9686   16.8973 P   0  0  0  0  0  0  0  0  0  0  0  0
   12.0477   -4.0241   25.0687 O   0  0  0  0  0  0  0  0  0  0  0  0
    5.9254   -8.1606   16.1258 Br  0  0  0  0  0  0  0  0  0  0  0  0
   11.7891   -4.7431   23.5255 F   0  0  0  0  0  0  0  0  0  0  0  0
    0.6249   -9.1767   16.0754 C   0  0  0  0  0  0  0  0  0  0  0  0
    2.6284   -8.6137   15.4932 Cl  0  0  0  0  0  0  0  0  0  0  0  0
    1.4749   -8.6525   17.0950 F   0  0  0  0  0  0  0  0  0  0  0  0
    9.4918   -3.9111   23.4504 C   0  0  0  0  0  0  0  0  0  0  0  0
    0.6376   -9.6917   16.8623 N   0  0  0  0  0  0  0  0  0  0  0  0
    4.3648   -8.3776   15.6131 C   0  0  0  0  0  0  0  0  0  0  0  0
    4.6579   -8.6276   17.5412 C   0  0  0  0  0  0  0  0  0  0  0  0
   12.1124   -5.0344   23.7625 C   0  0  0  0  0  0  0  0  0  0  0  0
   12.3935   -3.2349   19.1021 C   0  0  0  0  0  0  0  0  0  0  0  0
   10.4325   -4.8047   18.1086 He  0  0  0  0  0  0  0  0  0  0  0  0
   12.1155   -4.0319   23.4668 He  0  0  0  0  0  0  0  0  0  0  0  0
    7.6050   -7.5451   16.5062 He  0  0  0  0  0  0  0  0  0  0  0  0
   11.6136   -3.1315   23.2284 He  0  0  0  0  0  0  0  0  0  0  0  0
    5.3614   -7.4154   14.5606 He  0  0  0  0  0  0  0  0  0  0  0  0
   10.5306   -4.8366   19.6293 He  0  0  0  0  0  0  0  0  0  0  0  0
  1  2  1  0
  1  3  4  0
  1  5  4  0
  1  6  2  0
  1  8  1  0
  1  9  3  0
  1 11  2  0
  1 12  4  0
  1 13  1  0
  1 16  4  0
  1 20  1  0
  1 21  1  0
  1 23  1  0
  2  3  4  0
  2  5  1  0
  2  9  4  0
  2 11  4  0
  2 14  2  0
  2 15  4  0
  2 17  4  0
  2 18  4  0
  2 21  4  0
  2 22  4  0
  3  6  4  0
  3  7  2  0
  3 11  1  0
  3 12  2  0
  3 22  1  0
  3 23  1  0
  4  5  4  0
  4 21  4  0
  4 22  3  0
  5  7  1  0
  5  8  1  0
  5 10  2  0
  5 13  3  0
  5 15  2  0
  5 16  2  0
  5 17  3  0
  5 19  1  0
  5 21  2  0
  6 10  2  0
  6 13  3  0
  6 16  2  0
  6 17  1  0
  7  8  2  0
  7 18  3  0
  7 19  2  0
  7 21  3  0
  7 23  2  0
  8 13  2  0
  8 16  2  0
  8 20  4  0
  8 22  3  0
  9 18  4  0
  9 20  3  0
  9 23  4  0
 10 16  1  0
 10 17  1  0
 10 18  4  0
 10 20  3  0
 10 22  2  0
 11 12  1  0
 11 13  1  0
 11 20  4  0
 12 15  2  0
 12 17  1  0
 12 21  4  0
 12 23  1  0
 13 14  3  0
 13 17  3  0
 13 20  2  0
 13 21  2  0
 14 15  2  0
 14 19  1  0
 15 16  4  0
 15 17  2  0
 16 20  1  0
 16 23  4  0
 17 19  4  0
 17 20  1  0
 17 23  2  0
 18 20  2  0
 19 21  2  0
 20 21  1  0
 20 22  3  0
 21 22  4  0
M  END
$$$$

 Created by Python create_sdf_string function

 29 20  0  0  0  0  0  0  0  0999 V2000
   10.4490   -4.8030   18.2156 C   0  0  0  0  0  0  0  0  0  0  0  0
   11.8504   -4.4037   23.4064 C   0  0  0  0  0  0  0  0  0  0  0  0
    6.9389   -7.9473   16.3551 C   0  0  0  0  0  0  0  0  0  0  0  0
    9.3850   -6.4626   18.0084 C   0  0  0  0  0  0  0  0  0  0  0  0
    9.7216   -6.0335   18.1955 C   0  0  0  0  0  0  0  0  0  0  0  0
   11.0648   -4.8124   21.4422 C   0  0  0  0  0  0  0  0  0  0  0  0
   10.7474   -3.8305   15.8058 C   0  0  0  0  0  0  0  0  0  0  0  0
    7.9104   -7.4482   16.7288 C   0  0  0  0  0  0  0  0  0  0  0  0
   10.7150   -5.0577   19.8559 C   0  0  0  0  0  0  0  0  0  0  0  0
   11.0556   -3.8003   16.4316 C   0  0  0  0  0  0  0  0  0  0  0  0
    8.1936   -6.7817   15.9903 C   0  0  0  0  0  0  0  0  0  0  0  0
    8.3883   -7.7450   17.7923 C   0  0  0  0  0  0  0  0  0  0  0  0
   11.0636   -3.4505   17.4600 C   0  0  0  0  0  0  0  0  0  0  0  0
    3.5903   -8.6741   16.7885 C   0  0  0  0  0  0  0  0  0  0  0  0
   11.8085   -4.0581   25.0771 O   0  0  0  0  0  0  0  0  0  0  0  0
    5.8456   -8.0775   16.4337 C   0  0  0  0  0  0  0  0  0  0  0  0
   11.6723   -4.6857   23.2773 C   0  0  0  0  0  0  0  0  0  0  0  0
    1.4543   -9.1771   15.8444 C   0  0  0  0  0  0  0  0  0  0  0  0
    2.5780   -8.6735   15.4143 C   0  0  0  0  0  0  0  0  0  0  0  0
    2.0989   -9.4124   17.0439 C   0  0  0  0  0  0  0  0  0  0  0  0
   10.5994   -3.3522   23.1146 C   0  0  0  0  0  0  0  0  0  0  0  0
   11.0157   -3.4160   22.9735 C   0  0  0  0  0  0  0  0  0  0  0  0
    1.2237   -9.3123   16.7571 N   0  0  0  0  0  0  0  0  0  0  0  0
    3.7602   -8.4127   15.9857 C   0  0  0  0  0  0  0  0  0  0  0  0
    5.4121   -7.5394   15.4972 C   0  0  0  0  0  0  0  0  0  0  0  0
    5.0236   -8.4807   17.3729 C   0  0  0  0  0  0  0  0  0  0  0  0
   11.8158   -5.0248   23.6556 C   0  0  0  0  0  0  0  0  0  0  0  0
   11.1220   -3.6563   19.0908 C   0  0  0  0  0  0  0  0  0  0  0  0
   10.6763   -4.8837   19.3805 C   0  0  0  0  0  0  0  0  0  0  0  0
  1 28  4  0
  3 16  1  0
  4  5  4  0
  4 12  4  0
  7 10  1  0
  8 11  4  0
  8 12  1  0
  9 29  4  0
 14 20  4  0
 14 24  4  0
 14 26  4  0
 16 25  4  0
 16 26  4  0
 17 27  4  0
 18 19  4  0
 18 23  4  0
 19 24  4  0
 20 23  4  0
 21 22  4  0
 28 29  4  0
M  END
$$$$

 Created by Python create_sdf_string function

 29 37  0  0  0  0  0  0  0  0999 V2000
   10.6580   -4.9350   18.8032 C   0  0  0  0  0  0  0  0  0  0  0  0
   10.5634   -5.5488   23.8311 S   0  0  0  0  0  0  0  0  0  0  0  0
    7.7160   -8.2889   16.8664 C   0  0  0  0  0  0  0  0  0  0  0  0
    9.1109   -6.8152   18.6735 I   0  0  0  0  0  0  0  0  0  0  0  0
    9.2523   -7.3694   18.0623 C   0  0  0  0  0  0  0  0  0  0  0  0
   10.8726   -4.1807   21.8753 Cl  0  0  0  0  0  0  0  0  0  0  0  0
   11.4969   -4.0919   16.6369 C   0  0  0  0  0  0  0  0  0  0  0  0
    5.6739   -7.8670   17.1842 C   0  0  0  0  0  0  0  0  0  0  0  0
   11.4955   -3.5787   22.4813 N   0  0  0  0  0  0  0  0  0  0  0  0
    1.6278   -9.5998   15.3899 N   0  0  0  0  0  0  0  0  0  0  0  0
    2.7228   -8.8689   15.8911 C   0  0  0  0  0  0  0  0  0  0  0  0
    2.3174   -8.6574   17.2677 C   0  0  0  0  0  0  0  0  0  0  0  0
   10.5206   -3.0624   22.9805 C   0  0  0  0  0  0  0  0  0  0  0  0
    9.8615   -4.2193   22.6347 S   0  0  0  0  0  0  0  0  0  0  0  0
    5.5731   -7.2978   14.6634 C   0  0  0  0  0  0  0  0  0  0  0  0
    5.5329   -8.7777   16.0666 C   0  0  0  0  0  0  0  0  0  0  0  0
    7.2580   -7.9286   17.1824 He  0  0  0  0  0  0  0  0  0  0  0  0
   10.1433   -5.7101   19.1448 He  0  0  0  0  0  0  0  0  0  0  0  0
   10.3938   -3.2716   15.9187 He  0  0  0  0  0  0  0  0  0  0  0  0
    8.5083   -6.9191   16.1140 He  0  0  0  0  0  0  0  0  0  0  0  0
    9.2938   -8.0603   17.8067 He  0  0  0  0  0  0  0  0  0  0  0  0
   10.8231   -3.8195   18.1230 He  0  0  0  0  0  0  0  0  0  0  0  0
    4.2298   -9.4553   17.3822 He  0  0  0  0  0  0  0  0  0  0  0  0
   12.4930   -2.4465   25.7209 He  0  0  0  0  0  0  0  0  0  0  0  0
    0.8393   -9.4090   16.0796 He  0  0  0  0  0  0  0  0  0  0  0  0
    3.4727   -7.5831   15.9953 He  0  0  0  0  0  0  0  0  0  0  0  0
   10.7854   -4.7222   25.3905 He  0  0  0  0  0  0  0  0  0  0  0  0
   11.5298   -3.8828   18.3496 He  0  0  0  0  0  0  0  0  0  0  0  0
   11.2439   -4.4326   19.2451 He  0  0  0  0  0  0  0  0  0  0  0  0
  1  3  1  0
  1  8  3  0
  1  9  2  0
  1 14  1  0
  1 15  2  0
  1 16  2  0
  2  9  3  0
  3  4  4  0
  3 10  4  0
  3 15  3  0
  4  5  4  0
  4  7  1  0
  4  8  3  0
  4 11  1  0
  4 12  3  0
  4 13  1  0
  5 10  2  0
  5 13  1  0
  5 14  3  0
  6 15  1  0
  7  9  4  0
  7 13  3  0
  7 14  1  0
  7 16  1  0
  8  9  2  0
  8 15  4  0
  8 16  4  0
  9 11  2  0
  9 14  2  0
  9 15  4  0
 10 11  4  0
 10 15  4  0
 10 16  2  0
 12 14  4  0
 12 16  4  0
 13 14  4  0
 13 15  1  0
M  END
$$$$

 Created by Python create_sdf_string function

 29 24  0  0  0  0  0  0  0  0999 V2000
   10.6141   -4.9236   18.9400 C   0  0  0  0  0  0  0  0  0  0  0  0
   11.4166   -4.6920   23.8362 C   0  0  0  0  0  0  0  0  0  0  0  0
    7.6773   -7.8267   16.8349 C   0  0  0  0  0  0  0  0  0  0  0  0
    9.3669   -6.8842   18.1400 C   0  0  0  0  0  0  0  0  0  0  0  0
    9.1916   -6.7698   17.8928 C   0  0  0  0  0  0  0  0  0  0  0  0
   11.0513   -4.2036   21.5532 C   0  0  0  0  0  0  0  0  0  0  0  0
   10.6544   -4.0846   16.9512 C   0  0  0  0  0  0  0  0  0  0  0  0
    7.4661   -7.8883   16.7884 C   0  0  0  0  0  0  0  0  0  0  0  0
   10.2820   -5.7298   19.0633 C   0  0  0  0  0  0  0  0  0  0  0  0
   10.4604   -3.8488   15.9945 C   0  0  0  0  0  0  0  0  0  0  0  0
    8.5502   -6.5104   16.3466 C   0  0  0  0  0  0  0  0  0  0  0  0
    9.2907   -7.8672   18.0119 C   0  0  0  0  0  0  0  0  0  0  0  0
   11.0814   -3.4864   17.7698 C   0  0  0  0  0  0  0  0  0  0  0  0
    4.3283   -9.0792   17.2686 C   0  0  0  0  0  0  0  0  0  0  0  0
   11.4206   -3.1326   25.6842 O   0  0  0  0  0  0  0  0  0  0  0  0
    5.6064   -8.4668   16.9823 C   0  0  0  0  0  0  0  0  0  0  0  0
   11.3868   -4.4066   22.4963 C   0  0  0  0  0  0  0  0  0  0  0  0
    1.5122   -8.9545   15.4699 N   0  0  0  0  0  0  0  0  0  0  0  0
    2.7436   -8.7361   15.9702 C   0  0  0  0  0  0  0  0  0  0  0  0
    2.5521   -9.4311   16.9577 C   0  0  0  0  0  0  0  0  0  0  0  0
   10.4021   -3.0280   23.4009 C   0  0  0  0  0  0  0  0  0  0  0  0
   10.4731   -3.2647   22.6733 C   0  0  0  0  0  0  0  0  0  0  0  0
    1.2201   -9.5602   16.0907 N   0  0  0  0  0  0  0  0  0  0  0  0
    3.8349   -7.9696   15.6115 C   0  0  0  0  0  0  0  0  0  0  0  0
    5.6075   -7.3190   15.5546 C   0  0  0  0  0  0  0  0  0  0  0  0
    5.6034   -8.2856   16.4979 C   0  0  0  0  0  0  0  0  0  0  0  0
   11.0763   -3.9612   24.9883 C   0  0  0  0  0  0  0  0  0  0  0  0
   11.1150   -3.3677   18.9634 N   0  0  0  0  0  0  0  0  0  0  0  0
   10.9194   -4.4390   20.0234 C   0  0  0  0  0  0  0  0  0  0  0  0
  1  9  4  0
  2 17  4  0
  2 27  4  0
  3  8  1  0
  4  5  4  0
  4 12  4  0
  6 17  4  0
  6 22  4  0
  6 29  1  0
  7 10  1  0
  7 13  4  0
  9 29  4  0
 13 28  4  0
 14 16  4  0
 14 20  4  0
 15 27  1  0
 16 26  4  0
 18 19  1  0
 18 23  1  0
 19 20  4  0
 19 24  4  0
 21 22  4  0
 24 25  4  0
 28 29  4  0
M  END
$$$$

 Created by Python create_sdf_string function

 29 49  0  0  0  0  0  0  0  0999 V2000
   10.7734   -4.9508   22.7603 C   0  0  0  0  0  0  0  0  0  0  0  0
    8.0260   -7.5328   16.7014 P   0  0  0  0  0  0  0  0  0  0  0  0
    7.7761   -5.8337   18.2843 C   0  0  0  0  0  0  0  0  0  0  0  0
    9.2980   -7.3681   18.0950 C   0  0  0  0  0  0  0  0  0  0  0  0
   11.7521   -3.7674   21.6673 F   0  0  0  0  0  0  0  0  0  0  0  0
   11.3832   -3.5351   16.9795 C   0  0  0  0  0  0  0  0  0  0  0  0
    6.5732   -8.5210   16.2330 C   0  0  0  0  0  0  0  0  0  0  0  0
    9.7289   -6.4149   20.0483 C   0  0  0  0  0  0  0  0  0  0  0  0
    7.9440   -6.7864   15.3207 F   0  0  0  0  0  0  0  0  0  0  0  0
    9.0577   -8.0080   17.4025 I   0  0  0  0  0  0  0  0  0  0  0  0
    4.2055   -8.7799   17.9617 Se  0  0  0  0  0  0  0  0  0  0  0  0
   12.0635   -4.3415   22.2930 C   0  0  0  0  0  0  0  0  0  0  0  0
    1.1663   -8.7701   14.1466 N   0  0  0  0  0  0  0  0  0  0  0  0
    3.1950   -8.9436   17.1543 C   0  0  0  0  0  0  0  0  0  0  0  0
    2.2271  -10.2915   16.1351 C   0  0  0  0  0  0  0  0  0  0  0  0
   11.0272   -2.6812   23.2682 C   0  0  0  0  0  0  0  0  0  0  0  0
    1.0374   -9.6767   15.7680 O   0  0  0  0  0  0  0  0  0  0  0  0
    3.9309   -8.1023   16.3295 C   0  0  0  0  0  0  0  0  0  0  0  0
    4.7544   -8.1680   17.0751 C   0  0  0  0  0  0  0  0  0  0  0  0
   11.6438   -3.1957   19.0159 Cl  0  0  0  0  0  0  0  0  0  0  0  0
   11.0212   -4.5604   18.1721 He  0  0  0  0  0  0  0  0  0  0  0  0
   10.3001   -4.1679   15.7296 He  0  0  0  0  0  0  0  0  0  0  0  0
   10.9331   -3.3396   19.0921 He  0  0  0  0  0  0  0  0  0  0  0  0
    3.5860   -9.0762   17.5257 He  0  0  0  0  0  0  0  0  0  0  0  0
   11.0148   -3.4030   24.7674 He  0  0  0  0  0  0  0  0  0  0  0  0
   10.7544   -2.9130   24.1698 He  0  0  0  0  0  0  0  0  0  0  0  0
    6.3560   -8.6488   14.2990 He  0  0  0  0  0  0  0  0  0  0  0  0
   10.9992   -4.3338   25.5329 He  0  0  0  0  0  0  0  0  0  0  0  0
   11.0703   -5.0053   20.9533 He  0  0  0  0  0  0  0  0  0  0  0  0
  1  2  3  0
  1  3  2  0
  1  6  1  0
  1 10  1  0
  1 20  4  0
  2  5  2  0
  2  8  2  0
  2 11  4  0
  2 12  1  0
  2 15  4  0
  2 16  3  0
  2 18  3  0
  3  4  3  0
  3  7  4  0
  3  9  4  0
  3 10  4  0
  3 12  4  0
  3 17  4  0
  4 12  1  0
  4 13  3  0
  4 20  3  0
  5  6  3  0
  5 10  1  0
  5 12  4  0
  5 15  3  0
  5 16  3  0
  5 19  1  0
  6  8  2  0
  6 10  4  0
  6 13  3  0
  6 14  1  0
  6 15  3  0
  7  8  2  0
  7 14  2  0
  7 17  2  0
  8 10  3  0
  9 20  3  0
 10 11  2  0
 10 13  4  0
 11 12  4  0
 11 15  2  0
 11 19  3  0
 12 16  1  0
 12 19  4  0
 13 14  2  0
 13 20  2  0
 14 16  1  0
 14 19  3  0
 16 17  1  0
M  END
$$$$

 Created by Python create_sdf_string function

 29 22  0  0  0  0  0  0  0  0999 V2000
   10.6103   -4.4640   18.1082 C   0  0  0  0  0  0  0  0  0  0  0  0
   11.3695   -4.8539   23.2720 C   0  0  0  0  0  0  0  0  0  0  0  0
    7.5908   -7.8571   16.2544 C   0  0  0  0  0  0  0  0  0  0  0  0
    8.7358   -6.5861   17.4058 C   0  0  0  0  0  0  0  0  0  0  0  0
    9.3438   -6.3850   17.8152 C   0  0  0  0  0  0  0  0  0  0  0  0
   11.4032   -3.6766   21.2829 C   0  0  0  0  0  0  0  0  0  0  0  0
   10.8471   -3.9108   17.0044 C   0  0  0  0  0  0  0  0  0  0  0  0
    6.8144   -8.1716   16.7483 C   0  0  0  0  0  0  0  0  0  0  0  0
   10.1735   -6.0852   19.0750 C   0  0  0  0  0  0  0  0  0  0  0  0
    9.8294   -4.6318   16.4319 C   0  0  0  0  0  0  0  0  0  0  0  0
    7.9910   -6.5903   15.9894 C   0  0  0  0  0  0  0  0  0  0  0  0
    8.8684   -7.6851   17.7284 C   0  0  0  0  0  0  0  0  0  0  0  0
   10.9843   -4.0798   19.0393 C   0  0  0  0  0  0  0  0  0  0  0  0
    3.0059   -9.5273   17.4390 C   0  0  0  0  0  0  0  0  0  0  0  0
   10.7771   -3.3390   24.9101 C   0  0  0  0  0  0  0  0  0  0  0  0
    4.4762   -8.9485   17.6184 C   0  0  0  0  0  0  0  0  0  0  0  0
   11.2465   -4.0132   22.4531 C   0  0  0  0  0  0  0  0  0  0  0  0
    1.4390   -9.1371   14.8333 O   0  0  0  0  0  0  0  0  0  0  0  0
    3.2042   -8.9233   16.1355 C   0  0  0  0  0  0  0  0  0  0  0  0
    2.2343   -9.3327   16.4739 C   0  0  0  0  0  0  0  0  0  0  0  0
   10.6571   -2.7012   24.3230 C   0  0  0  0  0  0  0  0  0  0  0  0
   10.8027   -2.6758   23.1475 C   0  0  0  0  0  0  0  0  0  0  0  0
    0.9235   -9.7419   16.0448 O   0  0  0  0  0  0  0  0  0  0  0  0
    4.2034   -8.4973   15.6134 C   0  0  0  0  0  0  0  0  0  0  0  0
    6.0375   -8.0559   15.6225 C   0  0  0  0  0  0  0  0  0  0  0  0
    4.9929   -8.5783   16.7734 C   0  0  0  0  0  0  0  0  0  0  0  0
   11.1405   -4.4896   24.7708 C   0  0  0  0  0  0  0  0  0  0  0  0
   11.1476   -3.0497   19.0065 N   0  0  0  0  0  0  0  0  0  0  0  0
   11.1443   -4.7074   20.5173 C   0  0  0  0  0  0  0  0  0  0  0  0
  1  7  4  0
  2 17  4  0
  2 27  4  0
  3  8  4  0
  3 11  4  0
  4  5  4  0
  4 11  4  0
  4 12  4  0
  5  9  4  0
  6 17  4  0
  6 29  4  0
  7 10  4  0
 13 28  4  0
 13 29  1  0
 14 16  4  0
 14 20  4  0
 15 21  4  0
 15 27  4  0
 16 26  4  0
 19 24  4  0
 21 22  4  0
 25 26  1  0
M  END
$$$$

 Created by Python create_sdf_string function

 29 72  0  0  0  0  0  0  0  0999 V2000
   11.0639   -5.7932   17.9518 C   0  0  0  0  0  0  0  0  0  0  0  0
   11.6367   -3.9305   23.1558 C   0  0  0  0  0  0  0  0  0  0  0  0
    9.5050   -7.5159   18.1494 F   0  0  0  0  0  0  0  0  0  0  0  0
   10.6107   -3.7091   21.6367 C   0  0  0  0  0  0  0  0  0  0  0  0
   12.1931   -3.3930   17.4964 C   0  0  0  0  0  0  0  0  0  0  0  0
    9.2975   -5.2170   19.9077 C   0  0  0  0  0  0  0  0  0  0  0  0
    9.3358   -4.1056   15.8539 C   0  0  0  0  0  0  0  0  0  0  0  0
    6.5814   -6.3308   15.7866 F   0  0  0  0  0  0  0  0  0  0  0  0
    8.7173   -8.4094   18.8761 C   0  0  0  0  0  0  0  0  0  0  0  0
    9.9512   -4.0959   20.2880 C   0  0  0  0  0  0  0  0  0  0  0  0
    3.8835   -9.6244   16.3629 C   0  0  0  0  0  0  0  0  0  0  0  0
    4.0757   -9.0444   17.8419 C   0  0  0  0  0  0  0  0  0  0  0  0
   12.4078   -4.3316   22.6104 C   0  0  0  0  0  0  0  0  0  0  0  0
    2.6514   -9.2478   16.4319 C   0  0  0  0  0  0  0  0  0  0  0  0
    2.5332   -8.7312   15.5008 F   0  0  0  0  0  0  0  0  0  0  0  0
   11.4527   -1.8818   25.0637 C   0  0  0  0  0  0  0  0  0  0  0  0
    1.6351  -10.4630   16.3007 C   0  0  0  0  0  0  0  0  0  0  0  0
    3.9215   -9.5803   15.5302 F   0  0  0  0  0  0  0  0  0  0  0  0
    5.8521   -7.7023   14.5444 S   0  0  0  0  0  0  0  0  0  0  0  0
    5.5354   -9.4358   16.5800 P   0  0  0  0  0  0  0  0  0  0  0  0
   10.9137   -3.4337   19.6538 N   0  0  0  0  0  0  0  0  0  0  0  0
   11.7929   -5.8501   20.8077 C   0  0  0  0  0  0  0  0  0  0  0  0
    7.8213   -6.9074   16.1587 He  0  0  0  0  0  0  0  0  0  0  0  0
    8.0936   -7.3328   17.6830 He  0  0  0  0  0  0  0  0  0  0  0  0
    7.1825   -7.9036   17.5139 He  0  0  0  0  0  0  0  0  0  0  0  0
    9.2832   -3.6650   25.6765 He  0  0  0  0  0  0  0  0  0  0  0  0
    2.1555   -8.8356   13.9371 He  0  0  0  0  0  0  0  0  0  0  0  0
   13.0935   -3.1009   24.2075 He  0  0  0  0  0  0  0  0  0  0  0  0
   10.9633   -4.7489   24.4208 He  0  0  0  0  0  0  0  0  0  0  0  0
  1  6  3  0
  1  8  2  0
  1  9  4  0
  1 10  3  0
  1 13  1  0
  1 20  4  0
  1 22  2  0
  2  5  1  0
  2 13  4  0
  3 10  4  0
  3 11  2  0
  3 12  3  0
  3 13  3  0
  3 17  4  0
  3 21  2  0
  4 13  4  0
  4 18  2  0
  4 20  1  0
  4 22  2  0
  5  6  4  0
  5  7  3  0
  5 14  3  0
  5 17  4  0
  5 20  3  0
  6  7  4  0
  6 11  3  0
  6 12  3  0
  6 14  4  0
  6 18  4  0
  7  9  1  0
  7 16  2  0
  8  9  1  0
  8 10  4  0
  8 15  3  0
  8 16  4  0
  8 18  2  0
  8 21  2  0
  9 10  4  0
  9 12  4  0
  9 13  1  0
  9 14  2  0
  9 20  4  0
  9 21  3  0
 10 11  4  0
 10 14  2  0
 10 15  4  0
 10 16  2  0
 10 18  3  0
 10 22  1  0
 11 12  3  0
 11 15  4  0
 11 17  1  0
 11 20  1  0
 12 14  4  0
 12 15  1  0
 12 16  3  0
 12 20  4  0
 12 22  4  0
 13 18  2  0
 13 20  2  0
 14 17  3  0
 14 18  4  0
 14 22  3  0
 15 19  3  0
 15 21  2  0
 16 19  4  0
 16 20  3  0
 17 18  4  0
 18 20  2  0
 18 21  1  0
 19 20  3  0
 19 21  4  0
M  END
$$$$

 Created by Python create_sdf_string function

 29 26  0  0  0  0  0  0  0  0999 V2000
   10.5148   -5.6012   18.6034 C   0  0  0  0  0  0  0  0  0  0  0  0
   11.5703   -4.0433   23.5188 C   0  0  0  0  0  0  0  0  0  0  0  0
    7.7053   -6.7969   16.5094 C   0  0  0  0  0  0  0  0  0  0  0  0
    8.6141   -6.9293   17.4474 C   0  0  0  0  0  0  0  0  0  0  0  0
    9.3070   -7.3704   18.1614 C   0  0  0  0  0  0  0  0  0  0  0  0
   11.1192   -3.9793   21.5030 C   0  0  0  0  0  0  0  0  0  0  0  0
   10.8687   -3.5704   18.0166 C   0  0  0  0  0  0  0  0  0  0  0  0
    6.9471   -8.2284   17.2905 C   0  0  0  0  0  0  0  0  0  0  0  0
   10.0128   -5.2002   18.3393 C   0  0  0  0  0  0  0  0  0  0  0  0
    9.3835   -4.7375   16.5230 C   0  0  0  0  0  0  0  0  0  0  0  0
    7.2249   -6.5633   15.6973 C   0  0  0  0  0  0  0  0  0  0  0  0
    8.3447   -7.8344   18.0189 C   0  0  0  0  0  0  0  0  0  0  0  0
   10.8421   -4.3075   20.1607 C   0  0  0  0  0  0  0  0  0  0  0  0
    4.2663   -8.9321   16.5061 C   0  0  0  0  0  0  0  0  0  0  0  0
   10.2024   -3.5405   25.1529 C   0  0  0  0  0  0  0  0  0  0  0  0
    4.3180   -9.3228   17.3643 C   0  0  0  0  0  0  0  0  0  0  0  0
   11.6462   -4.0400   22.6409 C   0  0  0  0  0  0  0  0  0  0  0  0
    1.9068   -8.9984   14.6729 O   0  0  0  0  0  0  0  0  0  0  0  0
    2.7264   -9.6824   17.0625 C   0  0  0  0  0  0  0  0  0  0  0  0
    2.9481   -9.0248   15.7352 C   0  0  0  0  0  0  0  0  0  0  0  0
   11.3259   -2.4787   24.9363 C   0  0  0  0  0  0  0  0  0  0  0  0
   11.9746   -2.8422   24.1375 C   0  0  0  0  0  0  0  0  0  0  0  0
    1.7734   -9.5680   16.6460 C   0  0  0  0  0  0  0  0  0  0  0  0
    3.4504   -8.8576   15.5756 C   0  0  0  0  0  0  0  0  0  0  0  0
    6.0356   -7.2329   15.2489 C   0  0  0  0  0  0  0  0  0  0  0  0
    5.9086   -8.3994   16.7414 C   0  0  0  0  0  0  0  0  0  0  0  0
   10.7175   -4.1758   24.5515 C   0  0  0  0  0  0  0  0  0  0  0  0
   10.8245   -3.4721   19.7726 N   0  0  0  0  0  0  0  0  0  0  0  0
   11.2086   -5.2415   20.4045 C   0  0  0  0  0  0  0  0  0  0  0  0
  1  9  4  0
  1 29  4  0
  2 17  4  0
  2 22  4  0
  2 27  4  0
  3  4  4  0
  3 11  4  0
  4  5  4  0
  4 12  4  0
  6 17  4  0
  7 28  4  0
  8 12  4  0
  8 26  1  0
  9 10  4  0
 11 25  4  0
 13 28  4  0
 13 29  4  0
 14 16  4  0
 14 20  4  0
 14 26  1  0
 15 21  4  0
 15 27  4  0
 16 19  4  0
 19 23  4  0
 20 24  4  0
 21 22  4  0
M  END
$$$$

 Created by Python create_sdf_string function

 29 62  0  0  0  0  0  0  0  0999 V2000
   10.5646   -3.8431   24.1435 C   0  0  0  0  0  0  0  0  0  0  0  0
    8.4736   -5.7492   16.4541 S   0  0  0  0  0  0  0  0  0  0  0  0
    9.5117   -7.5963   17.5086 C   0  0  0  0  0  0  0  0  0  0  0  0
    9.8400   -4.5722   16.6435 C   0  0  0  0  0  0  0  0  0  0  0  0
    6.8302   -7.0274   16.6730 C   0  0  0  0  0  0  0  0  0  0  0  0
   10.4833   -5.5927   18.5900 C   0  0  0  0  0  0  0  0  0  0  0  0
    9.8623   -4.2366   17.0429 O   0  0  0  0  0  0  0  0  0  0  0  0
    7.0394   -6.5568   16.7306 C   0  0  0  0  0  0  0  0  0  0  0  0
    8.8581   -7.4365   17.2158 C   0  0  0  0  0  0  0  0  0  0  0  0
   11.0589   -3.9206   20.0686 C   0  0  0  0  0  0  0  0  0  0  0  0
    3.9859   -8.1012   17.3609 C   0  0  0  0  0  0  0  0  0  0  0  0
    3.7541   -8.5323   17.7809 S   0  0  0  0  0  0  0  0  0  0  0  0
   11.7122   -4.1873   23.1988 C   0  0  0  0  0  0  0  0  0  0  0  0
    3.2811   -8.7125   15.7671 O   0  0  0  0  0  0  0  0  0  0  0  0
   11.2216   -2.8313   25.9839 C   0  0  0  0  0  0  0  0  0  0  0  0
   10.5008   -1.4152   24.7265 N   0  0  0  0  0  0  0  0  0  0  0  0
    2.1923  -10.6806   16.7476 C   0  0  0  0  0  0  0  0  0  0  0  0
    3.0943   -8.7833   15.2750 C   0  0  0  0  0  0  0  0  0  0  0  0
   11.8059   -5.3439   23.8073 C   0  0  0  0  0  0  0  0  0  0  0  0
   11.1923   -4.5246   20.0680 N   0  0  0  0  0  0  0  0  0  0  0  0
   11.3507   -4.8961   20.4460 C   0  0  0  0  0  0  0  0  0  0  0  0
   10.2786   -5.0997   17.6104 He  0  0  0  0  0  0  0  0  0  0  0  0
    7.4452   -6.6687   16.5386 He  0  0  0  0  0  0  0  0  0  0  0  0
   10.7540   -3.1035   22.4099 He  0  0  0  0  0  0  0  0  0  0  0  0
    9.3035   -3.6749   24.7584 He  0  0  0  0  0  0  0  0  0  0  0  0
    2.4513   -9.2744   17.7514 He  0  0  0  0  0  0  0  0  0  0  0  0
    1.6981   -7.8354   15.4879 He  0  0  0  0  0  0  0  0  0  0  0  0
    6.0868   -7.6319   15.7005 He  0  0  0  0  0  0  0  0  0  0  0  0
    5.8286   -7.0567   17.0815 He  0  0  0  0  0  0  0  0  0  0  0  0
  1  4  3  0
  1 10  3  0
  1 12  2  0
  1 13  4  0
  1 14  2  0
  1 15  2  0
  1 19  1  0
  1 20  2  0
  1 21  3  0
  2  8  4  0
  2 13  3  0
  2 14  2  0
  2 18  1  0
  2 19  3  0
  2 20  1  0
  3 12  2  0
  3 15  1  0
  3 20  1  0
  3 21  2  0
  4 10  3  0
  4 13  4  0
  4 16  1  0
  4 17  2  0
  4 18  2  0
  4 21  1  0
  5 15  1  0
  5 16  2  0
  6  7  4  0
  6 11  2  0
  6 19  2  0
  7 11  3  0
  7 13  3  0
  7 18  1  0
  7 21  1  0
  8 11  1  0
  8 16  2  0
  8 17  4  0
  9 10  1  0
  9 11  4  0
  9 15  2  0
  9 16  3  0
  9 18  2  0
 10 14  4  0
 10 17  1  0
 10 20  4  0
 10 21  4  0
 11 14  4  0
 12 14  1  0
 12 17  2  0
 13 16  4  0
 13 19  1  0
 14 15  1  0
 15 16  4  0
 15 17  4  0
 15 19  4  0
 15 21  4  0
 16 19  1  0
 17 19  2  0
 17 20  1  0
 17 21  2  0
 18 19  4  0
 20 21  1  0
M  END
$$$$

 Created by Python create_sdf_string function

 29 27  0  0  0  0  0  0  0  0999 V2000
   10.0404   -5.5075   18.0052 N   0  0  0  0  0  0  0  0  0  0  0  0
   11.0307   -4.0076   24.0651 C   0  0  0  0  0  0  0  0  0  0  0  0
    8.5316   -5.4674   16.2530 C   0  0  0  0  0  0  0  0  0  0  0  0
    8.2293   -6.7708   16.7008 C   0  0  0  0  0  0  0  0  0  0  0  0
    9.4958   -7.1969   17.9699 C   0  0  0  0  0  0  0  0  0  0  0  0
   11.0701   -3.3177   22.0991 C   0  0  0  0  0  0  0  0  0  0  0  0
    9.7905   -4.5927   16.9894 C   0  0  0  0  0  0  0  0  0  0  0  0
    6.3095   -7.6178   16.6822 C   0  0  0  0  0  0  0  0  0  0  0  0
   10.5785   -5.2178   18.7190 C   0  0  0  0  0  0  0  0  0  0  0  0
   10.4325   -3.8043   17.1729 O   0  0  0  0  0  0  0  0  0  0  0  0
    7.2519   -6.7380   16.2918 C   0  0  0  0  0  0  0  0  0  0  0  0
    8.8800   -7.5883   17.4404 C   0  0  0  0  0  0  0  0  0  0  0  0
   10.9377   -3.9373   20.4828 C   0  0  0  0  0  0  0  0  0  0  0  0
    4.4591   -8.0826   16.7628 C   0  0  0  0  0  0  0  0  0  0  0  0
   10.1603   -3.5056   25.3389 C   0  0  0  0  0  0  0  0  0  0  0  0
    3.4840   -9.3469   17.5983 C   0  0  0  0  0  0  0  0  0  0  0  0
   11.0392   -3.8997   23.1281 C   0  0  0  0  0  0  0  0  0  0  0  0
    3.7799   -8.4849   16.4000 C   0  0  0  0  0  0  0  0  0  0  0  0
    2.4835   -9.7691   17.4059 C   0  0  0  0  0  0  0  0  0  0  0  0
    1.9236   -8.7445   15.4406 C   0  0  0  0  0  0  0  0  0  0  0  0
   10.5795   -2.9965   25.3268 C   0  0  0  0  0  0  0  0  0  0  0  0
   10.4249   -2.0050   24.5501 N   0  0  0  0  0  0  0  0  0  0  0  0
    1.4715   -9.7932   16.8823 C   0  0  0  0  0  0  0  0  0  0  0  0
    2.6537   -8.4195   15.5144 C   0  0  0  0  0  0  0  0  0  0  0  0
    6.3130   -7.6077   15.7224 C   0  0  0  0  0  0  0  0  0  0  0  0
    5.5551   -7.5090   17.4483 C   0  0  0  0  0  0  0  0  0  0  0  0
   11.5394   -4.9304   23.5714 C   0  0  0  0  0  0  0  0  0  0  0  0
   10.8462   -4.6151   20.0553 N   0  0  0  0  0  0  0  0  0  0  0  0
   11.1789   -4.6641   20.8073 C   0  0  0  0  0  0  0  0  0  0  0  0
  1  5  1  0
  1  7  1  0
  1  9  4  0
  2 17  4  0
  2 27  1  0
  3  4  4  0
  3 11  4  0
  4 12  1  0
  5 12  4  0
  6 13  4  0
  6 17  4  0
  7 10  2  0
  8 25  1  0
  8 26  4  0
  9 28  1  0
 13 28  4  0
 13 29  4  0
 14 18  4  0
 14 26  4  0
 15 21  4  0
 16 19  4  0
 17 27  1  0
 19 23  4  0
 20 23  4  0
 20 24  4  0
 21 22  4  0
 28 29  1  0
M  END
$$$$

 Created by Python create_sdf_string function

 29 40  0  0  0  0  0  0  0  0999 V2000
    9.6022   -6.4411   18.3322 N   0  0  0  0  0  0  0  0  0  0  0  0
   11.0918   -4.8396   24.5152 O   0  0  0  0  0  0  0  0  0  0  0  0
    7.9398   -6.6167   16.8095 C   0  0  0  0  0  0  0  0  0  0  0  0
    9.4837   -7.0965   16.9329 C   0  0  0  0  0  0  0  0  0  0  0  0
   12.0969   -3.3895   21.8789 C   0  0  0  0  0  0  0  0  0  0  0  0
    6.3022   -6.5920   16.5867 C   0  0  0  0  0  0  0  0  0  0  0  0
   10.0663   -5.4515   19.1345 C   0  0  0  0  0  0  0  0  0  0  0  0
    6.8345   -7.3734   15.8577 O   0  0  0  0  0  0  0  0  0  0  0  0
   10.2831   -4.4604   21.3311 Cl  0  0  0  0  0  0  0  0  0  0  0  0
   10.9471   -3.0929   24.9489 F   0  0  0  0  0  0  0  0  0  0  0  0
    2.3063   -9.8430   16.6562 C   0  0  0  0  0  0  0  0  0  0  0  0
   11.1589   -2.7376   23.7833 C   0  0  0  0  0  0  0  0  0  0  0  0
    2.1644   -9.9233   17.7545 F   0  0  0  0  0  0  0  0  0  0  0  0
    0.9767  -10.8401   16.6321 C   0  0  0  0  0  0  0  0  0  0  0  0
    6.2241   -7.4528   16.2984 C   0  0  0  0  0  0  0  0  0  0  0  0
    6.0716   -7.5736   17.7376 S   0  0  0  0  0  0  0  0  0  0  0  0
   10.5904   -6.3625   18.1710 C   0  0  0  0  0  0  0  0  0  0  0  0
   11.6912   -3.8259   20.2553 C   0  0  0  0  0  0  0  0  0  0  0  0
    8.7427   -5.8955   16.7811 He  0  0  0  0  0  0  0  0  0  0  0  0
    9.7315   -3.8349   15.9508 He  0  0  0  0  0  0  0  0  0  0  0  0
   11.1561   -3.7248   17.0652 He  0  0  0  0  0  0  0  0  0  0  0  0
    9.0672   -7.8532   18.6985 He  0  0  0  0  0  0  0  0  0  0  0  0
    3.7371   -7.5947   16.3445 He  0  0  0  0  0  0  0  0  0  0  0  0
    4.4848   -8.7416   17.1895 He  0  0  0  0  0  0  0  0  0  0  0  0
    1.7047   -8.7512   15.4443 He  0  0  0  0  0  0  0  0  0  0  0  0
   11.1123   -2.4532   25.9770 He  0  0  0  0  0  0  0  0  0  0  0  0
   10.0912   -2.4100   24.3224 He  0  0  0  0  0  0  0  0  0  0  0  0
    2.9618   -8.0557   14.7643 He  0  0  0  0  0  0  0  0  0  0  0  0
   11.8162   -4.0330   22.9260 He  0  0  0  0  0  0  0  0  0  0  0  0
  1  4  1  0
  1  9  2  0
  1 11  3  0
  1 14  3  0
  1 15  3  0
  2 10  4  0
  2 13  4  0
  3  7  4  0
  3 10  1  0
  3 13  1  0
  3 16  1  0
  4  5  4  0
  4 14  4  0
  4 15  4  0
  4 16  4  0
  5  6  3  0
  5  8  3  0
  5  9  4  0
  5 10  3  0
  5 12  4  0
  5 14  2  0
  5 18  4  0
  6 10  1  0
  7 14  3  0
  7 16  4  0
  8 12  4  0
  8 18  4  0
  9 13  2  0
  9 15  2  0
  9 17  4  0
  9 18  4  0
 10 17  2  0
 11 13  4  0
 11 14  4  0
 11 18  4  0
 12 16  2  0
 13 14  4  0
 13 16  3  0
 14 15  2  0
 14 18  3  0
M  END
$$$$

 Created by Python create_sdf_string function

 29 27  0  0  0  0  0  0  0  0999 V2000
    9.7544   -5.7616   17.7793 N   0  0  0  0  0  0  0  0  0  0  0  0
   11.3139   -4.3762   24.4103 C   0  0  0  0  0  0  0  0  0  0  0  0
    8.4598   -6.0164   16.2844 C   0  0  0  0  0  0  0  0  0  0  0  0
    7.7669   -7.0799   17.0721 C   0  0  0  0  0  0  0  0  0  0  0  0
    9.4406   -6.9043   17.6321 C   0  0  0  0  0  0  0  0  0  0  0  0
   11.1869   -3.4425   21.6399 C   0  0  0  0  0  0  0  0  0  0  0  0
    9.9200   -4.5546   16.6520 C   0  0  0  0  0  0  0  0  0  0  0  0
    5.7143   -7.5993   16.3762 C   0  0  0  0  0  0  0  0  0  0  0  0
   10.5667   -5.4690   19.3499 C   0  0  0  0  0  0  0  0  0  0  0  0
   10.7170   -3.9011   17.5032 O   0  0  0  0  0  0  0  0  0  0  0  0
    6.9002   -7.2863   15.7964 C   0  0  0  0  0  0  0  0  0  0  0  0
    9.0532   -7.7405   18.0814 C   0  0  0  0  0  0  0  0  0  0  0  0
   10.8710   -4.4797   21.0666 C   0  0  0  0  0  0  0  0  0  0  0  0
    3.8020   -8.3176   16.4487 C   0  0  0  0  0  0  0  0  0  0  0  0
   10.8037   -3.2650   25.0630 C   0  0  0  0  0  0  0  0  0  0  0  0
    2.1557   -9.6444   17.0759 C   0  0  0  0  0  0  0  0  0  0  0  0
   10.6154   -2.5469   23.1619 C   0  0  0  0  0  0  0  0  0  0  0  0
    4.6825   -8.3068   17.2635 C   0  0  0  0  0  0  0  0  0  0  0  0
    2.2878   -9.9252   17.4042 C   0  0  0  0  0  0  0  0  0  0  0  0
    1.9822   -8.8154   15.4331 C   0  0  0  0  0  0  0  0  0  0  0  0
   10.6813   -2.6857   26.1263 O   0  0  0  0  0  0  0  0  0  0  0  0
   10.3085   -2.1926   24.3492 C   0  0  0  0  0  0  0  0  0  0  0  0
    1.1458   -9.9097   16.6993 C   0  0  0  0  0  0  0  0  0  0  0  0
    2.8535   -8.3202   15.5141 C   0  0  0  0  0  0  0  0  0  0  0  0
    6.2512   -7.4393   15.9876 C   0  0  0  0  0  0  0  0  0  0  0  0
    6.1338   -7.8756   17.8473 C   0  0  0  0  0  0  0  0  0  0  0  0
   11.3568   -4.4158   23.1375 C   0  0  0  0  0  0  0  0  0  0  0  0
   10.4473   -5.1397   18.7065 C   0  0  0  0  0  0  0  0  0  0  0  0
   11.2064   -4.0221   20.2593 C   0  0  0  0  0  0  0  0  0  0  0  0
  1  5  1  0
  1  7  1  0
  1 28  1  0
  2 15  4  0
  2 27  4  0
  3  4  1  0
  3 11  1  0
  4 12  1  0
  5 12  1  0
  6 13  4  0
  6 17  4  0
  6 29  4  0
  7 10  2  0
  8 25  4  0
  9 28  4  0
 10 28  2  0
 11 25  4  0
 13 29  4  0
 14 24  4  0
 15 21  1  0
 15 22  4  0
 16 19  4  0
 16 23  4  0
 17 22  4  0
 18 26  4  0
 19 23  4  0
 20 24  4  0
M  END
$$$$

 Created by Python create_sdf_string function

 29 64  0  0  0  0  0  0  0  0999 V2000
   10.9467   -4.0136   25.0190 P   0  0  0  0  0  0  0  0  0  0  0  0
    7.7843   -6.2959   16.1153 O   0  0  0  0  0  0  0  0  0  0  0  0
    7.9549   -7.6579   16.9478 C   0  0  0  0  0  0  0  0  0  0  0  0
   10.1858   -7.1376   18.3393 C   0  0  0  0  0  0  0  0  0  0  0  0
   12.1714   -4.0333   22.5882 C   0  0  0  0  0  0  0  0  0  0  0  0
   10.0276   -3.2143   16.7117 S   0  0  0  0  0  0  0  0  0  0  0  0
    6.0648   -8.9706   16.0245 N   0  0  0  0  0  0  0  0  0  0  0  0
   10.4020   -5.2837   19.3333 C   0  0  0  0  0  0  0  0  0  0  0  0
    9.8289   -4.6452   17.2404 O   0  0  0  0  0  0  0  0  0  0  0  0
    8.8988   -7.8185   18.0849 C   0  0  0  0  0  0  0  0  0  0  0  0
    3.5777   -7.1359   16.1274 C   0  0  0  0  0  0  0  0  0  0  0  0
    2.7534   -9.6600   16.4668 C   0  0  0  0  0  0  0  0  0  0  0  0
   10.0124   -1.1307   23.4951 C   0  0  0  0  0  0  0  0  0  0  0  0
    4.7074   -7.9218   18.0508 Cl  0  0  0  0  0  0  0  0  0  0  0  0
    2.5118  -10.5631   17.8575 C   0  0  0  0  0  0  0  0  0  0  0  0
    2.4763   -8.7038   16.4520 C   0  0  0  0  0  0  0  0  0  0  0  0
   10.3399   -2.6184   26.6938 O   0  0  0  0  0  0  0  0  0  0  0  0
    0.6719  -11.0278   16.2100 O   0  0  0  0  0  0  0  0  0  0  0  0
    3.8086   -7.8564   16.1782 Se  0  0  0  0  0  0  0  0  0  0  0  0
    6.8375   -7.8983   16.5862 C   0  0  0  0  0  0  0  0  0  0  0  0
    5.6622   -6.8150   18.0240 Br  0  0  0  0  0  0  0  0  0  0  0  0
   12.0074   -3.6977   21.0233 F   0  0  0  0  0  0  0  0  0  0  0  0
   10.6428   -5.6936   17.6263 He  0  0  0  0  0  0  0  0  0  0  0  0
    5.9735   -8.5182   15.9036 He  0  0  0  0  0  0  0  0  0  0  0  0
   11.2682   -4.1132   21.6404 He  0  0  0  0  0  0  0  0  0  0  0  0
   10.5047   -3.5680   24.2765 He  0  0  0  0  0  0  0  0  0  0  0  0
   10.6505   -2.3020   24.3302 He  0  0  0  0  0  0  0  0  0  0  0  0
   11.4273   -4.2511   23.5171 He  0  0  0  0  0  0  0  0  0  0  0  0
   10.6524   -5.3840   18.5777 He  0  0  0  0  0  0  0  0  0  0  0  0
  1  2  4  0
  1  8  2  0
  1  9  1  0
  1 12  4  0
  1 13  4  0
  2  4  4  0
  2  5  4  0
  2  7  2  0
  2  9  3  0
  2 12  4  0
  2 22  2  0
  3  7  3  0
  3 10  2  0
  3 16  1  0
  3 22  3  0
  4  8  1  0
  4 10  1  0
  4 14  4  0
  4 17  2  0
  5  6  4  0
  5  7  2  0
  5  9  4  0
  5 10  4  0
  5 12  4  0
  5 15  2  0
  5 16  2  0
  5 22  4  0
  6  7  3  0
  6 15  2  0
  6 18  3  0
  6 20  2  0
  7  9  1  0
  7 14  4  0
  7 20  2  0
  7 22  2  0
  8  9  3  0
  8 17  3  0
  8 18  4  0
  8 21  3  0
  9 11  4  0
  9 12  1  0
  9 16  1  0
  9 21  3  0
  9 22  3  0
 10 13  3  0
 10 15  1  0
 10 16  4  0
 10 17  1  0
 11 12  3  0
 11 21  1  0
 12 18  2  0
 12 19  2  0
 12 21  2  0
 13 14  1  0
 13 15  2  0
 14 15  3  0
 14 18  3  0
 14 20  2  0
 14 21  2  0
 15 22  3  0
 16 19  4  0
 16 20  2  0
 17 18  3  0
 21 22  1  0
M  END
$$$$

 Created by Python create_sdf_string function

 29 27  0  0  0  0  0  0  0  0999 V2000
   10.0751   -5.5843   18.0392 C   0  0  0  0  0  0  0  0  0  0  0  0
   10.9830   -4.1098   24.6114 C   0  0  0  0  0  0  0  0  0  0  0  0
    8.3248   -6.0931   16.3571 C   0  0  0  0  0  0  0  0  0  0  0  0
    8.1108   -7.4411   17.0053 C   0  0  0  0  0  0  0  0  0  0  0  0
    9.8850   -6.9737   18.4428 C   0  0  0  0  0  0  0  0  0  0  0  0
   11.4281   -3.9044   22.5750 C   0  0  0  0  0  0  0  0  0  0  0  0
   10.0986   -3.8837   16.5755 C   0  0  0  0  0  0  0  0  0  0  0  0
    6.0134   -8.5298   16.1900 N   0  0  0  0  0  0  0  0  0  0  0  0
   10.7779   -5.0622   19.9647 C   0  0  0  0  0  0  0  0  0  0  0  0
    9.5083   -5.0921   16.8670 C   0  0  0  0  0  0  0  0  0  0  0  0
    5.6912   -8.0920   15.8580 C   0  0  0  0  0  0  0  0  0  0  0  0
    8.9796   -7.9472   17.9053 C   0  0  0  0  0  0  0  0  0  0  0  0
   11.1916   -4.3311   21.0715 C   0  0  0  0  0  0  0  0  0  0  0  0
    4.1327   -8.1557   16.3505 C   0  0  0  0  0  0  0  0  0  0  0  0
   10.5100   -3.1330   25.0916 C   0  0  0  0  0  0  0  0  0  0  0  0
    2.0636   -9.7260   16.9722 C   0  0  0  0  0  0  0  0  0  0  0  0
   10.4158   -2.0472   23.1874 C   0  0  0  0  0  0  0  0  0  0  0  0
    5.0035   -8.5480   17.6389 C   0  0  0  0  0  0  0  0  0  0  0  0
    2.5939  -10.1627   17.6951 C   0  0  0  0  0  0  0  0  0  0  0  0
    2.4716   -9.0239   16.1552 C   0  0  0  0  0  0  0  0  0  0  0  0
   10.2349   -2.8846   26.2979 O   0  0  0  0  0  0  0  0  0  0  0  0
   10.2437   -2.2379   23.9507 C   0  0  0  0  0  0  0  0  0  0  0  0
    0.8451  -10.2738   16.8036 O   0  0  0  0  0  0  0  0  0  0  0  0
    3.3269   -8.4523   16.2177 C   0  0  0  0  0  0  0  0  0  0  0  0
    7.0345   -7.9520   16.6583 C   0  0  0  0  0  0  0  0  0  0  0  0
    5.8354   -7.6712   17.9744 C   0  0  0  0  0  0  0  0  0  0  0  0
   11.2561   -4.4261   23.5216 C   0  0  0  0  0  0  0  0  0  0  0  0
   10.7278   -4.7970   18.7074 C   0  0  0  0  0  0  0  0  0  0  0  0
   11.6290   -3.7211   21.3888 C   0  0  0  0  0  0  0  0  0  0  0  0
  1  5  4  0
  1 10  1  0
  1 28  1  0
  2 15  4  0
  2 27  4  0
  3  4  1  0
  3 10  1  0
  4 12  1  0
  4 25  1  0
  5 12  1  0
  6 27  4  0
  6 29  4  0
  7 10  1  0
  8 11  4  0
  9 13  1  0
  9 28  1  0
 11 14  4  0
 13 29  4  0
 14 24  4  0
 15 21  1  0
 15 22  4  0
 16 19  4  0
 16 20  4  0
 16 23  2  0
 17 22  4  0
 18 26  4  0
 20 24  4  0
M  END
$$$$

 Created by Python create_sdf_string function

 29 49  0  0  0  0  0  0  0  0999 V2000
    9.9337   -5.1001   17.8138 Cl  0  0  0  0  0  0  0  0  0  0  0  0
   11.3798   -3.8610   25.4739 S   0  0  0  0  0  0  0  0  0  0  0  0
   10.7597   -7.0795   19.2910 C   0  0  0  0  0  0  0  0  0  0  0  0
   11.2976   -3.5994   22.7967 C   0  0  0  0  0  0  0  0  0  0  0  0
   10.2342   -5.4609   20.0672 C   0  0  0  0  0  0  0  0  0  0  0  0
    8.9159   -5.5236   16.8344 C   0  0  0  0  0  0  0  0  0  0  0  0
    6.0885   -8.7409   15.6489 C   0  0  0  0  0  0  0  0  0  0  0  0
   10.6182   -5.6119   21.1505 C   0  0  0  0  0  0  0  0  0  0  0  0
    9.6659   -3.4893   25.0943 C   0  0  0  0  0  0  0  0  0  0  0  0
    2.2775   -8.9846   16.5293 C   0  0  0  0  0  0  0  0  0  0  0  0
   10.3248   -1.4731   23.8901 Se  0  0  0  0  0  0  0  0  0  0  0  0
    2.1474  -10.6467   17.2224 F   0  0  0  0  0  0  0  0  0  0  0  0
    2.4548   -9.5296   15.8162 C   0  0  0  0  0  0  0  0  0  0  0  0
   10.0386   -2.1647   24.5037 C   0  0  0  0  0  0  0  0  0  0  0  0
    0.7927  -10.1992   17.1847 O   0  0  0  0  0  0  0  0  0  0  0  0
    3.7940   -8.5866   15.0897 C   0  0  0  0  0  0  0  0  0  0  0  0
    6.4555   -8.2999   16.9871 C   0  0  0  0  0  0  0  0  0  0  0  0
    5.8064   -7.3846   18.3900 C   0  0  0  0  0  0  0  0  0  0  0  0
   12.0580   -3.9517   24.0037 C   0  0  0  0  0  0  0  0  0  0  0  0
    9.6058   -5.0227   18.2245 C   0  0  0  0  0  0  0  0  0  0  0  0
   11.9978   -5.1368   21.3506 C   0  0  0  0  0  0  0  0  0  0  0  0
    9.0208   -4.8202   17.1017 He  0  0  0  0  0  0  0  0  0  0  0  0
    8.7482   -7.6423   17.7034 He  0  0  0  0  0  0  0  0  0  0  0  0
   11.3731   -3.0868   16.7361 He  0  0  0  0  0  0  0  0  0  0  0  0
    5.2319   -7.3921   16.7897 He  0  0  0  0  0  0  0  0  0  0  0  0
    8.0776   -8.2091   18.4841 He  0  0  0  0  0  0  0  0  0  0  0  0
    4.1831   -7.5967   15.5268 He  0  0  0  0  0  0  0  0  0  0  0  0
    4.8230   -8.3848   17.3601 He  0  0  0  0  0  0  0  0  0  0  0  0
    9.0076   -3.9073   25.6611 He  0  0  0  0  0  0  0  0  0  0  0  0
  1  2  1  0
  1  6  1  0
  1 11  3  0
  1 12  2  0
  1 16  2  0
  1 20  3  0
  2 13  2  0
  2 17  3  0
  2 18  1  0
  2 19  4  0
  2 21  4  0
  3  5  2  0
  3 20  4  0
  3 21  2  0
  4 14  3  0
  4 21  4  0
  5  7  2  0
  5 11  1  0
  5 12  1  0
  5 13  3  0
  5 15  2  0
  5 20  4  0
  6  7  3  0
  6  9  4  0
  6 12  2  0
  6 16  1  0
  7 10  2  0
  7 18  4  0
  7 20  4  0
  9 14  3  0
  9 21  4  0
 10 12  4  0
 10 13  4  0
 10 14  1  0
 10 15  2  0
 10 18  2  0
 11 14  4  0
 13 14  2  0
 13 17  1  0
 13 21  4  0
 14 16  2  0
 14 17  4  0
 14 21  1  0
 15 21  4  0
 16 20  2  0
 16 21  1  0
 17 18  1  0
 19 21  2  0
 20 21  4  0
M  END
$$$$

 Created by Python create_sdf_string function

 29 28  0  0  0  0  0  0  0  0999 V2000
   10.1357   -4.8311   17.8171 C   0  0  0  0  0  0  0  0  0  0  0  0
   11.0000   -4.0949   25.1224 C   0  0  0  0  0  0  0  0  0  0  0  0
    8.8236   -5.6329   16.6635 C   0  0  0  0  0  0  0  0  0  0  0  0
    8.4494   -7.5566   17.3302 C   0  0  0  0  0  0  0  0  0  0  0  0
   10.0673   -6.8468   19.0518 C   0  0  0  0  0  0  0  0  0  0  0  0
   11.0313   -3.6911   22.8750 C   0  0  0  0  0  0  0  0  0  0  0  0
   10.6103   -3.5232   16.8394 O   0  0  0  0  0  0  0  0  0  0  0  0
    5.5376   -7.8853   15.9300 C   0  0  0  0  0  0  0  0  0  0  0  0
   10.6830   -4.9998   19.8148 C   0  0  0  0  0  0  0  0  0  0  0  0
    9.3336   -5.4604   17.1038 C   0  0  0  0  0  0  0  0  0  0  0  0
    6.1322   -7.9900   15.8099 C   0  0  0  0  0  0  0  0  0  0  0  0
    8.9474   -7.0751   17.9864 C   0  0  0  0  0  0  0  0  0  0  0  0
   10.9828   -5.1430   20.8567 C   0  0  0  0  0  0  0  0  0  0  0  0
    4.2575   -8.4379   16.3771 C   0  0  0  0  0  0  0  0  0  0  0  0
    9.9012   -3.2048   25.3386 C   0  0  0  0  0  0  0  0  0  0  0  0
    2.0976   -9.5133   16.8295 C   0  0  0  0  0  0  0  0  0  0  0  0
   10.0274   -2.1034   23.5473 C   0  0  0  0  0  0  0  0  0  0  0  0
    4.9065   -8.4229   17.5363 C   0  0  0  0  0  0  0  0  0  0  0  0
    2.4508   -9.8532   17.5033 N   0  0  0  0  0  0  0  0  0  0  0  0
    2.1534   -9.2172   15.6000 C   0  0  0  0  0  0  0  0  0  0  0  0
    9.1814   -3.1070   26.0873 O   0  0  0  0  0  0  0  0  0  0  0  0
   10.0300   -2.2699   23.6919 C   0  0  0  0  0  0  0  0  0  0  0  0
    0.8939  -10.0786   17.1070 O   0  0  0  0  0  0  0  0  0  0  0  0
    3.3619   -8.6177   15.4788 C   0  0  0  0  0  0  0  0  0  0  0  0
    6.9765   -7.7792   17.1303 C   0  0  0  0  0  0  0  0  0  0  0  0
    6.1163   -7.9790   18.0675 C   0  0  0  0  0  0  0  0  0  0  0  0
   11.4328   -4.1982   23.8832 C   0  0  0  0  0  0  0  0  0  0  0  0
   10.3812   -5.3162   18.7247 C   0  0  0  0  0  0  0  0  0  0  0  0
   11.5291   -4.3884   21.6149 C   0  0  0  0  0  0  0  0  0  0  0  0
  1  7  1  0
  1 10  1  0
  1 28  4  0
  2 15  4  0
  2 27  4  0
  3 10  4  0
  4 12  1  0
  4 25  1  0
  5 12  4  0
  5 28  4  0
  6 27  4  0
  6 29  1  0
  8 11  4  0
  9 13  1  0
  9 28  4  0
 10 12  4  0
 11 25  4  0
 13 29  1  0
 14 18  4  0
 14 24  4  0
 15 21  1  0
 16 19  4  0
 16 20  4  0
 16 23  2  0
 17 22  4  0
 18 26  4  0
 20 24  4  0
 25 26  4  0
M  END
$$$$

 Created by Python create_sdf_string function

 29 49  0  0  0  0  0  0  0  0999 V2000
   10.7416   -3.9616   18.1557 N   0  0  0  0  0  0  0  0  0  0  0  0
   10.4036   -4.6228   25.8150 N   0  0  0  0  0  0  0  0  0  0  0  0
    8.0160   -7.9124   18.6301 C   0  0  0  0  0  0  0  0  0  0  0  0
   10.8849   -4.6647   23.4938 O   0  0  0  0  0  0  0  0  0  0  0  0
   11.5870   -2.6983   16.6566 Cl  0  0  0  0  0  0  0  0  0  0  0  0
    5.4723   -8.1871   15.8781 C   0  0  0  0  0  0  0  0  0  0  0  0
   10.5983   -4.5090   20.0532 C   0  0  0  0  0  0  0  0  0  0  0  0
    8.9929   -7.0689   19.1080 C   0  0  0  0  0  0  0  0  0  0  0  0
   10.8281   -3.7312   25.2812 C   0  0  0  0  0  0  0  0  0  0  0  0
    2.5393   -9.8681   17.0191 C   0  0  0  0  0  0  0  0  0  0  0  0
    9.8524   -1.9549   23.7347 C   0  0  0  0  0  0  0  0  0  0  0  0
    5.7722   -8.6534   17.9158 C   0  0  0  0  0  0  0  0  0  0  0  0
    3.0350   -9.9723   14.9067 N   0  0  0  0  0  0  0  0  0  0  0  0
    8.5323   -3.3759   25.8742 O   0  0  0  0  0  0  0  0  0  0  0  0
   10.6866   -2.8607   23.7690 B   0  0  0  0  0  0  0  0  0  0  0  0
    0.9643   -9.8940   17.3009 C   0  0  0  0  0  0  0  0  0  0  0  0
    3.0757   -8.3871   14.9593 C   0  0  0  0  0  0  0  0  0  0  0  0
   10.8607   -4.8388   23.4072 O   0  0  0  0  0  0  0  0  0  0  0  0
   11.1836   -4.0955   21.2961 O   0  0  0  0  0  0  0  0  0  0  0  0
    8.2599   -5.4094   16.3693 He  0  0  0  0  0  0  0  0  0  0  0  0
   10.4446   -6.5032   19.1267 He  0  0  0  0  0  0  0  0  0  0  0  0
   10.0418   -4.9257   18.1713 He  0  0  0  0  0  0  0  0  0  0  0  0
    4.9180   -7.9283   16.4641 He  0  0  0  0  0  0  0  0  0  0  0  0
   11.4095   -5.4952   20.5598 He  0  0  0  0  0  0  0  0  0  0  0  0
    3.9596   -8.5045   15.7921 He  0  0  0  0  0  0  0  0  0  0  0  0
    2.6021  -10.1699   17.2773 He  0  0  0  0  0  0  0  0  0  0  0  0
    6.7505   -8.2209   17.7859 He  0  0  0  0  0  0  0  0  0  0  0  0
    6.2756   -7.3445   18.1495 He  0  0  0  0  0  0  0  0  0  0  0  0
   10.8244   -4.4899   19.7590 He  0  0  0  0  0  0  0  0  0  0  0  0
  1  3  3  0
  1  7  2  0
  1  8  3  0
  1 14  2  0
  1 15  4  0
  1 18  3  0
  2  3  2  0
  2  6  3  0
  2  8  2  0
  2 18  4  0
  3  4  3  0
  3  7  3  0
  3  9  4  0
  3 10  4  0
  3 11  3  0
  3 15  2  0
  3 18  2  0
  4 11  4  0
  4 16  3  0
  4 17  4  0
  4 18  2  0
  4 19  1  0
  5 14  3  0
  5 15  1  0
  5 19  2  0
  6 11  2  0
  6 14  1  0
  6 19  1  0
  7  8  1  0
  7 10  2  0
  7 12  1  0
  7 19  3  0
  8 11  3  0
  8 13  2  0
  9 13  4  0
  9 18  3  0
 10 16  2  0
 11 12  2  0
 11 15  4  0
 11 18  1  0
 12 16  2  0
 12 18  2  0
 12 19  4  0
 13 14  1  0
 13 16  3  0
 13 17  2  0
 13 19  3  0
 14 15  1  0
 15 18  2  0
M  END
$$$$

 Created by Python create_sdf_string function

 29 28  0  0  0  0  0  0  0  0999 V2000
   10.4125   -4.1178   17.7093 C   0  0  0  0  0  0  0  0  0  0  0  0
   10.7683   -4.5594   25.2736 C   0  0  0  0  0  0  0  0  0  0  0  0
    8.6873   -5.6589   16.3477 O   0  0  0  0  0  0  0  0  0  0  0  0
    8.2148   -7.3827   17.8462 C   0  0  0  0  0  0  0  0  0  0  0  0
   10.1147   -6.3640   19.2582 C   0  0  0  0  0  0  0  0  0  0  0  0
   10.9339   -3.8872   23.1410 C   0  0  0  0  0  0  0  0  0  0  0  0
   10.8849   -3.2622   16.8148 Cl  0  0  0  0  0  0  0  0  0  0  0  0
    5.7746   -8.0290   16.1134 C   0  0  0  0  0  0  0  0  0  0  0  0
   10.7509   -5.1133   19.7699 C   0  0  0  0  0  0  0  0  0  0  0  0
    9.6568   -5.2210   17.5211 C   0  0  0  0  0  0  0  0  0  0  0  0
    4.8549   -8.5719   16.8613 C   0  0  0  0  0  0  0  0  0  0  0  0
    9.3361   -6.3448   18.2551 C   0  0  0  0  0  0  0  0  0  0  0  0
   11.2598   -5.1006   21.0849 O   0  0  0  0  0  0  0  0  0  0  0  0
    4.2308   -8.5956   16.0325 C   0  0  0  0  0  0  0  0  0  0  0  0
   10.0535   -3.6465   25.4281 C   0  0  0  0  0  0  0  0  0  0  0  0
    2.4592   -9.6684   17.1255 C   0  0  0  0  0  0  0  0  0  0  0  0
    9.9922   -2.5194   23.7520 C   0  0  0  0  0  0  0  0  0  0  0  0
    5.6115   -8.3524   18.1618 C   0  0  0  0  0  0  0  0  0  0  0  0
    2.5425   -9.7807   17.3654 N   0  0  0  0  0  0  0  0  0  0  0  0
    2.0275   -9.2931   15.3919 N   0  0  0  0  0  0  0  0  0  0  0  0
    9.2606   -3.0302   26.1803 O   0  0  0  0  0  0  0  0  0  0  0  0
   10.1686   -2.6875   23.6553 C   0  0  0  0  0  0  0  0  0  0  0  0
    1.2218   -9.9834   16.7955 C   0  0  0  0  0  0  0  0  0  0  0  0
    3.1755   -8.9417   15.5557 C   0  0  0  0  0  0  0  0  0  0  0  0
    7.1196   -7.8084   17.1893 C   0  0  0  0  0  0  0  0  0  0  0  0
    6.5560   -7.8105   18.1785 C   0  0  0  0  0  0  0  0  0  0  0  0
   11.2372   -4.8239   23.8871 C   0  0  0  0  0  0  0  0  0  0  0  0
   10.7921   -4.0032   19.0452 C   0  0  0  0  0  0  0  0  0  0  0  0
   11.3200   -3.9723   21.6786 C   0  0  0  0  0  0  0  0  0  0  0  0
  1  7  1  0
  1 10  4  0
  1 28  4  0
  2 15  4  0
  2 27  4  0
  3 10  1  0
  4 12  1  0
  4 25  1  0
  5  9  4  0
  5 12  4  0
  6 22  4  0
  6 27  4  0
  6 29  1  0
  8 11  4  0
  8 14  4  0
  8 25  4  0
  9 13  1  0
  9 28  4  0
 10 12  4  0
 11 18  4  0
 13 29  1  0
 14 24  4  0
 15 21  1  0
 16 19  4  0
 16 23  4  0
 17 22  4  0
 18 26  4  0
 20 24  4  0
M  END
$$$$

 Created by Python create_sdf_string function

 29 42  0  0  0  0  0  0  0  0999 V2000
   10.3509   -3.6916   18.5692 C   0  0  0  0  0  0  0  0  0  0  0  0
    8.5542   -5.9500   16.4268 C   0  0  0  0  0  0  0  0  0  0  0  0
   10.3299   -5.7520   19.0451 C   0  0  0  0  0  0  0  0  0  0  0  0
   11.4983   -3.4758   17.4518 F   0  0  0  0  0  0  0  0  0  0  0  0
    6.1395   -7.8537   16.2285 C   0  0  0  0  0  0  0  0  0  0  0  0
   11.3478   -4.1327   19.9838 C   0  0  0  0  0  0  0  0  0  0  0  0
    9.2105   -4.9011   16.0574 C   0  0  0  0  0  0  0  0  0  0  0  0
    5.0818   -9.1907   16.6269 C   0  0  0  0  0  0  0  0  0  0  0  0
    8.9941   -7.3104   18.2919 C   0  0  0  0  0  0  0  0  0  0  0  0
   10.9122   -4.1058   21.6516 O   0  0  0  0  0  0  0  0  0  0  0  0
    3.8469   -9.5539   16.1427 C   0  0  0  0  0  0  0  0  0  0  0  0
   10.9341   -3.8835   25.6510 C   0  0  0  0  0  0  0  0  0  0  0  0
    9.5192   -2.6295   23.7439 C   0  0  0  0  0  0  0  0  0  0  0  0
    6.1867   -8.1289   17.4234 C   0  0  0  0  0  0  0  0  0  0  0  0
    9.7630   -3.4432   25.9037 O   0  0  0  0  0  0  0  0  0  0  0  0
    9.2754   -2.7336   22.9161 N   0  0  0  0  0  0  0  0  0  0  0  0
    0.6357  -11.1175   17.1313 C   0  0  0  0  0  0  0  0  0  0  0  0
    6.3999   -7.6812   17.8011 C   0  0  0  0  0  0  0  0  0  0  0  0
   11.0814   -5.2096   24.3080 Br  0  0  0  0  0  0  0  0  0  0  0  0
   11.0705   -3.8850   20.8336 N   0  0  0  0  0  0  0  0  0  0  0  0
   11.2784   -3.2369   21.2221 N   0  0  0  0  0  0  0  0  0  0  0  0
   11.1291   -3.6091   25.4115 He  0  0  0  0  0  0  0  0  0  0  0  0
    7.8479   -7.1617   17.8937 He  0  0  0  0  0  0  0  0  0  0  0  0
   11.0672   -4.1476   22.9268 He  0  0  0  0  0  0  0  0  0  0  0  0
    2.1259   -9.8550   16.7754 He  0  0  0  0  0  0  0  0  0  0  0  0
    2.5101  -11.0597   17.5613 He  0  0  0  0  0  0  0  0  0  0  0  0
    1.7114  -10.0310   15.0727 He  0  0  0  0  0  0  0  0  0  0  0  0
    2.7775   -9.1651   15.7737 He  0  0  0  0  0  0  0  0  0  0  0  0
    6.4872   -7.3920   17.7740 He  0  0  0  0  0  0  0  0  0  0  0  0
  1  4  1  0
  1  8  2  0
  1  9  4  0
  1 20  4  0
  2  7  1  0
  2 13  1  0
  2 15  3  0
  2 21  3  0
  3  6  4  0
  3  8  3  0
  3 13  4  0
  4  6  3  0
  4  7  2  0
  4 19  2  0
  5  8  1  0
  5 11  4  0
  5 13  1  0
  6  7  4  0
  6  9  2  0
  6 10  3  0
  6 15  2  0
  6 19  3  0
  6 20  4  0
  6 21  2  0
  7  9  4  0
  7 17  3  0
  7 19  1  0
  8 16  2  0
  8 19  3  0
  9 18  2  0
 10 21  1  0
 12 19  4  0
 12 21  4  0
 13 16  4  0
 13 17  3  0
 13 18  1  0
 14 15  2  0
 15 19  1  0
 16 21  1  0
 17 19  2  0
 17 20  2  0
 17 21  2  0
M  END
$$$$

 Created by Python create_sdf_string function

 29 29  0  0  0  0  0  0  0  0999 V2000
   10.5500   -4.1137   18.2697 C   0  0  0  0  0  0  0  0  0  0  0  0
   10.9305   -4.0441   25.0847 C   0  0  0  0  0  0  0  0  0  0  0  0
    8.7188   -5.6212   16.4530 C   0  0  0  0  0  0  0  0  0  0  0  0
    8.0361   -7.1651   17.6067 C   0  0  0  0  0  0  0  0  0  0  0  0
   10.0116   -6.0949   18.9109 C   0  0  0  0  0  0  0  0  0  0  0  0
   10.9470   -3.9221   22.9362 C   0  0  0  0  0  0  0  0  0  0  0  0
   10.6557   -3.6093   17.4215 C   0  0  0  0  0  0  0  0  0  0  0  0
    5.9733   -7.7894   16.5090 C   0  0  0  0  0  0  0  0  0  0  0  0
   10.7566   -4.9137   19.8786 C   0  0  0  0  0  0  0  0  0  0  0  0
    9.3726   -5.0324   16.5561 C   0  0  0  0  0  0  0  0  0  0  0  0
    5.0501   -8.7122   17.0431 C   0  0  0  0  0  0  0  0  0  0  0  0
    9.0355   -6.2896   17.7974 C   0  0  0  0  0  0  0  0  0  0  0  0
   11.2944   -4.3594   21.6843 C   0  0  0  0  0  0  0  0  0  0  0  0
    3.6008   -9.2286   16.6886 C   0  0  0  0  0  0  0  0  0  0  0  0
   10.2346   -3.4029   25.4672 C   0  0  0  0  0  0  0  0  0  0  0  0
    1.8247  -10.1997   17.4338 N   0  0  0  0  0  0  0  0  0  0  0  0
    9.6485   -2.4767   24.3372 C   0  0  0  0  0  0  0  0  0  0  0  0
    6.2546   -8.2319   17.8939 C   0  0  0  0  0  0  0  0  0  0  0  0
    2.9072   -9.9983   17.5270 N   0  0  0  0  0  0  0  0  0  0  0  0
    1.5896   -9.5804   15.6601 C   0  0  0  0  0  0  0  0  0  0  0  0
    9.8795   -3.3451   26.6516 O   0  0  0  0  0  0  0  0  0  0  0  0
   10.0963   -2.7056   23.2291 C   0  0  0  0  0  0  0  0  0  0  0  0
    0.9121  -10.3673   16.9343 C   0  0  0  0  0  0  0  0  0  0  0  0
    2.9343   -9.1073   15.6622 C   0  0  0  0  0  0  0  0  0  0  0  0
    6.9378   -7.3816   17.0057 C   0  0  0  0  0  0  0  0  0  0  0  0
    6.3789   -8.1395   18.0184 C   0  0  0  0  0  0  0  0  0  0  0  0
   11.3572   -4.5589   24.1176 C   0  0  0  0  0  0  0  0  0  0  0  0
   10.9892   -3.8325   19.5153 N   0  0  0  0  0  0  0  0  0  0  0  0
   11.1032   -3.7340   21.0481 N   0  0  0  0  0  0  0  0  0  0  0  0
  1  7  4  0
  1 28  4  0
  2 15  4  0
  2 27  4  0
  3 10  1  0
  4 12  1  0
  4 25  4  0
  5  9  4  0
  5 12  4  0
  6 13  1  0
  6 22  4  0
  6 27  4  0
  8 11  4  0
  8 25  4  0
  9 28  4  0
 10 12  4  0
 11 14  1  0
 11 18  4  0
 13 29  1  0
 14 19  4  0
 14 24  4  0
 15 17  4  0
 15 21  1  0
 16 19  4  0
 16 23  4  0
 17 22  4  0
 18 26  4  0
 20 23  4  0
 20 24  4  0
M  END
$$$$

 Created by Python create_sdf_string function

 29 69  0  0  0  0  0  0  0  0999 V2000
   11.5226   -5.3038   26.3607 F   0  0  0  0  0  0  0  0  0  0  0  0
    8.7433   -4.1076   17.1557 F   0  0  0  0  0  0  0  0  0  0  0  0
    8.3453   -7.4279   17.1043 C   0  0  0  0  0  0  0  0  0  0  0  0
   10.3342   -5.0755   19.2642 S   0  0  0  0  0  0  0  0  0  0  0  0
   11.7637   -3.5395   22.3581 N   0  0  0  0  0  0  0  0  0  0  0  0
   10.6667   -3.1693   17.4736 C   0  0  0  0  0  0  0  0  0  0  0  0
    6.3946   -7.5636   15.8373 C   0  0  0  0  0  0  0  0  0  0  0  0
   10.4377   -5.4537   20.3432 C   0  0  0  0  0  0  0  0  0  0  0  0
    9.9467   -4.9383   16.1061 P   0  0  0  0  0  0  0  0  0  0  0  0
    4.6323   -8.2142   18.0209 C   0  0  0  0  0  0  0  0  0  0  0  0
    9.1158   -7.0175   17.6782 C   0  0  0  0  0  0  0  0  0  0  0  0
   11.4346   -3.7738   22.1470 Cl  0  0  0  0  0  0  0  0  0  0  0  0
   10.4033   -3.3881   25.8891 C   0  0  0  0  0  0  0  0  0  0  0  0
    1.6990  -10.3337   17.7848 N   0  0  0  0  0  0  0  0  0  0  0  0
    2.8842  -10.0250   17.6500 N   0  0  0  0  0  0  0  0  0  0  0  0
    2.3998   -8.9665   16.6930 C   0  0  0  0  0  0  0  0  0  0  0  0
    9.4079   -3.2842   26.5356 P   0  0  0  0  0  0  0  0  0  0  0  0
   10.6400   -2.1291   22.3353 C   0  0  0  0  0  0  0  0  0  0  0  0
    1.4381  -11.1580   17.4508 C   0  0  0  0  0  0  0  0  0  0  0  0
    2.4991   -9.0440   15.7868 C   0  0  0  0  0  0  0  0  0  0  0  0
    6.9004   -6.4970   16.4602 S   0  0  0  0  0  0  0  0  0  0  0  0
    6.8234   -8.0277   17.4239 C   0  0  0  0  0  0  0  0  0  0  0  0
   11.5788   -4.5282   24.1328 C   0  0  0  0  0  0  0  0  0  0  0  0
   11.5433   -3.1581   19.2809 N   0  0  0  0  0  0  0  0  0  0  0  0
   10.5184   -3.7165   21.4366 C   0  0  0  0  0  0  0  0  0  0  0  0
   10.7382   -3.7742   17.3589 He  0  0  0  0  0  0  0  0  0  0  0  0
    3.5848   -8.6891   16.4159 He  0  0  0  0  0  0  0  0  0  0  0  0
    9.1325   -3.3535   24.0042 He  0  0  0  0  0  0  0  0  0  0  0  0
    6.3371   -8.6620   19.1162 He  0  0  0  0  0  0  0  0  0  0  0  0
  1 11  2  0
  1 12  3  0
  1 13  2  0
  1 15  1  0
  1 18  4  0
  1 21  4  0
  1 23  4  0
  1 24  3  0
  2  9  2  0
  2 11  3  0
  2 17  4  0
  2 19  3  0
  2 25  3  0
  3 10  1  0
  3 11  3  0
  3 15  4  0
  4  8  4  0
  4 25  1  0
  5  7  2  0
  5 10  2  0
  5 16  4  0
  5 17  1  0
  5 18  4  0
  5 22  2  0
  6  7  1  0
  6 14  2  0
  6 15  4  0
  6 16  1  0
  6 18  4  0
  6 24  3  0
  7  9  1  0
  7 10  1  0
  7 11  2  0
  7 19  3  0
  7 23  4  0
  8 10  4  0
  8 16  3  0
  8 17  2  0
  8 22  2  0
  9 16  3  0
  9 24  3  0
 10 12  1  0
 10 17  4  0
 10 20  2  0
 11 15  2  0
 11 21  1  0
 12 19  4  0
 12 25  1  0
 13 14  3  0
 13 17  1  0
 14 15  4  0
 14 19  4  0
 14 20  2  0
 14 21  1  0
 14 25  4  0
 15 19  1  0
 15 24  1  0
 16 17  1  0
 16 19  4  0
 16 23  2  0
 16 24  4  0
 16 25  3  0
 17 22  1  0
 18 22  4  0
 19 22  3  0
 19 24  3  0
 19 25  4  0
 21 22  2  0
 22 24  3  0
M  END
$$$$

 Created by Python create_sdf_string function

 29 27  0  0  0  0  0  0  0  0999 V2000
   10.8198   -3.4727   18.1689 C   0  0  0  0  0  0  0  0  0  0  0  0
   11.1363   -4.4524   25.2293 C   0  0  0  0  0  0  0  0  0  0  0  0
    9.3143   -4.9889   16.6467 C   0  0  0  0  0  0  0  0  0  0  0  0
    7.9804   -7.0503   17.0823 C   0  0  0  0  0  0  0  0  0  0  0  0
   10.2877   -5.1986   19.2656 C   0  0  0  0  0  0  0  0  0  0  0  0
   11.0833   -3.7362   22.8413 C   0  0  0  0  0  0  0  0  0  0  0  0
   10.8592   -3.4934   18.1930 C   0  0  0  0  0  0  0  0  0  0  0  0
    6.0938   -7.6064   16.2650 C   0  0  0  0  0  0  0  0  0  0  0  0
   10.3437   -5.2495   19.4590 C   0  0  0  0  0  0  0  0  0  0  0  0
    9.5161   -5.0281   16.4194 O   0  0  0  0  0  0  0  0  0  0  0  0
    5.2071   -8.4520   17.2086 C   0  0  0  0  0  0  0  0  0  0  0  0
    8.8619   -6.6993   17.4029 C   0  0  0  0  0  0  0  0  0  0  0  0
   11.3471   -3.9198   21.4596 O   0  0  0  0  0  0  0  0  0  0  0  0
    3.9752   -8.9456   16.9675 C   0  0  0  0  0  0  0  0  0  0  0  0
   10.1537   -3.4432   25.4899 C   0  0  0  0  0  0  0  0  0  0  0  0
    1.9314  -10.4626   18.0094 N   0  0  0  0  0  0  0  0  0  0  0  0
    9.8545   -2.5110   24.4343 C   0  0  0  0  0  0  0  0  0  0  0  0
    6.1020   -8.5018   18.1984 C   0  0  0  0  0  0  0  0  0  0  0  0
    3.3238   -9.7661   17.7681 N   0  0  0  0  0  0  0  0  0  0  0  0
    1.6384   -9.4957   16.3816 C   0  0  0  0  0  0  0  0  0  0  0  0
    9.4187   -3.3661   26.6694 F   0  0  0  0  0  0  0  0  0  0  0  0
   10.3400   -2.7008   23.2718 C   0  0  0  0  0  0  0  0  0  0  0  0
    1.1246  -10.2557   17.3545 C   0  0  0  0  0  0  0  0  0  0  0  0
    2.6522   -9.0253   16.2357 C   0  0  0  0  0  0  0  0  0  0  0  0
    6.9593   -7.0287   16.3458 C   0  0  0  0  0  0  0  0  0  0  0  0
    7.0056   -8.2071   18.0497 C   0  0  0  0  0  0  0  0  0  0  0  0
   11.4951   -4.5827   23.8874 C   0  0  0  0  0  0  0  0  0  0  0  0
   11.2455   -3.1337   19.4685 N   0  0  0  0  0  0  0  0  0  0  0  0
   10.9512   -4.2824   20.6301 C   0  0  0  0  0  0  0  0  0  0  0  0
  1  7  4  0
  1 28  4  0
  2 15  4  0
  2 27  4  0
  3 10  2  0
  4 12  1  0
  4 25  4  0
  5  9  4  0
  6 13  1  0
  6 22  4  0
  6 27  4  0
  7 28  4  0
  8 11  4  0
  8 25  4  0
 11 14  1  0
 11 18  4  0
 13 29  1  0
 14 19  4  0
 14 24  4  0
 15 17  4  0
 15 21  1  0
 16 19  4  0
 16 23  4  0
 17 22  4  0
 18 26  4  0
 20 23  4  0
 20 24  4  0
M  END
$$$$

 Created by Python create_sdf_string function

 29 67  0  0  0  0  0  0  0  0999 V2000
   10.3878   -3.1851   18.9972 S   0  0  0  0  0  0  0  0  0  0  0  0
   12.0746   -5.1835   24.7298 C   0  0  0  0  0  0  0  0  0  0  0  0
    9.0627   -5.1914   17.4679 N   0  0  0  0  0  0  0  0  0  0  0  0
    8.2948   -7.3790   17.0270 C   0  0  0  0  0  0  0  0  0  0  0  0
   10.5786   -5.4658   18.6650 C   0  0  0  0  0  0  0  0  0  0  0  0
   11.8964   -3.4470   22.9602 C   0  0  0  0  0  0  0  0  0  0  0  0
   11.6216   -4.3419   18.3453 C   0  0  0  0  0  0  0  0  0  0  0  0
    8.5475   -4.7428   15.9155 O   0  0  0  0  0  0  0  0  0  0  0  0
    5.9291   -8.4948   16.9337 C   0  0  0  0  0  0  0  0  0  0  0  0
    8.7217   -6.3421   17.3214 C   0  0  0  0  0  0  0  0  0  0  0  0
   11.9738   -4.7881   21.5744 O   0  0  0  0  0  0  0  0  0  0  0  0
    4.1519   -8.8532   17.0194 C   0  0  0  0  0  0  0  0  0  0  0  0
    9.7648   -2.8107   26.9549 C   0  0  0  0  0  0  0  0  0  0  0  0
    1.6928  -10.8174   18.5181 N   0  0  0  0  0  0  0  0  0  0  0  0
    9.9352   -2.5386   24.2984 C   0  0  0  0  0  0  0  0  0  0  0  0
    5.3552   -8.2270   18.3636 C   0  0  0  0  0  0  0  0  0  0  0  0
    3.2845   -9.5628   17.7949 O   0  0  0  0  0  0  0  0  0  0  0  0
    1.1108   -9.5344   16.6635 C   0  0  0  0  0  0  0  0  0  0  0  0
   10.1296   -2.5780   23.7549 C   0  0  0  0  0  0  0  0  0  0  0  0
    0.8585  -10.2934   17.1784 C   0  0  0  0  0  0  0  0  0  0  0  0
    3.2040   -8.2587   16.6514 C   0  0  0  0  0  0  0  0  0  0  0  0
    7.5418   -6.4099   17.5432 N   0  0  0  0  0  0  0  0  0  0  0  0
    7.0557   -7.8605   17.9748 C   0  0  0  0  0  0  0  0  0  0  0  0
   10.9265   -4.9630   23.6484 P   0  0  0  0  0  0  0  0  0  0  0  0
   12.0088   -3.5405   18.8282 S   0  0  0  0  0  0  0  0  0  0  0  0
    5.6482   -7.9084   16.6552 He  0  0  0  0  0  0  0  0  0  0  0  0
   10.6531   -5.4420   17.9482 He  0  0  0  0  0  0  0  0  0  0  0  0
   10.0026   -3.5282   27.0515 He  0  0  0  0  0  0  0  0  0  0  0  0
   10.6601   -3.7281   21.2849 He  0  0  0  0  0  0  0  0  0  0  0  0
  1  5  3  0
  1  7  4  0
  1 11  2  0
  1 17  2  0
  1 21  3  0
  1 25  4  0
  2 10  2  0
  2 11  1  0
  2 16  1  0
  2 17  1  0
  2 23  4  0
  2 24  3  0
  3  4  4  0
  3 10  3  0
  3 15  3  0
  3 16  1  0
  3 19  1  0
  3 23  4  0
  4  6  4  0
  4  9  2  0
  4 15  2  0
  5 12  1  0
  5 24  4  0
  5 25  2  0
  6  7  1  0
  6  8  2  0
  6 11  1  0
  6 19  4  0
  6 23  1  0
  6 24  4  0
  7 22  4  0
  7 24  2  0
  7 25  2  0
  9 11  4  0
  9 12  4  0
  9 15  4  0
  9 16  4  0
 10 11  3  0
 10 25  4  0
 11 16  4  0
 11 24  4  0
 12 13  1  0
 12 20  4  0
 12 21  4  0
 12 23  4  0
 12 25  2  0
 13 15  1  0
 13 17  3  0
 13 23  2  0
 14 15  4  0
 14 18  2  0
 14 20  4  0
 14 24  1  0
 14 25  1  0
 15 18  4  0
 15 19  4  0
 15 25  1  0
 16 18  2  0
 16 24  2  0
 18 20  4  0
 18 21  4  0
 19 21  2  0
 20 23  2  0
 20 25  4  0
 21 24  2  0
 21 25  3  0
 24 25  1  0
M  END
$$$$

 Created by Python create_sdf_string function

 29 29  0  0  0  0  0  0  0  0999 V2000
   10.8644   -3.4642   18.9281 C   0  0  0  0  0  0  0  0  0  0  0  0
   11.1940   -4.7026   25.2261 C   0  0  0  0  0  0  0  0  0  0  0  0
    9.4739   -5.4241   17.5518 N   0  0  0  0  0  0  0  0  0  0  0  0
    8.1323   -7.1069   16.6023 C   0  0  0  0  0  0  0  0  0  0  0  0
   10.6777   -5.6920   19.0506 C   0  0  0  0  0  0  0  0  0  0  0  0
   10.9923   -3.7396   23.1662 C   0  0  0  0  0  0  0  0  0  0  0  0
   11.0404   -3.8238   18.1082 C   0  0  0  0  0  0  0  0  0  0  0  0
    5.8236   -7.5645   16.4363 C   0  0  0  0  0  0  0  0  0  0  0  0
   10.3196   -5.2838   18.0852 C   0  0  0  0  0  0  0  0  0  0  0  0
    8.3573   -5.0119   15.8569 O   0  0  0  0  0  0  0  0  0  0  0  0
    5.0212   -8.3829   17.2116 C   0  0  0  0  0  0  0  0  0  0  0  0
    8.7676   -5.9512   16.7568 C   0  0  0  0  0  0  0  0  0  0  0  0
   11.5114   -4.1278   21.7841 O   0  0  0  0  0  0  0  0  0  0  0  0
    3.6801   -9.0487   17.1746 C   0  0  0  0  0  0  0  0  0  0  0  0
   10.2081   -3.4142   26.0105 C   0  0  0  0  0  0  0  0  0  0  0  0
    1.9944  -10.5551   18.1515 N   0  0  0  0  0  0  0  0  0  0  0  0
    9.8447   -2.5057   24.7414 C   0  0  0  0  0  0  0  0  0  0  0  0
    5.8563   -8.5484   18.3802 C   0  0  0  0  0  0  0  0  0  0  0  0
    3.3157  -10.0548   18.0218 C   0  0  0  0  0  0  0  0  0  0  0  0
    1.5136   -9.2905   16.4091 C   0  0  0  0  0  0  0  0  0  0  0  0
   10.1933   -3.5684   26.5784 C   0  0  0  0  0  0  0  0  0  0  0  0
   10.2077   -2.6738   23.6003 C   0  0  0  0  0  0  0  0  0  0  0  0
    1.1865  -10.1292   17.3123 C   0  0  0  0  0  0  0  0  0  0  0  0
    2.7663   -8.7095   16.3040 C   0  0  0  0  0  0  0  0  0  0  0  0
    7.0780   -7.3009   17.0331 C   0  0  0  0  0  0  0  0  0  0  0  0
    6.9938   -7.8982   18.2459 C   0  0  0  0  0  0  0  0  0  0  0  0
   11.4585   -4.7059   24.0572 C   0  0  0  0  0  0  0  0  0  0  0  0
   11.3632   -3.8513   18.7049 N   0  0  0  0  0  0  0  0  0  0  0  0
   10.9573   -3.6676   21.1421 C   0  0  0  0  0  0  0  0  0  0  0  0
  1  7  4  0
  1 28  4  0
  2 27  4  0
  3  9  4  0
  3 12  1  0
  4 12  1  0
  4 25  1  0
  5  9  4  0
  6 13  1  0
  6 22  4  0
  6 27  4  0
  7 28  4  0
  8 11  4  0
  8 25  4  0
 10 12  2  0
 11 14  1  0
 11 18  4  0
 13 29  1  0
 14 19  4  0
 14 24  4  0
 15 17  4  0
 15 21  1  0
 16 19  4  0
 16 23  4  0
 17 22  4  0
 18 26  4  0
 20 23  4  0
 20 24  4  0
 25 26  4  0
M  END
$$$$

 Created by Python create_sdf_string function

 29 40  0  0  0  0  0  0  0  0999 V2000
   11.0095   -3.0589   18.8256 N   0  0  0  0  0  0  0  0  0  0  0  0
   10.9603   -4.3654   24.6588 C   0  0  0  0  0  0  0  0  0  0  0  0
    9.3355   -5.3488   18.0492 N   0  0  0  0  0  0  0  0  0  0  0  0
    7.9748   -7.2680   16.9088 C   0  0  0  0  0  0  0  0  0  0  0  0
   10.7031   -5.7371   19.1654 C   0  0  0  0  0  0  0  0  0  0  0  0
   11.8576   -3.3972   18.2703 C   0  0  0  0  0  0  0  0  0  0  0  0
    9.8244   -5.9864   18.8696 P   0  0  0  0  0  0  0  0  0  0  0  0
    8.4487   -5.7107   15.7771 O   0  0  0  0  0  0  0  0  0  0  0  0
    4.8289   -8.4249   17.0905 C   0  0  0  0  0  0  0  0  0  0  0  0
    8.2533   -6.8727   16.9411 C   0  0  0  0  0  0  0  0  0  0  0  0
   11.6818   -4.8680   21.3502 O   0  0  0  0  0  0  0  0  0  0  0  0
    3.2566   -9.6998   17.8379 C   0  0  0  0  0  0  0  0  0  0  0  0
    8.9879   -2.5188   24.8964 C   0  0  0  0  0  0  0  0  0  0  0  0
    5.3469   -8.6403   18.5208 C   0  0  0  0  0  0  0  0  0  0  0  0
    3.3238  -10.1800   17.6722 C   0  0  0  0  0  0  0  0  0  0  0  0
    9.9670   -3.5358   26.7005 C   0  0  0  0  0  0  0  0  0  0  0  0
    9.8515   -1.9643   24.3897 C   0  0  0  0  0  0  0  0  0  0  0  0
    1.7993   -9.4384   17.1373 C   0  0  0  0  0  0  0  0  0  0  0  0
    7.0358   -7.1027   16.3578 Cl  0  0  0  0  0  0  0  0  0  0  0  0
    7.6411   -7.9996   18.6372 N   0  0  0  0  0  0  0  0  0  0  0  0
   10.9488   -5.0679   24.4973 C   0  0  0  0  0  0  0  0  0  0  0  0
   10.4539   -4.8573   19.8938 O   0  0  0  0  0  0  0  0  0  0  0  0
   11.6274   -3.2455   23.7604 He  0  0  0  0  0  0  0  0  0  0  0  0
    4.4686   -7.5314   16.9972 He  0  0  0  0  0  0  0  0  0  0  0  0
    9.9149   -3.3898   26.1900 He  0  0  0  0  0  0  0  0  0  0  0  0
    2.1036  -10.1020   18.3153 He  0  0  0  0  0  0  0  0  0  0  0  0
    1.4299   -8.8446   16.3218 He  0  0  0  0  0  0  0  0  0  0  0  0
    2.8053   -8.3630   17.1693 He  0  0  0  0  0  0  0  0  0  0  0  0
   11.1237   -3.9173   19.5468 He  0  0  0  0  0  0  0  0  0  0  0  0
  1  5  3  0
  1 10  4  0
  1 11  2  0
  1 13  1  0
  2  8  3  0
  2 15  1  0
  2 17  4  0
  2 21  4  0
  4 10  1  0
  4 12  1  0
  4 15  1  0
  4 19  4  0
  4 21  1  0
  4 22  4  0
  5  6  4  0
  5 11  3  0
  5 17  3  0
  5 21  2  0
  6 13  3  0
  6 18  1  0
  7  9  2  0
  7 11  4  0
  7 12  4  0
  7 13  3  0
  8 15  4  0
  9 12  3  0
  9 19  1  0
 10 14  3  0
 10 19  3  0
 11 12  1  0
 11 16  2  0
 12 15  4  0
 14 20  4  0
 15 21  1  0
 16 17  4  0
 16 22  1  0
 17 18  1  0
 17 20  2  0
 18 21  3  0
 19 20  1  0
M  END
$$$$

 Created by Python create_sdf_string function

 29 31  0  0  0  0  0  0  0  0999 V2000
   11.0589   -3.3570   18.9917 N   0  0  0  0  0  0  0  0  0  0  0  0
   10.8586   -3.9990   24.6234 C   0  0  0  0  0  0  0  0  0  0  0  0
    9.1323   -5.8267   17.8545 N   0  0  0  0  0  0  0  0  0  0  0  0
    7.4616   -7.1083   17.1115 C   0  0  0  0  0  0  0  0  0  0  0  0
   10.6602   -5.0627   19.3831 C   0  0  0  0  0  0  0  0  0  0  0  0
   11.1168   -3.8706   22.9548 C   0  0  0  0  0  0  0  0  0  0  0  0
   11.0136   -3.5021   18.5121 C   0  0  0  0  0  0  0  0  0  0  0  0
    5.5087   -7.5453   16.4815 C   0  0  0  0  0  0  0  0  0  0  0  0
   10.2663   -5.7917   18.9559 C   0  0  0  0  0  0  0  0  0  0  0  0
    8.7224   -5.6427   15.7495 O   0  0  0  0  0  0  0  0  0  0  0  0
    5.1479   -8.4483   17.4390 C   0  0  0  0  0  0  0  0  0  0  0  0
    8.5132   -6.2161   16.8200 C   0  0  0  0  0  0  0  0  0  0  0  0
   11.1970   -4.3451   21.4714 C   0  0  0  0  0  0  0  0  0  0  0  0
    3.7092   -9.1093   17.3585 C   0  0  0  0  0  0  0  0  0  0  0  0
    9.8807   -3.4331   26.0877 C   0  0  0  0  0  0  0  0  0  0  0  0
    1.9276  -10.6313   17.9710 C   0  0  0  0  0  0  0  0  0  0  0  0
    9.4813   -2.3339   24.9768 C   0  0  0  0  0  0  0  0  0  0  0  0
    6.0658   -8.7206   18.2818 C   0  0  0  0  0  0  0  0  0  0  0  0
    3.2092  -10.2449   18.0325 C   0  0  0  0  0  0  0  0  0  0  0  0
    1.4108   -8.9575   16.5064 C   0  0  0  0  0  0  0  0  0  0  0  0
    9.8141   -3.5501   26.5873 C   0  0  0  0  0  0  0  0  0  0  0  0
    9.9110   -2.3157   24.0041 C   0  0  0  0  0  0  0  0  0  0  0  0
    1.1774   -9.9316   17.1629 C   0  0  0  0  0  0  0  0  0  0  0  0
    2.7180   -8.5256   16.5945 C   0  0  0  0  0  0  0  0  0  0  0  0
    6.4280   -7.0707   16.2505 C   0  0  0  0  0  0  0  0  0  0  0  0
    7.2856   -8.0641   18.1566 N   0  0  0  0  0  0  0  0  0  0  0  0
   11.1385   -4.3431   24.3955 C   0  0  0  0  0  0  0  0  0  0  0  0
   11.2305   -3.4904   20.1200 C   0  0  0  0  0  0  0  0  0  0  0  0
   10.8599   -5.1037   20.4044 C   0  0  0  0  0  0  0  0  0  0  0  0
  1  7  4  0
  1 28  4  0
  2 27  4  0
  3  9  1  0
  3 12  1  0
  4 12  1  0
  4 25  4  0
  4 26  4  0
  5  7  4  0
  5  9  4  0
  5 29  4  0
  6 13  1  0
  6 27  4  0
  7 28  4  0
  8 11  4  0
  8 25  4  0
 10 12  2  0
 11 14  1  0
 11 18  4  0
 13 28  4  0
 13 29  4  0
 14 19  4  0
 14 24  4  0
 15 17  4  0
 15 21  1  0
 16 19  4  0
 16 23  4  0
 17 22  4  0
 18 26  4  0
 20 23  4  0
 20 24  4  0
M  END
$$$$

 Created by Python create_sdf_string function

 29 81  0  0  0  0  0  0  0  0999 V2000
   11.9351   -2.9431   18.8924 N   0  0  0  0  0  0  0  0  0  0  0  0
   10.7609   -4.6638   25.5046 C   0  0  0  0  0  0  0  0  0  0  0  0
    9.2422   -5.5801   18.7370 N   0  0  0  0  0  0  0  0  0  0  0  0
    7.5869   -8.7198   16.9821 B   0  0  0  0  0  0  0  0  0  0  0  0
   10.9956   -5.7960   18.5438 N   0  0  0  0  0  0  0  0  0  0  0  0
   11.0989   -3.6370   18.4060 O   0  0  0  0  0  0  0  0  0  0  0  0
    6.2649   -7.6608   16.3190 C   0  0  0  0  0  0  0  0  0  0  0  0
   10.6990   -5.5274   19.5838 N   0  0  0  0  0  0  0  0  0  0  0  0
    9.3300   -5.0329   15.6225 C   0  0  0  0  0  0  0  0  0  0  0  0
    6.0813   -8.9780   17.6130 C   0  0  0  0  0  0  0  0  0  0  0  0
    8.3672   -5.6904   15.3917 C   0  0  0  0  0  0  0  0  0  0  0  0
   11.2014   -4.0137   21.7885 C   0  0  0  0  0  0  0  0  0  0  0  0
    3.2047   -9.0134   16.9652 S   0  0  0  0  0  0  0  0  0  0  0  0
   10.2936   -2.9087   26.2847 C   0  0  0  0  0  0  0  0  0  0  0  0
    1.3987  -10.7646   17.4960 Cl  0  0  0  0  0  0  0  0  0  0  0  0
    9.7335   -1.8322   25.0759 C   0  0  0  0  0  0  0  0  0  0  0  0
    6.3013   -9.1405   17.9946 C   0  0  0  0  0  0  0  0  0  0  0  0
    3.6703   -9.3128   18.4958 C   0  0  0  0  0  0  0  0  0  0  0  0
    1.4796   -9.3650   16.5473 C   0  0  0  0  0  0  0  0  0  0  0  0
   10.4756   -3.7694   27.4913 C   0  0  0  0  0  0  0  0  0  0  0  0
    9.2329   -1.8905   24.1661 C   0  0  0  0  0  0  0  0  0  0  0  0
    1.5067  -10.0664   17.5655 C   0  0  0  0  0  0  0  0  0  0  0  0
    6.1206   -8.5446   17.3639 N   0  0  0  0  0  0  0  0  0  0  0  0
   11.9215   -3.5591   20.4188 C   0  0  0  0  0  0  0  0  0  0  0  0
   11.1587   -5.3901   20.5951 C   0  0  0  0  0  0  0  0  0  0  0  0
   10.9219   -4.4457   22.7834 He  0  0  0  0  0  0  0  0  0  0  0  0
    2.7991   -8.8141   16.3868 He  0  0  0  0  0  0  0  0  0  0  0  0
    7.2195   -6.7728   15.4386 He  0  0  0  0  0  0  0  0  0  0  0  0
   11.5934   -3.9028   24.7221 He  0  0  0  0  0  0  0  0  0  0  0  0
  1 17  1  0
  1 24  4  0
  1 25  4  0
  2 10  4  0
  2 17  3  0
  2 20  3  0
  2 23  4  0
  3  4  2  0
  3  6  2  0
  3  7  4  0
  3  9  1  0
  3 12  3  0
  3 14  2  0
  3 17  1  0
  3 19  3  0
  3 21  2  0
  3 25  1  0
  4  6  1  0
  4  9  1  0
  4 11  2  0
  4 15  4  0
  4 16  4  0
  4 18  2  0
  4 20  3  0
  4 23  4  0
  4 24  4  0
  5  6  3  0
  5  8  1  0
  5 15  2  0
  5 17  2  0
  5 22  4  0
  6  7  3  0
  6  8  2  0
  6  9  1  0
  6 14  2  0
  6 24  4  0
  7 11  4  0
  7 22  1  0
  7 24  3  0
  8 14  2  0
  8 16  4  0
  8 21  4  0
  8 24  1  0
  9 10  3  0
  9 11  2  0
  9 12  4  0
  9 17  4  0
  9 19  3  0
  9 21  2  0
 10 13  2  0
 10 17  1  0
 10 25  2  0
 11 16  1  0
 11 21  1  0
 12 19  1  0
 12 21  4  0
 12 24  4  0
 13 14  2  0
 13 15  1  0
 13 18  4  0
 13 19  4  0
 13 21  2  0
 13 23  2  0
 14 16  4  0
 14 20  1  0
 14 23  2  0
 15 16  2  0
 15 20  3  0
 15 22  4  0
 15 23  3  0
 16 21  4  0
 16 24  2  0
 17 23  4  0
 18 21  3  0
 18 22  2  0
 18 24  2  0
 19 20  4  0
 19 22  4  0
 19 23  2  0
 21 23  1  0
 24 25  4  0
M  END
$$$$

 Created by Python create_sdf_string function

 29 29  0  0  0  0  0  0  0  0999 V2000
   11.3498   -3.2212   19.5451 N   0  0  0  0  0  0  0  0  0  0  0  0
   11.0537   -4.3608   25.2253 C   0  0  0  0  0  0  0  0  0  0  0  0
    9.2105   -5.8709   17.7898 N   0  0  0  0  0  0  0  0  0  0  0  0
    7.7622   -7.8790   16.7970 C   0  0  0  0  0  0  0  0  0  0  0  0
   10.4925   -5.2775   18.8961 C   0  0  0  0  0  0  0  0  0  0  0  0
   11.1963   -4.3594   22.9691 O   0  0  0  0  0  0  0  0  0  0  0  0
   10.9525   -3.7880   18.2914 C   0  0  0  0  0  0  0  0  0  0  0  0
    5.9586   -7.5020   16.3203 C   0  0  0  0  0  0  0  0  0  0  0  0
   10.4534   -5.2732   19.0408 C   0  0  0  0  0  0  0  0  0  0  0  0
    9.0343   -5.2791   16.2068 O   0  0  0  0  0  0  0  0  0  0  0  0
    5.4154   -8.4559   17.0747 C   0  0  0  0  0  0  0  0  0  0  0  0
    8.3965   -5.9121   16.1531 C   0  0  0  0  0  0  0  0  0  0  0  0
   11.1599   -3.8755   21.9274 C   0  0  0  0  0  0  0  0  0  0  0  0
    3.1798   -8.6932   16.7061 C   0  0  0  0  0  0  0  0  0  0  0  0
   10.0013   -2.7629   26.4776 C   0  0  0  0  0  0  0  0  0  0  0  0
    1.6944  -10.5954   17.9578 C   0  0  0  0  0  0  0  0  0  0  0  0
    9.7019   -2.0878   25.3110 C   0  0  0  0  0  0  0  0  0  0  0  0
    6.1617   -8.7962   17.7453 C   0  0  0  0  0  0  0  0  0  0  0  0
    3.5160   -9.8946   17.7457 C   0  0  0  0  0  0  0  0  0  0  0  0
    1.6834   -9.1474   16.4203 C   0  0  0  0  0  0  0  0  0  0  0  0
   10.5895   -3.6520   26.8343 C   0  0  0  0  0  0  0  0  0  0  0  0
   10.0840   -2.4122   24.1160 C   0  0  0  0  0  0  0  0  0  0  0  0
    1.5334  -10.0752   17.3805 C   0  0  0  0  0  0  0  0  0  0  0  0
    3.5272   -8.9336   16.9801 C   0  0  0  0  0  0  0  0  0  0  0  0
    7.2561   -7.0486   16.1032 C   0  0  0  0  0  0  0  0  0  0  0  0
    7.3054   -8.4253   17.4447 N   0  0  0  0  0  0  0  0  0  0  0  0
   10.8556   -3.8471   24.2313 C   0  0  0  0  0  0  0  0  0  0  0  0
   11.2224   -3.5912   20.6687 C   0  0  0  0  0  0  0  0  0  0  0  0
   10.9497   -5.1384   20.4354 C   0  0  0  0  0  0  0  0  0  0  0  0
  1  7  4  0
  1 28  4  0
  2 21  4  0
  2 27  4  0
  4 25  4  0
  4 26  4  0
  5  9  1  0
  5 29  4  0
  6 13  1  0
  6 27  1  0
  8 11  4  0
  8 25  4  0
  9 29  4  0
 10 12  2  0
 11 18  4  0
 11 24  1  0
 12 25  1  0
 13 28  4  0
 14 20  4  0
 14 24  4  0
 15 17  4  0
 15 21  4  0
 16 19  4  0
 16 23  4  0
 17 22  4  0
 18 26  4  0
 19 24  4  0
 20 23  4  0
 22 27  4  0
M  END
$$$$

 Created by Python create_sdf_string function

 29 33  0  0  0  0  0  0  0  0999 V2000
   11.4061   -3.3397   19.6412 N   0  0  0  0  0  0  0  0  0  0  0  0
   11.0252   -4.9939   24.4388 C   0  0  0  0  0  0  0  0  0  0  0  0
    9.5241   -5.9562   17.1857 S   0  0  0  0  0  0  0  0  0  0  0  0
   10.8726   -4.8894   23.6577 N   0  0  0  0  0  0  0  0  0  0  0  0
    5.3787   -7.1285   17.1343 O   0  0  0  0  0  0  0  0  0  0  0  0
    9.6516   -5.4434   18.4827 C   0  0  0  0  0  0  0  0  0  0  0  0
    9.4753   -5.4134   16.2686 O   0  0  0  0  0  0  0  0  0  0  0  0
    4.9660   -8.4946   17.5144 Br  0  0  0  0  0  0  0  0  0  0  0  0
    8.4588   -5.3314   16.7245 C   0  0  0  0  0  0  0  0  0  0  0  0
   11.0842   -3.2975   22.5438 C   0  0  0  0  0  0  0  0  0  0  0  0
    3.4271   -9.0403   15.9466 C   0  0  0  0  0  0  0  0  0  0  0  0
   10.0860   -2.7189   26.7612 C   0  0  0  0  0  0  0  0  0  0  0  0
    1.1857  -11.1774   18.6482 S   0  0  0  0  0  0  0  0  0  0  0  0
    9.4730   -2.2100   25.9548 S   0  0  0  0  0  0  0  0  0  0  0  0
    3.6384  -10.3201   17.2080 C   0  0  0  0  0  0  0  0  0  0  0  0
    2.8243   -9.5242   15.6912 C   0  0  0  0  0  0  0  0  0  0  0  0
    1.6439  -10.0786   17.3323 N   0  0  0  0  0  0  0  0  0  0  0  0
    3.5571   -9.3069   16.9020 I   0  0  0  0  0  0  0  0  0  0  0  0
    6.9706   -8.0066   17.9841 N   0  0  0  0  0  0  0  0  0  0  0  0
   10.9961   -2.9524   23.8994 P   0  0  0  0  0  0  0  0  0  0  0  0
   10.6799   -6.3072   19.7696 C   0  0  0  0  0  0  0  0  0  0  0  0
    7.1229   -6.8311   15.9106 He  0  0  0  0  0  0  0  0  0  0  0  0
   10.1804   -5.4845   18.8024 He  0  0  0  0  0  0  0  0  0  0  0  0
   10.5042   -4.1310   17.9521 He  0  0  0  0  0  0  0  0  0  0  0  0
    5.6657   -9.3687   17.4853 He  0  0  0  0  0  0  0  0  0  0  0  0
   10.4726   -3.4783   26.3773 He  0  0  0  0  0  0  0  0  0  0  0  0
    9.6993   -1.7359   24.2408 He  0  0  0  0  0  0  0  0  0  0  0  0
    7.6233   -6.5745   15.3076 He  0  0  0  0  0  0  0  0  0  0  0  0
   11.3276   -2.2418   20.5464 He  0  0  0  0  0  0  0  0  0  0  0  0
  1  2  4  0
  1  8  1  0
  2 12  2  0
  2 13  3  0
  2 17  4  0
  3  4  3  0
  4  9  1  0
  4 10  1  0
  4 17  2  0
  5  6  1  0
  5  7  2  0
  5 18  1  0
  6  9  2  0
  6 17  3  0
  6 21  4  0
  7 11  1  0
  7 12  3  0
  7 15  4  0
  8 18  1  0
  9 11  1  0
 10 12  2  0
 10 21  1  0
 11 13  4  0
 11 16  4  0
 11 17  4  0
 12 13  2  0
 12 14  4  0
 12 16  1  0
 12 17  1  0
 12 19  1  0
 13 15  2  0
 13 17  4  0
 15 18  4  0
M  END
$$$$

 Created by Python create_sdf_string function

 29 31  0  0  0  0  0  0  0  0999 V2000
   11.0521   -3.3259   19.4340 C   0  0  0  0  0  0  0  0  0  0  0  0
   10.9142   -4.2318   25.0716 C   0  0  0  0  0  0  0  0  0  0  0  0
    9.5701   -5.8812   17.4953 N   0  0  0  0  0  0  0  0  0  0  0  0
    6.8716   -7.3480   16.5890 C   0  0  0  0  0  0  0  0  0  0  0  0
   10.3723   -5.1905   19.3389 C   0  0  0  0  0  0  0  0  0  0  0  0
   10.9947   -3.9155   22.8070 N   0  0  0  0  0  0  0  0  0  0  0  0
   10.7390   -3.7265   18.2532 C   0  0  0  0  0  0  0  0  0  0  0  0
    5.4761   -7.5028   16.3937 O   0  0  0  0  0  0  0  0  0  0  0  0
   10.2261   -5.3767   18.6960 C   0  0  0  0  0  0  0  0  0  0  0  0
    9.3855   -5.2519   16.3048 O   0  0  0  0  0  0  0  0  0  0  0  0
    5.0801   -8.5370   17.1417 C   0  0  0  0  0  0  0  0  0  0  0  0
    8.5515   -5.8142   16.3143 C   0  0  0  0  0  0  0  0  0  0  0  0
   11.0972   -3.5780   21.8001 C   0  0  0  0  0  0  0  0  0  0  0  0
    2.2859   -9.2647   16.2254 C   0  0  0  0  0  0  0  0  0  0  0  0
    9.8034   -2.7788   26.6089 C   0  0  0  0  0  0  0  0  0  0  0  0
    2.0266  -10.6514   18.1343 C   0  0  0  0  0  0  0  0  0  0  0  0
    9.4814   -1.9624   25.5569 C   0  0  0  0  0  0  0  0  0  0  0  0
    6.1040   -8.8706   17.8963 C   0  0  0  0  0  0  0  0  0  0  0  0
    3.3871  -10.1696   18.0117 C   0  0  0  0  0  0  0  0  0  0  0  0
    2.7903   -9.0615   16.1929 C   0  0  0  0  0  0  0  0  0  0  0  0
   10.5034   -3.9251   26.3366 C   0  0  0  0  0  0  0  0  0  0  0  0
    9.8420   -2.2198   24.3134 C   0  0  0  0  0  0  0  0  0  0  0  0
    1.3493  -10.2061   17.1449 N   0  0  0  0  0  0  0  0  0  0  0  0
    3.7362   -9.2744   17.1085 C   0  0  0  0  0  0  0  0  0  0  0  0
    7.4816   -6.5532   15.8384 C   0  0  0  0  0  0  0  0  0  0  0  0
    7.1764   -8.1768   17.5557 N   0  0  0  0  0  0  0  0  0  0  0  0
   10.5747   -3.4026   24.1251 C   0  0  0  0  0  0  0  0  0  0  0  0
   11.2643   -3.3481   20.7614 C   0  0  0  0  0  0  0  0  0  0  0  0
   10.4880   -5.5551   19.9738 C   0  0  0  0  0  0  0  0  0  0  0  0
  1  7  4  0
  1 28  4  0
  2 21  4  0
  2 27  4  0
  3  9  1  0
  3 10  1  0
  3 12  1  0
  4  8  4  0
  4 25  1  0
  4 26  4  0
  5 29  4  0
  6 13  1  0
  6 27  1  0
  8 11  4  0
  9 29  4  0
 10 12  1  0
 11 18  4  0
 11 24  1  0
 12 25  1  0
 13 28  2  0
 14 20  4  0
 14 23  4  0
 15 17  4  0
 15 21  4  0
 16 19  4  0
 16 23  4  0
 17 22  4  0
 18 26  4  0
 19 24  4  0
 20 24  4  0
 22 27  4  0
M  END
$$$$

 Created by Python create_sdf_string function

 29 63  0  0  0  0  0  0  0  0999 V2000
   11.0815   -4.3174   18.9924 C   0  0  0  0  0  0  0  0  0  0  0  0
   11.1272   -4.5111   25.3850 F   0  0  0  0  0  0  0  0  0  0  0  0
   10.5110   -5.5518   17.3599 N   0  0  0  0  0  0  0  0  0  0  0  0
    6.3022   -8.0413   16.0979 S   0  0  0  0  0  0  0  0  0  0  0  0
   11.3619   -4.3047   22.3691 N   0  0  0  0  0  0  0  0  0  0  0  0
   11.1419   -3.1088   18.4434 C   0  0  0  0  0  0  0  0  0  0  0  0
    5.7896   -7.4530   16.1859 F   0  0  0  0  0  0  0  0  0  0  0  0
   10.7438   -6.0839   18.7918 C   0  0  0  0  0  0  0  0  0  0  0  0
   10.3621   -5.1274   15.8893 O   0  0  0  0  0  0  0  0  0  0  0  0
    4.9344   -8.9264   17.8569 C   0  0  0  0  0  0  0  0  0  0  0  0
   11.4201   -3.7221   21.7701 C   0  0  0  0  0  0  0  0  0  0  0  0
    2.9612   -8.8161   15.9043 C   0  0  0  0  0  0  0  0  0  0  0  0
    2.1908  -10.1701   17.5510 C   0  0  0  0  0  0  0  0  0  0  0  0
    9.2168   -1.8347   24.9008 C   0  0  0  0  0  0  0  0  0  0  0  0
    6.7063   -9.6890   17.9952 C   0  0  0  0  0  0  0  0  0  0  0  0
    3.0914   -8.8275   16.5793 C   0  0  0  0  0  0  0  0  0  0  0  0
   10.0303   -4.5253   26.8216 C   0  0  0  0  0  0  0  0  0  0  0  0
    9.6935   -2.5914   24.7715 F   0  0  0  0  0  0  0  0  0  0  0  0
    1.6455  -10.2776   16.9294 Cl  0  0  0  0  0  0  0  0  0  0  0  0
    4.5105   -9.4796   17.0849 C   0  0  0  0  0  0  0  0  0  0  0  0
    8.1298   -6.2853   16.5258 C   0  0  0  0  0  0  0  0  0  0  0  0
    6.4000   -9.1146   17.6064 N   0  0  0  0  0  0  0  0  0  0  0  0
   10.0179   -3.6391   24.7321 Cl  0  0  0  0  0  0  0  0  0  0  0  0
   10.6540   -3.2535   21.0614 C   0  0  0  0  0  0  0  0  0  0  0  0
   10.4431   -5.4656   18.7878 He  0  0  0  0  0  0  0  0  0  0  0  0
    8.3947   -6.3900   16.2335 He  0  0  0  0  0  0  0  0  0  0  0  0
   10.5282   -3.0785   26.3439 He  0  0  0  0  0  0  0  0  0  0  0  0
    2.8116  -10.0310   17.8554 He  0  0  0  0  0  0  0  0  0  0  0  0
   10.3552   -5.6388   19.9326 He  0  0  0  0  0  0  0  0  0  0  0  0
  1  3  3  0
  1  7  1  0
  1 15  1  0
  1 17  4  0
  1 22  3  0
  1 24  4  0
  2  7  3  0
  2 15  2  0
  2 18  1  0
  2 21  4  0
  2 23  4  0
  2 24  2  0
  3  9  1  0
  3 22  2  0
  4  7  4  0
  4  9  2  0
  4 21  1  0
  4 22  4  0
  5 23  1  0
  6  7  2  0
  6  9  1  0
  6 15  1  0
  6 20  2  0
  6 23  2  0
  7  8  1  0
  7 13  3  0
  7 14  1  0
  7 15  4  0
  7 16  1  0
  7 18  2  0
  7 21  4  0
  8 12  1  0
  8 15  1  0
  8 18  1  0
  8 20  1  0
  8 22  1  0
  8 24  4  0
  9 10  3  0
  9 11  3  0
  9 18  3  0
 10 19  4  0
 11 15  4  0
 11 21  1  0
 11 23  4  0
 11 24  2  0
 12 15  3  0
 12 16  4  0
 12 17  1  0
 12 19  4  0
 13 19  4  0
 13 20  2  0
 14 18  4  0
 14 23  1  0
 15 22  4  0
 16 20  4  0
 17 19  2  0
 18 19  3  0
 18 23  2  0
 19 20  3  0
 20 22  4  0
 20 24  3  0
 21 23  1  0
 23 24  1  0
M  END
$$$$

 Created by Python create_sdf_string function

 29 28  0  0  0  0  0  0  0  0999 V2000
   10.9325   -3.5317   19.2517 C   0  0  0  0  0  0  0  0  0  0  0  0
   10.8446   -4.4909   25.1927 C   0  0  0  0  0  0  0  0  0  0  0  0
   10.0029   -5.2060   17.4986 N   0  0  0  0  0  0  0  0  0  0  0  0
    6.8755   -7.4916   16.6487 C   0  0  0  0  0  0  0  0  0  0  0  0
   10.3052   -5.8880   18.8385 C   0  0  0  0  0  0  0  0  0  0  0  0
   11.0291   -4.0736   22.7728 O   0  0  0  0  0  0  0  0  0  0  0  0
   10.8399   -3.4796   18.3412 C   0  0  0  0  0  0  0  0  0  0  0  0
    5.8945   -7.5499   16.4015 C   0  0  0  0  0  0  0  0  0  0  0  0
   10.3753   -5.7093   19.0000 C   0  0  0  0  0  0  0  0  0  0  0  0
    9.7756   -5.1668   16.3359 C   0  0  0  0  0  0  0  0  0  0  0  0
    5.2163   -8.9927   17.4027 C   0  0  0  0  0  0  0  0  0  0  0  0
    8.7491   -6.1999   16.4628 C   0  0  0  0  0  0  0  0  0  0  0  0
   11.0853   -3.7199   21.7364 C   0  0  0  0  0  0  0  0  0  0  0  0
    1.9919   -9.0536   15.9809 C   0  0  0  0  0  0  0  0  0  0  0  0
    9.7111   -2.9421   26.5666 C   0  0  0  0  0  0  0  0  0  0  0  0
    1.8622  -10.3867   17.8107 C   0  0  0  0  0  0  0  0  0  0  0  0
    9.4442   -2.1084   25.4554 C   0  0  0  0  0  0  0  0  0  0  0  0
    6.8331   -8.9570   17.8266 C   0  0  0  0  0  0  0  0  0  0  0  0
    3.2328  -10.2206   17.9823 C   0  0  0  0  0  0  0  0  0  0  0  0
    3.2499   -8.7652   16.2442 C   0  0  0  0  0  0  0  0  0  0  0  0
   10.4124   -4.0563   26.4346 C   0  0  0  0  0  0  0  0  0  0  0  0
    9.8741   -2.4157   24.2520 C   0  0  0  0  0  0  0  0  0  0  0  0
    1.3022   -9.8966   16.8025 C   0  0  0  0  0  0  0  0  0  0  0  0
    3.8980   -9.3027   17.2643 C   0  0  0  0  0  0  0  0  0  0  0  0
    7.9216   -6.7380   16.2950 C   0  0  0  0  0  0  0  0  0  0  0  0
    6.3465   -9.0089   17.8500 N   0  0  0  0  0  0  0  0  0  0  0  0
   10.5962   -3.6952   24.1364 C   0  0  0  0  0  0  0  0  0  0  0  0
   11.1591   -3.3344   20.6355 C   0  0  0  0  0  0  0  0  0  0  0  0
   10.6179   -5.6055   20.2094 C   0  0  0  0  0  0  0  0  0  0  0  0
  1  7  4  0
  1 28  4  0
  2 21  4  0
  2 27  4  0
  3  9  4  0
  3 10  1  0
  4  8  4  0
  4 25  1  0
  5  9  4  0
  6 13  1  0
  6 27  1  0
  9 29  4  0
 10 12  1  0
 11 24  1  0
 11 26  4  0
 12 25  1  0
 13 28  2  0
 14 20  4  0
 14 23  4  0
 15 17  4  0
 15 21  4  0
 16 19  4  0
 16 23  4  0
 17 22  4  0
 18 26  4  0
 19 24  4  0
 20 24  4  0
 22 27  4  0
M  END
$$$$

 Created by Python create_sdf_string function

 29 55  0  0  0  0  0  0  0  0999 V2000
   10.4223   -4.0263   18.3813 C   0  0  0  0  0  0  0  0  0  0  0  0
   10.4481   -4.7886   17.8952 N   0  0  0  0  0  0  0  0  0  0  0  0
    6.6674   -7.1012   16.6382 C   0  0  0  0  0  0  0  0  0  0  0  0
   11.0244   -4.6018   22.9376 C   0  0  0  0  0  0  0  0  0  0  0  0
   10.4481   -3.3589   18.6687 C   0  0  0  0  0  0  0  0  0  0  0  0
    6.2199   -8.3242   16.3873 O   0  0  0  0  0  0  0  0  0  0  0  0
    9.9481   -6.7090   18.7415 C   0  0  0  0  0  0  0  0  0  0  0  0
    5.0891   -9.4730   17.5007 C   0  0  0  0  0  0  0  0  0  0  0  0
    9.1367   -6.5339   16.1907 C   0  0  0  0  0  0  0  0  0  0  0  0
    9.7647   -3.1128   26.3009 C   0  0  0  0  0  0  0  0  0  0  0  0
    2.3860  -10.0511   17.4796 C   0  0  0  0  0  0  0  0  0  0  0  0
    8.9469   -1.4371   25.0736 C   0  0  0  0  0  0  0  0  0  0  0  0
    7.2828   -8.7152   17.8775 C   0  0  0  0  0  0  0  0  0  0  0  0
    2.5729   -9.5705   17.9636 C   0  0  0  0  0  0  0  0  0  0  0  0
   10.2806   -3.9404   26.5434 C   0  0  0  0  0  0  0  0  0  0  0  0
   10.3308   -2.1777   24.4416 C   0  0  0  0  0  0  0  0  0  0  0  0
    3.6193   -9.2938   18.0984 C   0  0  0  0  0  0  0  0  0  0  0  0
    8.2906   -7.3881   15.9240 C   0  0  0  0  0  0  0  0  0  0  0  0
    6.6429   -9.1510   17.6792 N   0  0  0  0  0  0  0  0  0  0  0  0
   10.5762   -4.2788   24.3441 C   0  0  0  0  0  0  0  0  0  0  0  0
   11.2020   -3.9949   20.4396 N   0  0  0  0  0  0  0  0  0  0  0  0
   11.2141   -5.6162   20.4049 C   0  0  0  0  0  0  0  0  0  0  0  0
   10.9055   -4.1744   24.5441 He  0  0  0  0  0  0  0  0  0  0  0  0
    9.8126   -6.3669   18.1131 He  0  0  0  0  0  0  0  0  0  0  0  0
    8.8291   -5.2536   15.6428 He  0  0  0  0  0  0  0  0  0  0  0  0
   11.1691   -3.8190   21.8562 He  0  0  0  0  0  0  0  0  0  0  0  0
    1.8531   -8.4398   15.4329 He  0  0  0  0  0  0  0  0  0  0  0  0
    2.1031   -8.1559   16.0517 He  0  0  0  0  0  0  0  0  0  0  0  0
    1.2813   -9.9210   17.1206 He  0  0  0  0  0  0  0  0  0  0  0  0
  1  2  3  0
  1 13  2  0
  1 15  2  0
  1 16  1  0
  1 18  4  0
  1 21  4  0
  2  7  4  0
  2  9  4  0
  2 14  3  0
  2 18  4  0
  3  4  4  0
  3  5  3  0
  3  6  4  0
  3 12  2  0
  3 15  3  0
  3 18  1  0
  3 21  4  0
  4  5  1  0
  4  9  1  0
  4 11  1  0
  4 16  1  0
  4 17  1  0
  4 20  2  0
  5  8  4  0
  5  9  3  0
  5 13  4  0
  5 15  2  0
  5 22  1  0
  6 12  4  0
  6 18  4  0
  7  9  3  0
  7 10  1  0
  7 22  4  0
  8 17  1  0
  8 19  4  0
  9 18  1  0
  9 21  4  0
  9 22  1  0
 10 12  4  0
 10 20  1  0
 11 19  2  0
 12 15  3  0
 12 16  4  0
 12 19  4  0
 12 21  3  0
 13 15  4  0
 13 19  4  0
 13 20  1  0
 13 21  4  0
 14 17  4  0
 16 20  4  0
 16 22  4  0
 17 22  2  0
 20 21  1  0
 21 22  3  0
M  END
$$$$

 Created by Python create_sdf_string function

 29 33  0  0  0  0  0  0  0  0999 V2000
   10.5189   -3.7292   18.4913 C   0  0  0  0  0  0  0  0  0  0  0  0
   10.8478   -4.3920   25.1517 C   0  0  0  0  0  0  0  0  0  0  0  0
    9.9802   -4.8378   17.7122 N   0  0  0  0  0  0  0  0  0  0  0  0
    7.0695   -7.8357   16.5939 C   0  0  0  0  0  0  0  0  0  0  0  0
    9.7966   -6.9927   18.0616 N   0  0  0  0  0  0  0  0  0  0  0  0
   11.1374   -4.3178   22.6128 C   0  0  0  0  0  0  0  0  0  0  0  0
   10.7284   -3.2430   18.6443 C   0  0  0  0  0  0  0  0  0  0  0  0
    5.8932   -7.9133   16.2593 O   0  0  0  0  0  0  0  0  0  0  0  0
   10.2107   -5.9586   18.6728 C   0  0  0  0  0  0  0  0  0  0  0  0
    9.2289   -5.1823   16.4298 N   0  0  0  0  0  0  0  0  0  0  0  0
    5.0973   -8.8606   17.2163 C   0  0  0  0  0  0  0  0  0  0  0  0
    8.9896   -6.3409   16.6475 C   0  0  0  0  0  0  0  0  0  0  0  0
   11.0672   -3.6956   21.5666 C   0  0  0  0  0  0  0  0  0  0  0  0
    1.6970   -8.7790   16.0141 C   0  0  0  0  0  0  0  0  0  0  0  0
    9.5040   -2.7444   26.3159 C   0  0  0  0  0  0  0  0  0  0  0  0
    1.7453  -10.3800   17.7593 C   0  0  0  0  0  0  0  0  0  0  0  0
    9.4222   -1.9805   25.1332 C   0  0  0  0  0  0  0  0  0  0  0  0
    7.1393   -8.5547   17.7181 C   0  0  0  0  0  0  0  0  0  0  0  0
    3.0930  -10.1259   17.8941 C   0  0  0  0  0  0  0  0  0  0  0  0
    3.0106   -8.5289   16.1467 C   0  0  0  0  0  0  0  0  0  0  0  0
   10.1975   -3.8930   26.2938 C   0  0  0  0  0  0  0  0  0  0  0  0
    9.9705   -2.4173   23.9947 C   0  0  0  0  0  0  0  0  0  0  0  0
    1.1175   -9.7254   16.8024 C   0  0  0  0  0  0  0  0  0  0  0  0
    3.7543   -9.2005   17.1485 C   0  0  0  0  0  0  0  0  0  0  0  0
    8.1590   -7.1245   15.8191 C   0  0  0  0  0  0  0  0  0  0  0  0
    6.0280   -9.1383   18.0432 N   0  0  0  0  0  0  0  0  0  0  0  0
   10.6715   -3.6656   24.0392 C   0  0  0  0  0  0  0  0  0  0  0  0
   10.9390   -4.2807   20.2793 C   0  0  0  0  0  0  0  0  0  0  0  0
   10.7298   -5.4835   20.0676 C   0  0  0  0  0  0  0  0  0  0  0  0
  1  3  4  0
  1  7  4  0
  1 28  4  0
  2 21  4  0
  2 27  4  0
  3  9  4  0
  3 10  4  0
  4  8  4  0
  4 18  4  0
  4 25  1  0
  5  9  4  0
  5 12  4  0
  6 13  1  0
  6 27  1  0
  8 11  4  0
  9 29  4  0
 10 12  4  0
 11 24  1  0
 11 26  4  0
 12 25  1  0
 13 28  1  0
 14 20  4  0
 14 23  4  0
 15 17  4  0
 15 21  4  0
 16 19  4  0
 16 23  4  0
 17 22  4  0
 18 26  4  0
 19 24  4  0
 20 24  4  0
 22 27  4  0
 28 29  4  0
M  END
$$$$

 Created by Python create_sdf_string function

 29 65  0  0  0  0  0  0  0  0999 V2000
   10.0811   -3.8153   18.2572 C   0  0  0  0  0  0  0  0  0  0  0  0
    9.9652   -4.6015   17.1681 N   0  0  0  0  0  0  0  0  0  0  0  0
    6.8261   -6.8777   16.1080 C   0  0  0  0  0  0  0  0  0  0  0  0
   10.4346   -6.7061   17.7804 C   0  0  0  0  0  0  0  0  0  0  0  0
   10.4768   -3.3977   22.5596 C   0  0  0  0  0  0  0  0  0  0  0  0
   11.6359   -3.1481   18.6330 C   0  0  0  0  0  0  0  0  0  0  0  0
    5.9382   -6.8979   17.0043 O   0  0  0  0  0  0  0  0  0  0  0  0
   10.4659   -6.4132   18.1908 C   0  0  0  0  0  0  0  0  0  0  0  0
    9.5529   -5.2405   16.8524 N   0  0  0  0  0  0  0  0  0  0  0  0
    4.9711   -8.3191   17.7405 C   0  0  0  0  0  0  0  0  0  0  0  0
    9.8746   -6.1231   17.0736 C   0  0  0  0  0  0  0  0  0  0  0  0
   11.0950   -3.4880   22.0904 C   0  0  0  0  0  0  0  0  0  0  0  0
    1.7839   -8.3387   16.1235 C   0  0  0  0  0  0  0  0  0  0  0  0
    9.1118   -2.5094   26.4103 C   0  0  0  0  0  0  0  0  0  0  0  0
    1.2349  -10.6743   17.4578 C   0  0  0  0  0  0  0  0  0  0  0  0
    9.7571   -1.9786   25.3987 C   0  0  0  0  0  0  0  0  0  0  0  0
    4.1915   -9.7019   17.9886 C   0  0  0  0  0  0  0  0  0  0  0  0
    2.6118   -8.3348   15.8889 C   0  0  0  0  0  0  0  0  0  0  0  0
    9.9459   -2.5992   23.8271 C   0  0  0  0  0  0  0  0  0  0  0  0
    0.5957  -10.2158   16.6642 C   0  0  0  0  0  0  0  0  0  0  0  0
    3.4593   -9.4089   17.5470 Cl  0  0  0  0  0  0  0  0  0  0  0  0
    7.4740   -6.7562   15.9785 C   0  0  0  0  0  0  0  0  0  0  0  0
    6.1295   -8.7459   17.1475 N   0  0  0  0  0  0  0  0  0  0  0  0
   11.6760   -4.1263   20.0898 C   0  0  0  0  0  0  0  0  0  0  0  0
   10.7544   -6.2116   20.3508 C   0  0  0  0  0  0  0  0  0  0  0  0
   10.4566   -4.2960   25.4143 He  0  0  0  0  0  0  0  0  0  0  0  0
    6.7763   -8.0878   17.7157 He  0  0  0  0  0  0  0  0  0  0  0  0
   10.3215   -3.9622   26.7182 He  0  0  0  0  0  0  0  0  0  0  0  0
   10.4226   -4.4121   23.5752 He  0  0  0  0  0  0  0  0  0  0  0  0
  1  2  4  0
  1  6  4  0
  1 12  1  0
  1 20  1  0
  2  4  1  0
  2  6  4  0
  2  8  4  0
  2  9  4  0
  2 11  3  0
  2 13  1  0
  2 21  1  0
  3  5  1  0
  3  7  4  0
  3 20  2  0
  3 22  1  0
  4  8  3  0
  4  9  1  0
  4 10  3  0
  4 11  4  0
  4 17  4  0
  4 19  3  0
  4 22  2  0
  4 23  2  0
  4 24  4  0
  5  7  3  0
  5 11  2  0
  5 14  1  0
  6 11  2  0
  6 14  1  0
  6 17  4  0
  7 10  4  0
  7 13  3  0
  7 23  4  0
  8 18  3  0
  8 25  4  0
  9 11  4  0
  9 22  2  0
 10 18  2  0
 10 21  1  0
 10 23  2  0
 10 24  3  0
 11 14  2  0
 11 15  4  0
 11 22  3  0
 12 21  2  0
 12 24  1  0
 13 17  2  0
 13 19  3  0
 14 16  4  0
 15 17  4  0
 15 19  4  0
 15 20  1  0
 16 19  4  0
 16 23  3  0
 17 21  4  0
 17 23  3  0
 17 24  1  0
 18 20  3  0
 18 21  4  0
 18 23  1  0
 19 24  3  0
 19 25  4  0
 21 23  3  0
 23 24  4  0
 24 25  4  0
M  END
$$$$

 Created by Python create_sdf_string function

 29 33  0  0  0  0  0  0  0  0999 V2000
   10.6463   -3.5964   17.9114 C   0  0  0  0  0  0  0  0  0  0  0  0
   10.6615   -4.3088   25.0211 C   0  0  0  0  0  0  0  0  0  0  0  0
   10.1968   -4.7024   17.7632 N   0  0  0  0  0  0  0  0  0  0  0  0
    6.9607   -7.2947   16.6465 C   0  0  0  0  0  0  0  0  0  0  0  0
    9.8010   -6.9004   18.0241 C   0  0  0  0  0  0  0  0  0  0  0  0
   10.8680   -4.1479   22.5578 C   0  0  0  0  0  0  0  0  0  0  0  0
   10.9201   -3.3385   19.0644 C   0  0  0  0  0  0  0  0  0  0  0  0
    5.5797   -7.3012   16.5247 O   0  0  0  0  0  0  0  0  0  0  0  0
   10.3947   -5.8570   18.6732 C   0  0  0  0  0  0  0  0  0  0  0  0
    9.3696   -5.1386   16.6882 N   0  0  0  0  0  0  0  0  0  0  0  0
    4.9956   -8.4144   17.1359 C   0  0  0  0  0  0  0  0  0  0  0  0
    9.1619   -6.3198   16.9165 C   0  0  0  0  0  0  0  0  0  0  0  0
   11.2354   -3.7040   21.5508 C   0  0  0  0  0  0  0  0  0  0  0  0
    1.4484   -8.8593   16.0983 C   0  0  0  0  0  0  0  0  0  0  0  0
    9.4542   -2.7534   26.3163 C   0  0  0  0  0  0  0  0  0  0  0  0
    1.8692  -10.4940   17.7581 C   0  0  0  0  0  0  0  0  0  0  0  0
    9.3294   -1.8856   25.2196 C   0  0  0  0  0  0  0  0  0  0  0  0
    7.1038   -8.3141   17.5384 N   0  0  0  0  0  0  0  0  0  0  0  0
    3.2145  -10.0366   17.7518 C   0  0  0  0  0  0  0  0  0  0  0  0
    2.7421   -8.3266   16.2537 C   0  0  0  0  0  0  0  0  0  0  0  0
   10.1136   -3.9494   26.1564 C   0  0  0  0  0  0  0  0  0  0  0  0
    9.8498   -2.2534   24.0220 C   0  0  0  0  0  0  0  0  0  0  0  0
    1.0607   -9.9368   16.8716 C   0  0  0  0  0  0  0  0  0  0  0  0
    3.6763   -8.9304   17.0652 C   0  0  0  0  0  0  0  0  0  0  0  0
    8.0205   -6.9059   16.0143 C   0  0  0  0  0  0  0  0  0  0  0  0
    6.0146   -8.9536   17.7920 N   0  0  0  0  0  0  0  0  0  0  0  0
   10.5161   -3.5260   23.8862 C   0  0  0  0  0  0  0  0  0  0  0  0
   11.0380   -4.2178   20.1580 C   0  0  0  0  0  0  0  0  0  0  0  0
   10.8495   -5.5060   19.8938 C   0  0  0  0  0  0  0  0  0  0  0  0
  1  3  4  0
  1  7  4  0
  2 21  4  0
  2 27  4  0
  3  9  4  0
  3 10  4  0
  4  8  4  0
  4 18  4  0
  4 25  1  0
  5  9  4  0
  5 12  4  0
  6 13  1  0
  6 27  1  0
  7 28  4  0
  8 11  4  0
  9 29  4  0
 10 12  4  0
 11 24  1  0
 11 26  4  0
 12 25  1  0
 13 28  1  0
 14 20  4  0
 14 23  4  0
 15 17  4  0
 15 21  4  0
 16 19  4  0
 16 23  4  0
 17 22  4  0
 18 26  4  0
 19 24  4  0
 20 24  4  0
 22 27  4  0
 28 29  4  0
M  END
$$$$

 Created by Python create_sdf_string function

 29 23  0  0  0  0  0  0  0  0999 V2000
   10.7824   -4.0216   17.4226 C   0  0  0  0  0  0  0  0  0  0  0  0
   10.4036   -4.2662   25.3887 C   0  0  0  0  0  0  0  0  0  0  0  0
    9.4481   -7.9072   19.0274 C   0  0  0  0  0  0  0  0  0  0  0  0
   11.1752   -3.5865   18.6273 C   0  0  0  0  0  0  0  0  0  0  0  0
    5.4361   -7.3967   16.1050 O   0  0  0  0  0  0  0  0  0  0  0  0
   10.2377   -5.6083   18.7841 C   0  0  0  0  0  0  0  0  0  0  0  0
    8.6603   -6.1392   17.1115 C   0  0  0  0  0  0  0  0  0  0  0  0
    2.4815  -10.4711   17.3562 F   0  0  0  0  0  0  0  0  0  0  0  0
    2.9122   -9.8907   18.3009 C   0  0  0  0  0  0  0  0  0  0  0  0
    2.4782   -8.2499   15.3688 C   0  0  0  0  0  0  0  0  0  0  0  0
   10.1465   -4.2527   25.9772 C   0  0  0  0  0  0  0  0  0  0  0  0
    9.8493   -1.9280   23.5340 C   0  0  0  0  0  0  0  0  0  0  0  0
    1.0783   -9.8987   17.3926 C   0  0  0  0  0  0  0  0  0  0  0  0
    3.6322   -9.2790   16.7191 C   0  0  0  0  0  0  0  0  0  0  0  0
    5.6900   -9.0817   17.9749 N   0  0  0  0  0  0  0  0  0  0  0  0
   10.5304   -3.6165   23.6414 F   0  0  0  0  0  0  0  0  0  0  0  0
   10.8877   -4.4105   20.3868 C   0  0  0  0  0  0  0  0  0  0  0  0
   10.6679   -4.7712   19.2861 C   0  0  0  0  0  0  0  0  0  0  0  0
   10.7656   -4.9217   18.0914 He  0  0  0  0  0  0  0  0  0  0  0  0
    6.9735   -7.5156   16.6266 He  0  0  0  0  0  0  0  0  0  0  0  0
   10.6854   -3.9212   21.9608 He  0  0  0  0  0  0  0  0  0  0  0  0
    9.1296   -5.1601   16.4561 He  0  0  0  0  0  0  0  0  0  0  0  0
    5.2387   -8.6343   18.1599 He  0  0  0  0  0  0  0  0  0  0  0  0
   11.0316   -4.3528   21.1608 He  0  0  0  0  0  0  0  0  0  0  0  0
    1.6030   -8.3506   15.9811 He  0  0  0  0  0  0  0  0  0  0  0  0
    8.8792   -2.2558   26.0786 He  0  0  0  0  0  0  0  0  0  0  0  0
    8.8229   -2.0219   25.4341 He  0  0  0  0  0  0  0  0  0  0  0  0
    7.0728   -8.4598   17.6533 He  0  0  0  0  0  0  0  0  0  0  0  0
    8.6781   -7.2894   16.5007 He  0  0  0  0  0  0  0  0  0  0  0  0
  1  4  4  0
  2  7  1  0
  2 11  4  0
  3 14  4  0
  3 15  1  0
  4 15  1  0
  4 17  4  0
  6 17  4  0
  6 18  4  0
  8  9  1  0
  8 10  1  0
  8 11  4  0
  8 13  4  0
  9 10  3  0
  9 14  1  0
 11 12  1  0
 11 14  1  0
 11 17  4  0
 12 16  4  0
 13 15  3  0
 14 17  3  0
 16 17  2  0
 17 18  4  0
M  END
$$$$

 Created by Python create_sdf_string function

 29 33  0  0  0  0  0  0  0  0999 V2000
   10.7423   -3.6736   17.7736 C   0  0  0  0  0  0  0  0  0  0  0  0
   10.5829   -4.1964   24.8710 C   0  0  0  0  0  0  0  0  0  0  0  0
   10.0842   -4.9450   17.5873 C   0  0  0  0  0  0  0  0  0  0  0  0
    6.9530   -7.6313   16.7624 C   0  0  0  0  0  0  0  0  0  0  0  0
    9.5790   -7.3315   18.3327 S   0  0  0  0  0  0  0  0  0  0  0  0
   10.7693   -3.9152   22.3582 C   0  0  0  0  0  0  0  0  0  0  0  0
   11.0917   -3.2991   19.0244 C   0  0  0  0  0  0  0  0  0  0  0  0
    5.6904   -7.6259   16.3496 O   0  0  0  0  0  0  0  0  0  0  0  0
   10.1307   -5.8699   18.6338 C   0  0  0  0  0  0  0  0  0  0  0  0
    9.4387   -5.2660   16.5262 N   0  0  0  0  0  0  0  0  0  0  0  0
    4.9962   -8.5398   17.0687 C   0  0  0  0  0  0  0  0  0  0  0  0
    8.9626   -6.3749   16.7736 C   0  0  0  0  0  0  0  0  0  0  0  0
   11.1356   -3.9018   21.3978 C   0  0  0  0  0  0  0  0  0  0  0  0
    1.4964   -8.7446   15.9939 C   0  0  0  0  0  0  0  0  0  0  0  0
    9.1952   -2.6961   26.0788 C   0  0  0  0  0  0  0  0  0  0  0  0
    1.8277  -10.3769   17.7623 C   0  0  0  0  0  0  0  0  0  0  0  0
    9.1505   -1.8181   25.0277 C   0  0  0  0  0  0  0  0  0  0  0  0
    6.9065   -8.5515   17.8376 N   0  0  0  0  0  0  0  0  0  0  0  0
    3.1580  -10.0509   17.7521 C   0  0  0  0  0  0  0  0  0  0  0  0
    2.8184   -8.3202   16.0802 C   0  0  0  0  0  0  0  0  0  0  0  0
    9.9645   -3.8960   25.9873 C   0  0  0  0  0  0  0  0  0  0  0  0
    9.7362   -2.1648   23.8417 C   0  0  0  0  0  0  0  0  0  0  0  0
    1.0145   -9.7427   16.8467 C   0  0  0  0  0  0  0  0  0  0  0  0
    3.6433   -8.9841   16.9461 C   0  0  0  0  0  0  0  0  0  0  0  0
    8.0515   -7.1471   16.1114 C   0  0  0  0  0  0  0  0  0  0  0  0
    5.7967   -8.9929   18.0109 N   0  0  0  0  0  0  0  0  0  0  0  0
   10.3895   -3.3785   23.7755 C   0  0  0  0  0  0  0  0  0  0  0  0
   10.9543   -4.2473   20.0004 C   0  0  0  0  0  0  0  0  0  0  0  0
   10.6071   -5.4677   19.8670 C   0  0  0  0  0  0  0  0  0  0  0  0
  1  3  4  0
  1  7  4  0
  2 21  4  0
  2 27  4  0
  3  9  4  0
  3 10  4  0
  4  8  4  0
  4 18  4  0
  4 25  1  0
  5  9  1  0
  5 12  4  0
  6 13  1  0
  6 27  1  0
  7 28  4  0
  8 11  4  0
  9 29  4  0
 10 12  4  0
 11 24  1  0
 11 26  4  0
 12 25  1  0
 13 28  1  0
 14 20  4  0
 14 23  4  0
 15 17  4  0
 15 21  4  0
 16 19  4  0
 16 23  4  0
 17 22  4  0
 18 26  4  0
 19 24  4  0
 20 24  4  0
 22 27  4  0
 28 29  4  0
M  END
$$$$

 Created by Python create_sdf_string function

 29 54  0  0  0  0  0  0  0  0999 V2000
   10.5023   -4.1420   17.8762 C   0  0  0  0  0  0  0  0  0  0  0  0
   10.1266   -3.4036   25.0274 N   0  0  0  0  0  0  0  0  0  0  0  0
   10.1398   -5.1125   17.9646 C   0  0  0  0  0  0  0  0  0  0  0  0
    7.5065   -7.9796   16.6002 N   0  0  0  0  0  0  0  0  0  0  0  0
    8.8006   -7.2465   18.6418 S   0  0  0  0  0  0  0  0  0  0  0  0
   10.4168   -3.9630   21.9681 C   0  0  0  0  0  0  0  0  0  0  0  0
   11.4691   -3.4301   19.2327 C   0  0  0  0  0  0  0  0  0  0  0  0
    5.1408   -7.4008   16.9116 O   0  0  0  0  0  0  0  0  0  0  0  0
   10.2890   -5.7318   18.9684 C   0  0  0  0  0  0  0  0  0  0  0  0
    9.1381   -5.1740   16.8124 N   0  0  0  0  0  0  0  0  0  0  0  0
    5.3915   -8.7962   16.5857 N   0  0  0  0  0  0  0  0  0  0  0  0
    8.2090   -6.7108   16.9023 C   0  0  0  0  0  0  0  0  0  0  0  0
   11.4146   -3.7791   20.6813 C   0  0  0  0  0  0  0  0  0  0  0  0
    1.3398   -8.6465   15.4845 C   0  0  0  0  0  0  0  0  0  0  0  0
    8.9780   -2.6822   26.0804 C   0  0  0  0  0  0  0  0  0  0  0  0
    1.6296  -10.6954   17.2443 C   0  0  0  0  0  0  0  0  0  0  0  0
    6.9581   -8.4614   17.7162 N   0  0  0  0  0  0  0  0  0  0  0  0
    2.9074   -8.0429   16.1809 C   0  0  0  0  0  0  0  0  0  0  0  0
    9.3716   -4.3253   26.2053 C   0  0  0  0  0  0  0  0  0  0  0  0
    9.9170   -2.3122   23.4295 C   0  0  0  0  0  0  0  0  0  0  0  0
    8.3083   -6.7146   16.1542 C   0  0  0  0  0  0  0  0  0  0  0  0
    5.6505   -9.4032   17.8724 Cl  0  0  0  0  0  0  0  0  0  0  0  0
   10.5763   -3.6208   24.2746 Br  0  0  0  0  0  0  0  0  0  0  0  0
   11.4479   -3.8406   19.6177 C   0  0  0  0  0  0  0  0  0  0  0  0
    9.5454   -5.4376   20.0296 N   0  0  0  0  0  0  0  0  0  0  0  0
    8.9697   -2.3157   24.7898 He  0  0  0  0  0  0  0  0  0  0  0  0
    3.7801   -9.6542   17.7818 He  0  0  0  0  0  0  0  0  0  0  0  0
    0.7910   -9.7429   17.0603 He  0  0  0  0  0  0  0  0  0  0  0  0
    3.5587   -8.4492   17.0590 He  0  0  0  0  0  0  0  0  0  0  0  0
  1  3  4  0
  1  5  1  0
  1  7  4  0
  1 10  3  0
  1 14  4  0
  1 15  4  0
  1 22  4  0
  2  3  3  0
  2 10  2  0
  2 19  4  0
  2 23  1  0
  3  7  4  0
  3  9  4  0
  3 13  1  0
  4  7  2  0
  4  8  4  0
  4 17  4  0
  4 21  2  0
  5  9  3  0
  5 11  3  0
  5 12  4  0
  6 11  4  0
  6 13  1  0
  6 14  3  0
  6 16  4  0
  6 17  4  0
  6 23  1  0
  7 15  2  0
  7 18  4  0
  8 13  1  0
  8 15  3  0
  8 20  1  0
  9 15  3  0
  9 25  4  0
 10 12  4  0
 10 15  2  0
 10 22  1  0
 10 23  3  0
 11 18  1  0
 12 17  3  0
 12 20  1  0
 13 16  3  0
 13 24  2  0
 14 18  4  0
 15 19  4  0
 16 19  4  0
 17 23  4  0
 17 25  1  0
 18 20  4  0
 18 23  4  0
 20 23  4  0
 21 23  2  0
 23 25  3  0
 24 25  4  0
M  END
$$$$

 Created by Python create_sdf_string function

 29 33  0  0  0  0  0  0  0  0999 V2000
   10.7493   -3.7250   17.7693 C   0  0  0  0  0  0  0  0  0  0  0  0
   10.4559   -4.2500   24.9063 N   0  0  0  0  0  0  0  0  0  0  0  0
   10.0133   -4.8306   17.7759 C   0  0  0  0  0  0  0  0  0  0  0  0
    6.9105   -7.7717   16.6562 C   0  0  0  0  0  0  0  0  0  0  0  0
    9.1108   -6.9392   18.4450 S   0  0  0  0  0  0  0  0  0  0  0  0
   10.8614   -4.1410   22.4290 C   0  0  0  0  0  0  0  0  0  0  0  0
   11.2016   -3.2451   18.9842 C   0  0  0  0  0  0  0  0  0  0  0  0
    5.6034   -7.6661   16.3550 O   0  0  0  0  0  0  0  0  0  0  0  0
    9.8648   -5.6296   18.7989 C   0  0  0  0  0  0  0  0  0  0  0  0
    9.3630   -5.2989   16.6639 N   0  0  0  0  0  0  0  0  0  0  0  0
    4.9013   -8.5927   16.9956 C   0  0  0  0  0  0  0  0  0  0  0  0
    8.7930   -6.4120   16.9379 C   0  0  0  0  0  0  0  0  0  0  0  0
   11.3254   -3.5076   21.3862 C   0  0  0  0  0  0  0  0  0  0  0  0
    1.4456   -8.6704   15.9133 C   0  0  0  0  0  0  0  0  0  0  0  0
    8.9741   -2.7380   25.9685 C   0  0  0  0  0  0  0  0  0  0  0  0
    1.7391  -10.3223   17.5939 C   0  0  0  0  0  0  0  0  0  0  0  0
    9.0681   -1.8257   24.9308 C   0  0  0  0  0  0  0  0  0  0  0  0
    6.9238   -8.7959   17.5605 N   0  0  0  0  0  0  0  0  0  0  0  0
    3.0971   -9.9717   17.6538 C   0  0  0  0  0  0  0  0  0  0  0  0
    2.7607   -8.2799   15.9892 C   0  0  0  0  0  0  0  0  0  0  0  0
    9.7497   -3.9038   25.9421 C   0  0  0  0  0  0  0  0  0  0  0  0
    9.7639   -2.2120   23.7838 C   0  0  0  0  0  0  0  0  0  0  0  0
    0.9903   -9.7036   16.6783 C   0  0  0  0  0  0  0  0  0  0  0  0
    3.5722   -8.9490   16.8507 C   0  0  0  0  0  0  0  0  0  0  0  0
    7.9281   -7.0042   15.9392 C   0  0  0  0  0  0  0  0  0  0  0  0
    5.7233   -9.2016   17.8702 N   0  0  0  0  0  0  0  0  0  0  0  0
   10.3712   -3.4692   23.7820 C   0  0  0  0  0  0  0  0  0  0  0  0
   10.9888   -4.0216   20.0466 C   0  0  0  0  0  0  0  0  0  0  0  0
   10.4579   -5.2569   20.0178 C   0  0  0  0  0  0  0  0  0  0  0  0
  1  3  4  0
  1  7  4  0
  2 21  4  0
  2 27  4  0
  3  9  4  0
  3 10  4  0
  4  8  4  0
  4 18  4  0
  4 25  1  0
  5  9  4  0
  5 12  4  0
  6 13  1  0
  6 27  1  0
  7 28  4  0
  8 11  4  0
  9 29  4  0
 10 12  4  0
 11 24  1  0
 11 26  4  0
 12 25  1  0
 13 28  1  0
 14 20  4  0
 14 23  4  0
 15 17  4  0
 15 21  4  0
 16 19  4  0
 16 23  4  0
 17 22  4  0
 18 26  4  0
 19 24  4  0
 20 24  4  0
 22 27  4  0
 28 29  4  0
M  END
$$$$

 Created by Python create_sdf_string function

 29 61  0  0  0  0  0  0  0  0999 V2000
   11.0443   -3.6600   17.8780 C   0  0  0  0  0  0  0  0  0  0  0  0
   10.5763   -4.7418   25.5382 N   0  0  0  0  0  0  0  0  0  0  0  0
   10.0349   -5.1000   17.4291 C   0  0  0  0  0  0  0  0  0  0  0  0
    7.6442   -7.0976   17.1525 C   0  0  0  0  0  0  0  0  0  0  0  0
    8.9366   -6.8688   19.1679 S   0  0  0  0  0  0  0  0  0  0  0  0
   11.8009   -4.4934   23.3579 C   0  0  0  0  0  0  0  0  0  0  0  0
   11.5798   -3.6284   19.3456 C   0  0  0  0  0  0  0  0  0  0  0  0
    5.3894   -7.5496   15.8967 C   0  0  0  0  0  0  0  0  0  0  0  0
   10.5313   -5.9455   18.6533 C   0  0  0  0  0  0  0  0  0  0  0  0
    9.3091   -5.0312   16.9960 N   0  0  0  0  0  0  0  0  0  0  0  0
    4.8117   -8.7133   16.7786 O   0  0  0  0  0  0  0  0  0  0  0  0
    9.1583   -6.8404   16.4775 C   0  0  0  0  0  0  0  0  0  0  0  0
   11.2113   -3.4243   22.3956 C   0  0  0  0  0  0  0  0  0  0  0  0
    1.5769   -9.8762   17.4625 C   0  0  0  0  0  0  0  0  0  0  0  0
    8.8386   -1.5497   24.7843 C   0  0  0  0  0  0  0  0  0  0  0  0
    7.4918   -8.9884   17.1969 O   0  0  0  0  0  0  0  0  0  0  0  0
    2.8092   -9.9558   17.7170 C   0  0  0  0  0  0  0  0  0  0  0  0
    9.8849   -4.1741   25.6025 F   0  0  0  0  0  0  0  0  0  0  0  0
    9.9597   -2.1585   23.6575 C   0  0  0  0  0  0  0  0  0  0  0  0
    0.5662   -9.5020   16.2258 C   0  0  0  0  0  0  0  0  0  0  0  0
    2.9541   -9.1235   18.0131 C   0  0  0  0  0  0  0  0  0  0  0  0
    6.1277   -8.4710   18.1017 N   0  0  0  0  0  0  0  0  0  0  0  0
   10.4730   -3.3863   24.2512 C   0  0  0  0  0  0  0  0  0  0  0  0
   11.3698   -3.5823   20.4187 C   0  0  0  0  0  0  0  0  0  0  0  0
   10.7874   -4.9541   19.4251 C   0  0  0  0  0  0  0  0  0  0  0  0
    0.9875   -8.4810   16.3807 He  0  0  0  0  0  0  0  0  0  0  0  0
    9.5846   -2.1596   25.7443 He  0  0  0  0  0  0  0  0  0  0  0  0
    2.7630   -7.7042   15.8513 He  0  0  0  0  0  0  0  0  0  0  0  0
    8.3930   -7.1722   15.3445 He  0  0  0  0  0  0  0  0  0  0  0  0
  1  3  4  0
  1  7  4  0
  1 14  4  0
  1 16  2  0
  2 18  3  0
  2 19  4  0
  2 20  3  0
  2 23  4  0
  3  7  1  0
  3  9  4  0
  3 10  4  0
  3 12  2  0
  3 18  2  0
  3 25  2  0
  4 16  4  0
  4 18  3  0
  4 22  2  0
  5  6  4  0
  5  7  2  0
  5  9  2  0
  5 12  4  0
  5 19  1  0
  6 13  1  0
  6 15  4  0
  6 17  1  0
  6 19  3  0
  7 11  3  0
  7 19  1  0
  7 22  1  0
  7 24  4  0
  8 10  2  0
  8 14  1  0
  8 19  4  0
  9 10  3  0
  9 16  2  0
  9 19  2  0
 10 12  4  0
 10 15  2  0
 10 17  4  0
 11 21  2  0
 11 22  4  0
 11 23  2  0
 11 24  1  0
 11 25  1  0
 12 13  2  0
 12 20  4  0
 13 20  2  0
 13 21  4  0
 14 17  4  0
 14 18  4  0
 14 20  4  0
 15 18  1  0
 15 25  2  0
 16 18  4  0
 16 19  4  0
 16 22  4  0
 18 25  4  0
 19 23  4  0
 20 21  1  0
 21 25  2  0
 24 25  4  0
M  END
$$$$

 Created by Python create_sdf_string function

 29 33  0  0  0  0  0  0  0  0999 V2000
   10.8017   -3.5836   17.9705 C   0  0  0  0  0  0  0  0  0  0  0  0
   10.5795   -4.2825   25.1692 N   0  0  0  0  0  0  0  0  0  0  0  0
   10.1900   -4.7913   17.8356 C   0  0  0  0  0  0  0  0  0  0  0  0
    6.9811   -7.6887   16.5221 C   0  0  0  0  0  0  0  0  0  0  0  0
    9.4347   -7.1272   18.4757 S   0  0  0  0  0  0  0  0  0  0  0  0
   11.3316   -4.2366   22.7662 C   0  0  0  0  0  0  0  0  0  0  0  0
   11.1273   -3.1757   19.2082 C   0  0  0  0  0  0  0  0  0  0  0  0
    5.7069   -7.5865   16.1385 C   0  0  0  0  0  0  0  0  0  0  0  0
   10.1467   -5.6853   18.8402 C   0  0  0  0  0  0  0  0  0  0  0  0
    9.5803   -5.2082   16.7637 N   0  0  0  0  0  0  0  0  0  0  0  0
    4.8893   -8.4588   17.0090 C   0  0  0  0  0  0  0  0  0  0  0  0
    9.0562   -6.3818   16.9447 C   0  0  0  0  0  0  0  0  0  0  0  0
   11.4999   -3.5996   21.6175 C   0  0  0  0  0  0  0  0  0  0  0  0
    1.3406   -8.4282   15.9548 C   0  0  0  0  0  0  0  0  0  0  0  0
    9.1080   -2.5204   25.9247 C   0  0  0  0  0  0  0  0  0  0  0  0
    1.6493  -10.1810   17.5198 C   0  0  0  0  0  0  0  0  0  0  0  0
    9.3198   -1.7578   24.9268 C   0  0  0  0  0  0  0  0  0  0  0  0
    7.0000   -8.4804   17.5934 O   0  0  0  0  0  0  0  0  0  0  0  0
    2.9666   -9.8652   17.6118 C   0  0  0  0  0  0  0  0  0  0  0  0
    2.6802   -8.0621   16.0503 C   0  0  0  0  0  0  0  0  0  0  0  0
    9.7674   -3.7246   26.0873 C   0  0  0  0  0  0  0  0  0  0  0  0
   10.0538   -2.3076   23.8494 C   0  0  0  0  0  0  0  0  0  0  0  0
    0.8746   -9.4849   16.6782 C   0  0  0  0  0  0  0  0  0  0  0  0
    3.5289   -8.7939   16.9044 C   0  0  0  0  0  0  0  0  0  0  0  0
    8.1873   -7.0978   15.8287 C   0  0  0  0  0  0  0  0  0  0  0  0
    5.7743   -8.9324   17.8988 N   0  0  0  0  0  0  0  0  0  0  0  0
   10.6417   -3.5736   24.0112 C   0  0  0  0  0  0  0  0  0  0  0  0
   11.1233   -3.9972   20.2523 C   0  0  0  0  0  0  0  0  0  0  0  0
   10.6505   -5.3077   20.0837 C   0  0  0  0  0  0  0  0  0  0  0  0
  1  3  4  0
  1  7  4  0
  2 21  4  0
  2 27  4  0
  3  9  4  0
  3 10  4  0
  4  8  4  0
  4 18  4  0
  4 25  1  0
  5  9  4  0
  5 12  4  0
  6 13  1  0
  6 27  1  0
  7 28  4  0
  8 11  4  0
  9 29  4  0
 10 12  4  0
 11 24  1  0
 11 26  4  0
 12 25  1  0
 13 28  1  0
 14 20  4  0
 14 23  4  0
 15 17  4  0
 15 21  4  0
 16 19  4  0
 16 23  4  0
 17 22  4  0
 18 26  4  0
 19 24  4  0
 20 24  4  0
 22 27  4  0
 28 29  4  0
M  END
$$$$

 Created by Python create_sdf_string function

 29 40  0  0  0  0  0  0  0  0999 V2000
   10.7582   -2.6897   17.7791 C   0  0  0  0  0  0  0  0  0  0  0  0
   10.5318   -4.9439   17.7409 C   0  0  0  0  0  0  0  0  0  0  0  0
    9.3656   -6.8658   18.9356 S   0  0  0  0  0  0  0  0  0  0  0  0
   10.8713   -3.5201   19.0809 C   0  0  0  0  0  0  0  0  0  0  0  0
    5.0179   -7.4751   16.5794 C   0  0  0  0  0  0  0  0  0  0  0  0
    9.4913   -5.0917   16.6137 N   0  0  0  0  0  0  0  0  0  0  0  0
    5.0734   -8.2223   16.8469 C   0  0  0  0  0  0  0  0  0  0  0  0
    9.2873   -6.7161   16.8806 C   0  0  0  0  0  0  0  0  0  0  0  0
   11.2334   -3.0742   21.6381 C   0  0  0  0  0  0  0  0  0  0  0  0
    9.4292   -2.0737   25.8139 C   0  0  0  0  0  0  0  0  0  0  0  0
    6.4715   -8.4752   17.0180 O   0  0  0  0  0  0  0  0  0  0  0  0
    2.6102   -9.8243   17.6095 C   0  0  0  0  0  0  0  0  0  0  0  0
    2.8776   -8.2749   15.8427 C   0  0  0  0  0  0  0  0  0  0  0  0
    9.8831   -3.8222   25.6252 F   0  0  0  0  0  0  0  0  0  0  0  0
    9.8911   -2.5660   23.8734 C   0  0  0  0  0  0  0  0  0  0  0  0
    1.0305   -9.6029   17.2066 C   0  0  0  0  0  0  0  0  0  0  0  0
    3.3719   -8.8224   16.5865 O   0  0  0  0  0  0  0  0  0  0  0  0
    8.9936   -7.6455   15.5985 C   0  0  0  0  0  0  0  0  0  0  0  0
    6.5027   -9.0831   17.5444 B   0  0  0  0  0  0  0  0  0  0  0  0
   10.1650   -3.8836   23.3311 C   0  0  0  0  0  0  0  0  0  0  0  0
   11.4505   -3.5424   19.9487 C   0  0  0  0  0  0  0  0  0  0  0  0
   10.7143   -5.3209   20.0073 C   0  0  0  0  0  0  0  0  0  0  0  0
   10.6687   -3.8390   25.5509 He  0  0  0  0  0  0  0  0  0  0  0  0
    7.4697   -8.0725   16.7140 He  0  0  0  0  0  0  0  0  0  0  0  0
   11.2455   -4.7063   22.2558 He  0  0  0  0  0  0  0  0  0  0  0  0
   10.1781   -5.4623   18.6625 He  0  0  0  0  0  0  0  0  0  0  0  0
    0.8579   -8.3439   16.5578 He  0  0  0  0  0  0  0  0  0  0  0  0
    1.5985  -10.2069   17.3385 He  0  0  0  0  0  0  0  0  0  0  0  0
    9.6558   -1.4843   24.7468 He  0  0  0  0  0  0  0  0  0  0  0  0
  1  2  4  0
  2  6  4  0
  2  8  1  0
  2 21  1  0
  2 22  3  0
  3  5  2  0
  3 19  2  0
  4 19  1  0
  4 21  4  0
  4 22  1  0
  5  7  4  0
  5  8  2  0
  5 15  3  0
  6  8  4  0
  7 11  4  0
  7 13  4  0
  7 17  2  0
  7 18  3  0
  7 19  1  0
  7 20  1  0
  8 13  2  0
  8 18  1  0
  8 21  3  0
  9 16  4  0
  9 21  3  0
 10 14  4  0
 10 17  2  0
 11 19  4  0
 11 22  2  0
 12 14  1  0
 12 17  4  0
 12 20  4  0
 13 17  4  0
 14 15  1  0
 14 16  2  0
 14 17  2  0
 16 17  1  0
 17 20  3  0
 18 21  4  0
 21 22  3  0
M  END
$$$$

 Created by Python create_sdf_string function

 29 33  0  0  0  0  0  0  0  0999 V2000
   10.7036   -3.4896   17.7755 C   0  0  0  0  0  0  0  0  0  0  0  0
   10.5177   -4.1555   24.9849 C   0  0  0  0  0  0  0  0  0  0  0  0
   10.1705   -4.7739   17.6145 C   0  0  0  0  0  0  0  0  0  0  0  0
    7.1325   -7.8686   16.4659 C   0  0  0  0  0  0  0  0  0  0  0  0
    9.4648   -7.1503   18.4022 S   0  0  0  0  0  0  0  0  0  0  0  0
   11.1202   -4.2468   22.5025 C   0  0  0  0  0  0  0  0  0  0  0  0
   11.0492   -3.0557   19.0014 C   0  0  0  0  0  0  0  0  0  0  0  0
    5.7447   -7.5496   16.2410 C   0  0  0  0  0  0  0  0  0  0  0  0
   10.1536   -5.6316   18.7112 C   0  0  0  0  0  0  0  0  0  0  0  0
    9.5989   -5.3448   16.5390 N   0  0  0  0  0  0  0  0  0  0  0  0
    4.9118   -8.4854   16.8485 C   0  0  0  0  0  0  0  0  0  0  0  0
    9.1565   -6.5309   16.8330 C   0  0  0  0  0  0  0  0  0  0  0  0
   11.4741   -3.5164   21.4352 C   0  0  0  0  0  0  0  0  0  0  0  0
    1.2299   -8.3863   16.2101 C   0  0  0  0  0  0  0  0  0  0  0  0
    9.3691   -2.2851   25.8173 C   0  0  0  0  0  0  0  0  0  0  0  0
    1.6638  -10.2762   17.6130 C   0  0  0  0  0  0  0  0  0  0  0  0
    9.4096   -1.6051   24.6189 C   0  0  0  0  0  0  0  0  0  0  0  0
    7.0294   -8.8529   17.2760 N   0  0  0  0  0  0  0  0  0  0  0  0
    2.9799   -9.9409   17.5183 C   0  0  0  0  0  0  0  0  0  0  0  0
    2.6178   -8.0508   16.2390 C   0  0  0  0  0  0  0  0  0  0  0  0
    9.9675   -3.5296   25.9713 C   0  0  0  0  0  0  0  0  0  0  0  0
   10.0852   -2.1991   23.5579 C   0  0  0  0  0  0  0  0  0  0  0  0
    0.8000   -9.4981   16.9226 C   0  0  0  0  0  0  0  0  0  0  0  0
    3.4582   -8.8076   16.8404 C   0  0  0  0  0  0  0  0  0  0  0  0
    8.3914   -7.4405   15.8828 C   0  0  0  0  0  0  0  0  0  0  0  0
    5.8201   -9.2896   17.5447 N   0  0  0  0  0  0  0  0  0  0  0  0
   10.5739   -3.5309   23.7390 C   0  0  0  0  0  0  0  0  0  0  0  0
   11.0559   -3.8810   20.0752 C   0  0  0  0  0  0  0  0  0  0  0  0
   10.6350   -5.2492   19.9267 C   0  0  0  0  0  0  0  0  0  0  0  0
  1  3  4  0
  1  7  4  0
  2 21  4  0
  2 27  4  0
  3  9  4  0
  3 10  4  0
  4  8  4  0
  4 18  4  0
  4 25  1  0
  5  9  4  0
  5 12  4  0
  6 13  1  0
  6 27  1  0
  7 28  4  0
  8 11  4  0
  9 29  4  0
 10 12  4  0
 11 24  1  0
 11 26  4  0
 12 25  1  0
 13 28  1  0
 14 20  4  0
 14 23  4  0
 15 17  4  0
 15 21  4  0
 16 19  4  0
 16 23  4  0
 17 22  4  0
 18 26  4  0
 19 24  4  0
 20 24  4  0
 22 27  4  0
 28 29  4  0
M  END
$$$$

 Created by Python create_sdf_string function

 29 59  0  0  0  0  0  0  0  0999 V2000
   10.8920   -3.5055   18.2491 C   0  0  0  0  0  0  0  0  0  0  0  0
   10.4448   -4.3601   25.3470 C   0  0  0  0  0  0  0  0  0  0  0  0
   10.2208   -4.8178   17.7235 P   0  0  0  0  0  0  0  0  0  0  0  0
    9.4300   -7.3843   19.1559 S   0  0  0  0  0  0  0  0  0  0  0  0
   11.2305   -4.1808   22.6600 C   0  0  0  0  0  0  0  0  0  0  0  0
   10.5996   -3.4598   19.1761 C   0  0  0  0  0  0  0  0  0  0  0  0
    5.6046   -7.3981   16.3563 C   0  0  0  0  0  0  0  0  0  0  0  0
    9.4278   -5.1520   15.9855 C   0  0  0  0  0  0  0  0  0  0  0  0
    4.6087   -8.9007   17.5255 C   0  0  0  0  0  0  0  0  0  0  0  0
    9.0036   -7.0455   16.7327 C   0  0  0  0  0  0  0  0  0  0  0  0
   11.5567   -3.3568   20.9275 C   0  0  0  0  0  0  0  0  0  0  0  0
    0.9749   -8.5993   15.8040 C   0  0  0  0  0  0  0  0  0  0  0  0
    1.5564  -10.7160   17.4057 C   0  0  0  0  0  0  0  0  0  0  0  0
   10.2766   -1.8773   24.6328 Se  0  0  0  0  0  0  0  0  0  0  0  0
    6.9945   -9.3694   16.7465 N   0  0  0  0  0  0  0  0  0  0  0  0
    2.8836   -9.6173   17.6005 C   0  0  0  0  0  0  0  0  0  0  0  0
    2.0707   -7.3973   15.9126 C   0  0  0  0  0  0  0  0  0  0  0  0
    9.9813   -4.0579   26.0708 C   0  0  0  0  0  0  0  0  0  0  0  0
   10.1502   -2.3779   23.8260 C   0  0  0  0  0  0  0  0  0  0  0  0
    0.7831   -9.0013   17.1301 C   0  0  0  0  0  0  0  0  0  0  0  0
    3.1077   -8.6645   16.6343 Br  0  0  0  0  0  0  0  0  0  0  0  0
    8.5172   -7.4923   15.8899 C   0  0  0  0  0  0  0  0  0  0  0  0
    5.4637   -8.8061   17.7010 N   0  0  0  0  0  0  0  0  0  0  0  0
   10.3091   -3.2911   23.6916 O   0  0  0  0  0  0  0  0  0  0  0  0
   11.3821   -3.7787   19.9922 C   0  0  0  0  0  0  0  0  0  0  0  0
   10.8055   -5.5290   20.6835 C   0  0  0  0  0  0  0  0  0  0  0  0
    6.9467   -7.4880   16.2842 He  0  0  0  0  0  0  0  0  0  0  0  0
    9.9888   -5.3158   18.6799 He  0  0  0  0  0  0  0  0  0  0  0  0
    9.2366   -2.8610   26.1037 He  0  0  0  0  0  0  0  0  0  0  0  0
  1  3  4  0
  1  6  4  0
  1 22  1  0
  2  6  3  0
  2  8  1  0
  2 15  1  0
  2 24  4  0
  3  5  3  0
  3  7  3  0
  3  8  4  0
  3 18  3  0
  3 23  4  0
  3 26  3  0
  4  5  4  0
  4  8  3  0
  4 13  1  0
  4 15  4  0
  4 25  2  0
  5 17  2  0
  5 24  1  0
  6  9  2  0
  6 16  4  0
  6 17  3  0
  6 25  4  0
  7  9  4  0
  7 17  4  0
  7 22  2  0
  7 24  2  0
  8  9  1  0
  8 10  4  0
  8 15  3  0
  8 16  2  0
  9 20  4  0
  9 21  1  0
  9 23  4  0
 10 15  2  0
 10 17  2  0
 10 22  1  0
 11 25  1  0
 12 15  4  0
 12 16  3  0
 12 17  4  0
 12 20  4  0
 12 24  2  0
 13 16  2  0
 13 17  3  0
 13 19  1  0
 13 20  4  0
 14 20  3  0
 14 26  3  0
 15 23  4  0
 16 21  1  0
 17 21  4  0
 17 24  2  0
 18 25  3  0
 19 24  2  0
 21 25  1  0
 22 25  2  0
 25 26  4  0
M  END
$$$$

 Created by Python create_sdf_string function

 29 33  0  0  0  0  0  0  0  0999 V2000
   10.5769   -3.5436   17.8631 C   0  0  0  0  0  0  0  0  0  0  0  0
   10.6073   -4.3389   24.8977 C   0  0  0  0  0  0  0  0  0  0  0  0
   10.0778   -4.8430   17.7301 C   0  0  0  0  0  0  0  0  0  0  0  0
    6.9192   -7.8895   16.4073 N   0  0  0  0  0  0  0  0  0  0  0  0
    9.4123   -7.2236   18.3715 S   0  0  0  0  0  0  0  0  0  0  0  0
   11.1177   -4.2419   22.5506 C   0  0  0  0  0  0  0  0  0  0  0  0
   11.0408   -3.1326   19.0842 C   0  0  0  0  0  0  0  0  0  0  0  0
    5.6187   -7.5854   16.2576 C   0  0  0  0  0  0  0  0  0  0  0  0
   10.1024   -5.7217   18.7916 C   0  0  0  0  0  0  0  0  0  0  0  0
    9.4240   -5.4003   16.6216 N   0  0  0  0  0  0  0  0  0  0  0  0
    4.7611   -8.4969   16.8573 C   0  0  0  0  0  0  0  0  0  0  0  0
    8.9664   -6.6308   16.8306 C   0  0  0  0  0  0  0  0  0  0  0  0
   11.4421   -3.4465   21.4821 C   0  0  0  0  0  0  0  0  0  0  0  0
    1.1978   -8.1869   16.0504 C   0  0  0  0  0  0  0  0  0  0  0  0
    9.4508   -2.5672   26.0407 C   0  0  0  0  0  0  0  0  0  0  0  0
    1.4368  -10.1545   17.4614 C   0  0  0  0  0  0  0  0  0  0  0  0
    9.5648   -1.7476   24.9522 C   0  0  0  0  0  0  0  0  0  0  0  0
    6.8623   -8.9179   17.2513 N   0  0  0  0  0  0  0  0  0  0  0  0
    2.7684   -9.8585   17.5355 C   0  0  0  0  0  0  0  0  0  0  0  0
    2.5352   -7.9311   16.1250 C   0  0  0  0  0  0  0  0  0  0  0  0
    9.9302   -3.8722   25.9773 C   0  0  0  0  0  0  0  0  0  0  0  0
   10.2110   -2.1762   23.7856 C   0  0  0  0  0  0  0  0  0  0  0  0
    0.6819   -9.3319   16.6519 C   0  0  0  0  0  0  0  0  0  0  0  0
    3.3615   -8.7407   16.8134 C   0  0  0  0  0  0  0  0  0  0  0  0
    8.1624   -7.4157   15.7843 C   0  0  0  0  0  0  0  0  0  0  0  0
    5.5950   -9.2168   17.5176 N   0  0  0  0  0  0  0  0  0  0  0  0
   10.6637   -3.5249   23.8255 C   0  0  0  0  0  0  0  0  0  0  0  0
   11.0230   -3.9509   20.1682 C   0  0  0  0  0  0  0  0  0  0  0  0
   10.5754   -5.2750   20.0311 C   0  0  0  0  0  0  0  0  0  0  0  0
  1  3  4  0
  1  7  4  0
  2 21  4  0
  2 27  4  0
  3  9  4  0
  3 10  4  0
  4  8  4  0
  4 18  4  0
  4 25  1  0
  5  9  4  0
  5 12  4  0
  6 13  1  0
  6 27  1  0
  7 28  4  0
  8 11  4  0
  9 29  4  0
 10 12  4  0
 11 24  1  0
 11 26  4  0
 12 25  1  0
 13 28  1  0
 14 20  4  0
 14 23  4  0
 15 17  4  0
 15 21  4  0
 16 19  4  0
 16 23  4  0
 17 22  4  0
 18 26  4  0
 19 24  4  0
 20 24  4  0
 22 27  4  0
 28 29  4  0
M  END
$$$$

 Created by Python create_sdf_string function

 29 46  0  0  0  0  0  0  0  0999 V2000
   10.1341   -4.1081   17.7739 C   0  0  0  0  0  0  0  0  0  0  0  0
    6.8757   -7.7018   16.7816 C   0  0  0  0  0  0  0  0  0  0  0  0
    8.7605   -7.3097   17.7737 S   0  0  0  0  0  0  0  0  0  0  0  0
   11.0575   -4.2695   22.9698 C   0  0  0  0  0  0  0  0  0  0  0  0
    5.1946   -7.2071   16.1227 C   0  0  0  0  0  0  0  0  0  0  0  0
   10.0020   -6.3100   18.8916 C   0  0  0  0  0  0  0  0  0  0  0  0
    9.8546   -5.5374   16.2407 N   0  0  0  0  0  0  0  0  0  0  0  0
    4.4589   -8.5336   16.7337 C   0  0  0  0  0  0  0  0  0  0  0  0
    9.1065   -6.2582   16.6377 C   0  0  0  0  0  0  0  0  0  0  0  0
   11.2176   -3.1917   21.0659 C   0  0  0  0  0  0  0  0  0  0  0  0
    1.5168   -8.4410   15.9217 C   0  0  0  0  0  0  0  0  0  0  0  0
    9.8672   -2.2842   25.8243 C   0  0  0  0  0  0  0  0  0  0  0  0
    9.0224   -1.2933   24.4206 C   0  0  0  0  0  0  0  0  0  0  0  0
    2.7215  -10.0077   17.4827 C   0  0  0  0  0  0  0  0  0  0  0  0
    2.5253   -7.5970   15.7905 C   0  0  0  0  0  0  0  0  0  0  0  0
    9.9684   -3.9188   25.8294 C   0  0  0  0  0  0  0  0  0  0  0  0
   10.2320   -2.1234   23.7420 C   0  0  0  0  0  0  0  0  0  0  0  0
    1.0671   -9.1078   16.3491 I   0  0  0  0  0  0  0  0  0  0  0  0
    3.1176   -9.2548   17.2385 O   0  0  0  0  0  0  0  0  0  0  0  0
    6.2308   -9.2220   16.6693 N   0  0  0  0  0  0  0  0  0  0  0  0
   10.7498   -3.1260   24.1586 C   0  0  0  0  0  0  0  0  0  0  0  0
   11.0524   -4.1759   20.4071 C   0  0  0  0  0  0  0  0  0  0  0  0
   10.4211   -5.2035   20.2561 C   0  0  0  0  0  0  0  0  0  0  0  0
   11.0072   -4.2694   24.5862 He  0  0  0  0  0  0  0  0  0  0  0  0
   10.7791   -4.3934   17.9991 He  0  0  0  0  0  0  0  0  0  0  0  0
   10.8368   -3.2493   19.3556 He  0  0  0  0  0  0  0  0  0  0  0  0
    1.1752  -10.3945   17.6814 He  0  0  0  0  0  0  0  0  0  0  0  0
    6.8081   -8.8705   17.1447 He  0  0  0  0  0  0  0  0  0  0  0  0
    8.0759   -7.1115   15.6128 He  0  0  0  0  0  0  0  0  0  0  0  0
  1  9  2  0
  1 11  3  0
  1 15  3  0
  1 16  1  0
  2  5  4  0
  2 12  2  0
  2 17  2  0
  2 18  2  0
  3  5  4  0
  3  6  4  0
  3  9  4  0
  3 16  1  0
  4  8  3  0
  4 12  3  0
  4 17  3  0
  4 20  1  0
  4 22  4  0
  6 23  4  0
  7  9  4  0
  7 11  3  0
  8 12  3  0
  8 14  2  0
  8 20  4  0
  8 23  4  0
 10 15  2  0
 10 16  1  0
 10 22  1  0
 11 18  4  0
 12 13  4  0
 12 16  2  0
 12 21  1  0
 13 18  3  0
 14 19  4  0
 14 22  3  0
 15 19  4  0
 15 22  1  0
 16 19  1  0
 16 20  1  0
 17 21  4  0
 17 23  2  0
 18 20  4  0
 18 21  2  0
 19 20  1  0
 19 22  2  0
 21 22  1  0
 22 23  4  0
M  END
$$$$

 Created by Python create_sdf_string function

 29 33  0  0  0  0  0  0  0  0999 V2000
   10.5732   -3.7122   17.7842 C   0  0  0  0  0  0  0  0  0  0  0  0
   10.7015   -4.0793   24.9237 C   0  0  0  0  0  0  0  0  0  0  0  0
   10.1036   -4.9779   17.6812 C   0  0  0  0  0  0  0  0  0  0  0  0
    6.8329   -7.7490   16.3012 C   0  0  0  0  0  0  0  0  0  0  0  0
    9.2034   -7.1979   18.1544 S   0  0  0  0  0  0  0  0  0  0  0  0
   11.2775   -4.1303   22.5432 C   0  0  0  0  0  0  0  0  0  0  0  0
   10.9301   -3.2808   19.0307 C   0  0  0  0  0  0  0  0  0  0  0  0
    5.5700   -7.4822   16.2541 C   0  0  0  0  0  0  0  0  0  0  0  0
    9.9698   -5.8441   18.7315 C   0  0  0  0  0  0  0  0  0  0  0  0
    9.5497   -5.4095   16.4684 N   0  0  0  0  0  0  0  0  0  0  0  0
    4.7857   -8.5999   16.7431 C   0  0  0  0  0  0  0  0  0  0  0  0
    8.9098   -6.4654   16.7105 C   0  0  0  0  0  0  0  0  0  0  0  0
   11.3064   -3.5538   21.3757 C   0  0  0  0  0  0  0  0  0  0  0  0
    1.1821   -8.3645   15.9459 C   0  0  0  0  0  0  0  0  0  0  0  0
    9.3250   -2.3516   25.9321 C   0  0  0  0  0  0  0  0  0  0  0  0
    1.5136  -10.1748   17.4066 C   0  0  0  0  0  0  0  0  0  0  0  0
    9.4578   -1.5520   24.8183 C   0  0  0  0  0  0  0  0  0  0  0  0
    6.8809   -9.0039   16.9042 N   0  0  0  0  0  0  0  0  0  0  0  0
    2.8332   -9.9086   17.4415 C   0  0  0  0  0  0  0  0  0  0  0  0
    2.5306   -8.0041   15.9704 C   0  0  0  0  0  0  0  0  0  0  0  0
   10.0125   -3.5134   26.0090 C   0  0  0  0  0  0  0  0  0  0  0  0
   10.1404   -2.0475   23.6821 C   0  0  0  0  0  0  0  0  0  0  0  0
    0.7149   -9.4646   16.6381 C   0  0  0  0  0  0  0  0  0  0  0  0
    3.3854   -8.8324   16.7114 C   0  0  0  0  0  0  0  0  0  0  0  0
    7.8390   -6.9053   15.7356 C   0  0  0  0  0  0  0  0  0  0  0  0
    5.6928   -9.4179   17.2347 N   0  0  0  0  0  0  0  0  0  0  0  0
   10.6864   -3.3588   23.7888 C   0  0  0  0  0  0  0  0  0  0  0  0
   10.8861   -4.1037   20.1299 C   0  0  0  0  0  0  0  0  0  0  0  0
   10.5205   -5.4206   19.9421 C   0  0  0  0  0  0  0  0  0  0  0  0
  1  3  4  0
  1  7  4  0
  2 21  4  0
  2 27  4  0
  3  9  4  0
  3 10  4  0
  4  8  4  0
  4 18  4  0
  4 25  1  0
  5  9  4  0
  5 12  4  0
  6 13  1  0
  6 27  1  0
  7 28  4  0
  8 11  4  0
  9 29  4  0
 10 12  4  0
 11 24  1  0
 11 26  4  0
 12 25  1  0
 13 28  1  0
 14 20  4  0
 14 23  4  0
 15 17  4  0
 15 21  4  0
 16 19  4  0
 16 23  4  0
 17 22  4  0
 18 26  4  0
 19 24  4  0
 20 24  4  0
 22 27  4  0
 28 29  4  0
M  END
$$$$

 Created by Python create_sdf_string function

 29 41  0  0  0  0  0  0  0  0999 V2000
   10.5705   -3.5535   17.4942 C   0  0  0  0  0  0  0  0  0  0  0  0
   10.5096   -4.0028   25.2006 O   0  0  0  0  0  0  0  0  0  0  0  0
   10.2355   -4.6043   17.8748 C   0  0  0  0  0  0  0  0  0  0  0  0
    9.3906   -7.0476   17.6971 C   0  0  0  0  0  0  0  0  0  0  0  0
    5.5692   -7.3614   15.7791 C   0  0  0  0  0  0  0  0  0  0  0  0
    9.6738   -5.8664   18.5438 C   0  0  0  0  0  0  0  0  0  0  0  0
    9.5626   -4.9759   16.3313 N   0  0  0  0  0  0  0  0  0  0  0  0
    4.7120   -8.4243   16.5871 C   0  0  0  0  0  0  0  0  0  0  0  0
    8.6494   -6.4498   16.6865 C   0  0  0  0  0  0  0  0  0  0  0  0
    1.3963   -8.5341   15.7570 Cl  0  0  0  0  0  0  0  0  0  0  0  0
    9.0473   -2.5642   25.6365 F   0  0  0  0  0  0  0  0  0  0  0  0
    2.0664  -10.0498   17.0438 C   0  0  0  0  0  0  0  0  0  0  0  0
    8.7823   -1.5727   25.0929 C   0  0  0  0  0  0  0  0  0  0  0  0
    7.0736   -8.6431   16.4157 N   0  0  0  0  0  0  0  0  0  0  0  0
    3.0952   -9.8653   17.7771 C   0  0  0  0  0  0  0  0  0  0  0  0
    2.4075   -8.1530   16.0442 C   0  0  0  0  0  0  0  0  0  0  0  0
    9.7178   -3.6937   26.5969 C   0  0  0  0  0  0  0  0  0  0  0  0
    9.6560   -1.9379   23.6975 C   0  0  0  0  0  0  0  0  0  0  0  0
    0.8208   -8.8732   16.6396 C   0  0  0  0  0  0  0  0  0  0  0  0
    3.8709   -8.8861   17.1406 C   0  0  0  0  0  0  0  0  0  0  0  0
   10.3996   -2.9395   23.2595 C   0  0  0  0  0  0  0  0  0  0  0  0
   11.1872   -4.4984   20.1544 C   0  0  0  0  0  0  0  0  0  0  0  0
    6.8373   -8.1617   16.1903 He  0  0  0  0  0  0  0  0  0  0  0  0
   11.0628   -4.7582   22.7293 He  0  0  0  0  0  0  0  0  0  0  0  0
   11.1177   -3.0920   19.3846 He  0  0  0  0  0  0  0  0  0  0  0  0
   11.3805   -3.7374   21.3295 He  0  0  0  0  0  0  0  0  0  0  0  0
    7.7148   -7.1788   15.5804 He  0  0  0  0  0  0  0  0  0  0  0  0
    5.8172   -9.6096   17.5631 He  0  0  0  0  0  0  0  0  0  0  0  0
    9.9599   -5.4246   19.9853 He  0  0  0  0  0  0  0  0  0  0  0  0
  1  3  4  0
  1 11  2  0
  1 19  3  0
  2  8  4  0
  2  9  3  0
  2 17  2  0
  2 21  3  0
  2 22  4  0
  3  6  4  0
  3  7  4  0
  3 19  4  0
  4  6  4  0
  4  7  3  0
  4  9  4  0
  4 11  1  0
  4 20  4  0
  4 21  1  0
  5 15  2  0
  5 18  1  0
  6 19  2  0
  7  9  4  0
  7 21  3  0
  8 20  1  0
  9 16  3  0
  9 19  3  0
  9 22  1  0
 10 11  4  0
 10 16  4  0
 10 19  4  0
 10 22  1  0
 11 13  4  0
 11 20  4  0
 12 15  4  0
 12 19  3  0
 13 15  1  0
 14 22  3  0
 15 19  2  0
 15 21  3  0
 16 20  4  0
 17 19  4  0
 18 21  1  0
M  END
$$$$

 Created by Python create_sdf_string function

 29 33  0  0  0  0  0  0  0  0999 V2000
   10.6217   -3.5713   17.8383 C   0  0  0  0  0  0  0  0  0  0  0  0
   10.5066   -4.0246   24.9770 C   0  0  0  0  0  0  0  0  0  0  0  0
    9.9991   -4.7711   17.5882 C   0  0  0  0  0  0  0  0  0  0  0  0
    6.9523   -7.8167   16.1476 N   0  0  0  0  0  0  0  0  0  0  0  0
    9.1404   -6.8111   17.9205 C   0  0  0  0  0  0  0  0  0  0  0  0
   10.8383   -4.1743   22.5974 C   0  0  0  0  0  0  0  0  0  0  0  0
   11.0252   -3.2691   19.1365 C   0  0  0  0  0  0  0  0  0  0  0  0
    5.6777   -7.5971   16.0291 C   0  0  0  0  0  0  0  0  0  0  0  0
    9.8806   -5.7426   18.5494 C   0  0  0  0  0  0  0  0  0  0  0  0
    9.4181   -5.1569   16.4345 N   0  0  0  0  0  0  0  0  0  0  0  0
    4.9447   -8.6257   16.6610 C   0  0  0  0  0  0  0  0  0  0  0  0
    8.8316   -6.3516   16.5948 C   0  0  0  0  0  0  0  0  0  0  0  0
   11.3398   -3.7847   21.4566 C   0  0  0  0  0  0  0  0  0  0  0  0
    1.3573   -8.3187   15.9348 C   0  0  0  0  0  0  0  0  0  0  0  0
    9.0073   -2.3739   25.8911 C   0  0  0  0  0  0  0  0  0  0  0  0
    1.6421  -10.1200   17.4857 C   0  0  0  0  0  0  0  0  0  0  0  0
    9.1334   -1.5981   24.7895 C   0  0  0  0  0  0  0  0  0  0  0  0
    7.0556   -8.9114   16.8772 N   0  0  0  0  0  0  0  0  0  0  0  0
    2.9707   -9.8757   17.5277 C   0  0  0  0  0  0  0  0  0  0  0  0
    2.6550   -8.0434   15.9701 C   0  0  0  0  0  0  0  0  0  0  0  0
    9.7414   -3.5828   26.0234 C   0  0  0  0  0  0  0  0  0  0  0  0
    9.8239   -2.0759   23.7051 C   0  0  0  0  0  0  0  0  0  0  0  0
    0.8697   -9.4000   16.6098 C   0  0  0  0  0  0  0  0  0  0  0  0
    3.5471   -8.8471   16.6995 C   0  0  0  0  0  0  0  0  0  0  0  0
    7.9743   -7.0318   15.4839 C   0  0  0  0  0  0  0  0  0  0  0  0
    5.8985   -9.3469   17.2275 N   0  0  0  0  0  0  0  0  0  0  0  0
   10.4258   -3.3604   23.8126 C   0  0  0  0  0  0  0  0  0  0  0  0
   10.9141   -4.2017   20.1327 C   0  0  0  0  0  0  0  0  0  0  0  0
   10.3943   -5.4335   19.8739 C   0  0  0  0  0  0  0  0  0  0  0  0
  1  3  4  0
  1  7  4  0
  2 21  4  0
  2 27  4  0
  3  9  4  0
  3 10  4  0
  4  8  4  0
  4 18  4  0
  4 25  1  0
  5  9  4  0
  5 12  4  0
  6 13  1  0
  6 27  1  0
  7 28  4  0
  8 11  4  0
  9 29  4  0
 10 12  4  0
 11 24  1  0
 11 26  4  0
 12 25  1  0
 13 28  1  0
 14 20  4  0
 14 23  4  0
 15 17  4  0
 15 21  4  0
 16 19  4  0
 16 23  4  0
 17 22  4  0
 18 26  4  0
 19 24  4  0
 20 24  4  0
 22 27  4  0
 28 29  4  0
M  END
$$$$

 Created by Python create_sdf_string function

 29 48  0  0  0  0  0  0  0  0999 V2000
   10.2202   -3.8629   18.2450 C   0  0  0  0  0  0  0  0  0  0  0  0
   10.4160   -4.0311   25.6418 C   0  0  0  0  0  0  0  0  0  0  0  0
    6.3692   -7.4091   15.9515 N   0  0  0  0  0  0  0  0  0  0  0  0
    8.6821   -6.8320   17.3938 C   0  0  0  0  0  0  0  0  0  0  0  0
   11.2556   -4.0381   22.2979 C   0  0  0  0  0  0  0  0  0  0  0  0
    5.5898   -7.4937   15.8726 C   0  0  0  0  0  0  0  0  0  0  0  0
    9.6897   -5.4246   18.7363 C   0  0  0  0  0  0  0  0  0  0  0  0
    9.0315   -5.2673   16.9499 N   0  0  0  0  0  0  0  0  0  0  0  0
    4.7094   -8.4471   16.7873 C   0  0  0  0  0  0  0  0  0  0  0  0
   11.2770   -3.9750   21.7301 C   0  0  0  0  0  0  0  0  0  0  0  0
    1.7913   -8.1328   15.5766 O   0  0  0  0  0  0  0  0  0  0  0  0
    9.0555   -2.3886   25.5120 Cl  0  0  0  0  0  0  0  0  0  0  0  0
    1.6279  -10.1963   17.4144 C   0  0  0  0  0  0  0  0  0  0  0  0
    6.8602   -8.9493   17.1175 Br  0  0  0  0  0  0  0  0  0  0  0  0
    3.2386   -9.7408   17.9953 C   0  0  0  0  0  0  0  0  0  0  0  0
    2.2066   -7.6910   15.9786 N   0  0  0  0  0  0  0  0  0  0  0  0
    9.9669   -3.1935   26.4721 C   0  0  0  0  0  0  0  0  0  0  0  0
   10.0453   -2.2425   23.9167 C   0  0  0  0  0  0  0  0  0  0  0  0
    0.9343   -9.5337   16.5633 C   0  0  0  0  0  0  0  0  0  0  0  0
    3.9488   -8.7006   17.2724 C   0  0  0  0  0  0  0  0  0  0  0  0
    8.3382   -6.5859   15.2534 C   0  0  0  0  0  0  0  0  0  0  0  0
    5.6021   -9.1230   17.5154 N   0  0  0  0  0  0  0  0  0  0  0  0
   10.0578   -3.5990   23.9089 C   0  0  0  0  0  0  0  0  0  0  0  0
   10.8253   -4.3211   19.8326 C   0  0  0  0  0  0  0  0  0  0  0  0
   11.2730   -5.5310   19.7054 Se  0  0  0  0  0  0  0  0  0  0  0  0
    9.9406   -4.5796   17.7616 He  0  0  0  0  0  0  0  0  0  0  0  0
   11.0738   -2.9921   19.1257 He  0  0  0  0  0  0  0  0  0  0  0  0
    9.0194   -6.2580   15.8033 He  0  0  0  0  0  0  0  0  0  0  0  0
    9.0971   -2.0083   24.8371 He  0  0  0  0  0  0  0  0  0  0  0  0
  1  8  1  0
  1 13  3  0
  2  6  3  0
  2 10  2  0
  2 11  1  0
  2 17  4  0
  2 19  4  0
  2 23  4  0
  3  6  4  0
  3 14  4  0
  4  6  2  0
  4  7  4  0
  4  9  2  0
  4 14  2  0
  4 25  2  0
  5 10  1  0
  5 23  1  0
  6  9  4  0
  7 10  4  0
  7 17  2  0
  7 18  1  0
  7 25  4  0
  8 19  3  0
  8 24  4  0
  9 22  4  0
 10 24  1  0
 11 13  1  0
 11 16  4  0
 11 19  4  0
 11 22  4  0
 12 13  3  0
 12 14  3  0
 12 16  4  0
 12 17  4  0
 13 15  4  0
 13 16  3  0
 13 19  2  0
 14 15  4  0
 14 22  3  0
 15 20  4  0
 15 25  4  0
 16 18  3  0
 16 19  1  0
 16 20  4  0
 18 23  4  0
 18 25  3  0
 19 23  1  0
 22 24  2  0
M  END
$$$$

 Created by Python create_sdf_string function

 29 33  0  0  0  0  0  0  0  0999 V2000
   10.4151   -3.4763   17.9587 C   0  0  0  0  0  0  0  0  0  0  0  0
   10.5813   -4.0630   25.1172 C   0  0  0  0  0  0  0  0  0  0  0  0
    9.9306   -4.6987   17.6711 C   0  0  0  0  0  0  0  0  0  0  0  0
    6.8205   -7.6212   16.1379 C   0  0  0  0  0  0  0  0  0  0  0  0
    9.2590   -6.6284   17.7711 S   0  0  0  0  0  0  0  0  0  0  0  0
   11.0242   -4.3499   22.6563 C   0  0  0  0  0  0  0  0  0  0  0  0
   10.9527   -3.2076   19.2312 C   0  0  0  0  0  0  0  0  0  0  0  0
    5.5142   -7.4880   15.9692 C   0  0  0  0  0  0  0  0  0  0  0  0
    9.9840   -5.6984   18.5098 C   0  0  0  0  0  0  0  0  0  0  0  0
    9.2144   -5.0206   16.4742 N   0  0  0  0  0  0  0  0  0  0  0  0
    4.8135   -8.4467   16.7523 C   0  0  0  0  0  0  0  0  0  0  0  0
    8.7398   -6.0913   16.4818 C   0  0  0  0  0  0  0  0  0  0  0  0
   11.3607   -3.7584   21.5190 C   0  0  0  0  0  0  0  0  0  0  0  0
    1.3405   -8.3607   15.8583 C   0  0  0  0  0  0  0  0  0  0  0  0
    9.1447   -2.3424   25.9556 C   0  0  0  0  0  0  0  0  0  0  0  0
    1.6757  -10.1522   17.4491 C   0  0  0  0  0  0  0  0  0  0  0  0
    9.1848   -1.7035   24.7522 C   0  0  0  0  0  0  0  0  0  0  0  0
    6.9614   -8.6601   17.0600 N   0  0  0  0  0  0  0  0  0  0  0  0
    2.9520   -9.8021   17.5811 C   0  0  0  0  0  0  0  0  0  0  0  0
    2.5863   -8.0021   15.9514 N   0  0  0  0  0  0  0  0  0  0  0  0
    9.8482   -3.5165   26.1167 C   0  0  0  0  0  0  0  0  0  0  0  0
    9.8277   -2.2595   23.6879 C   0  0  0  0  0  0  0  0  0  0  0  0
    0.8929   -9.4998   16.5263 C   0  0  0  0  0  0  0  0  0  0  0  0
    3.4772   -8.7384   16.7568 C   0  0  0  0  0  0  0  0  0  0  0  0
    7.8162   -6.7503   15.4248 C   0  0  0  0  0  0  0  0  0  0  0  0
    5.7658   -9.0659   17.4867 N   0  0  0  0  0  0  0  0  0  0  0  0
   10.5027   -3.4838   23.8948 C   0  0  0  0  0  0  0  0  0  0  0  0
   10.9730   -4.1501   20.1828 C   0  0  0  0  0  0  0  0  0  0  0  0
   10.5805   -5.4036   19.8947 C   0  0  0  0  0  0  0  0  0  0  0  0
  1  3  4  0
  1  7  4  0
  2 21  4  0
  2 27  4  0
  3  9  4  0
  3 10  4  0
  4  8  4  0
  4 18  4  0
  4 25  1  0
  5  9  4  0
  5 12  4  0
  6 13  1  0
  6 27  1  0
  7 28  4  0
  8 11  4  0
  9 29  4  0
 10 12  4  0
 11 24  1  0
 11 26  4  0
 12 25  1  0
 13 28  1  0
 14 20  4  0
 14 23  4  0
 15 17  4  0
 15 21  4  0
 16 19  4  0
 16 23  4  0
 17 22  4  0
 18 26  4  0
 19 24  4  0
 20 24  4  0
 22 27  4  0
 28 29  4  0
M  END
$$$$

 Created by Python create_sdf_string function

 29 56  0  0  0  0  0  0  0  0999 V2000
   10.3867   -3.5801   18.3102 C   0  0  0  0  0  0  0  0  0  0  0  0
   10.7221   -4.3065   25.0732 S   0  0  0  0  0  0  0  0  0  0  0  0
    9.9196   -4.8863   17.5703 C   0  0  0  0  0  0  0  0  0  0  0  0
    6.8510   -7.3840   16.4075 C   0  0  0  0  0  0  0  0  0  0  0  0
    9.4326   -6.3857   17.4031 S   0  0  0  0  0  0  0  0  0  0  0  0
   10.9316   -4.1474   22.7216 C   0  0  0  0  0  0  0  0  0  0  0  0
   11.1061   -3.4292   19.3796 C   0  0  0  0  0  0  0  0  0  0  0  0
    5.2679   -7.3771   15.9254 C   0  0  0  0  0  0  0  0  0  0  0  0
   10.0154   -5.6803   18.8758 C   0  0  0  0  0  0  0  0  0  0  0  0
    8.9734   -4.9842   16.1150 N   0  0  0  0  0  0  0  0  0  0  0  0
    5.4031   -8.7348   16.4948 C   0  0  0  0  0  0  0  0  0  0  0  0
    8.3792   -5.5593   16.4996 C   0  0  0  0  0  0  0  0  0  0  0  0
   11.1594   -4.1092   21.1893 C   0  0  0  0  0  0  0  0  0  0  0  0
    1.4801   -8.6383   15.7370 C   0  0  0  0  0  0  0  0  0  0  0  0
    9.4472   -2.5782   26.2018 F   0  0  0  0  0  0  0  0  0  0  0  0
    8.9040   -1.9671   24.8000 C   0  0  0  0  0  0  0  0  0  0  0  0
    6.7467   -9.1432   16.6729 I   0  0  0  0  0  0  0  0  0  0  0  0
    3.0024   -9.6593   17.8253 O   0  0  0  0  0  0  0  0  0  0  0  0
    2.7019   -7.7302   15.8718 N   0  0  0  0  0  0  0  0  0  0  0  0
   10.2904   -3.2707   26.0735 C   0  0  0  0  0  0  0  0  0  0  0  0
    0.8354   -9.5747   16.6807 C   0  0  0  0  0  0  0  0  0  0  0  0
    3.7460   -9.0335   16.8704 C   0  0  0  0  0  0  0  0  0  0  0  0
    7.7626   -6.2759   14.9836 C   0  0  0  0  0  0  0  0  0  0  0  0
   11.2458   -4.3740   20.6049 C   0  0  0  0  0  0  0  0  0  0  0  0
   10.1817   -5.1456   19.4368 C   0  0  0  0  0  0  0  0  0  0  0  0
    2.0059  -10.1889   17.3549 He  0  0  0  0  0  0  0  0  0  0  0  0
   10.2344   -2.3757   23.7634 He  0  0  0  0  0  0  0  0  0  0  0  0
    6.3266   -9.1915   17.3379 He  0  0  0  0  0  0  0  0  0  0  0  0
   10.5464   -3.6441   23.7096 He  0  0  0  0  0  0  0  0  0  0  0  0
  1  3  4  0
  1  7  4  0
  1 17  4  0
  2 20  4  0
  2 25  2  0
  3  6  3  0
  3  9  4  0
  3 10  4  0
  3 18  4  0
  3 21  2  0
  4  8  4  0
  4 12  2  0
  4 17  4  0
  4 18  3  0
  4 20  1  0
  4 22  1  0
  4 23  1  0
  4 24  4  0
  5  9  2  0
  5 10  3  0
  5 12  4  0
  6  9  4  0
  6 13  1  0
  6 17  2  0
  7  8  3  0
  7 11  2  0
  7 17  3  0
  7 24  4  0
  7 25  2  0
  8 11  4  0
  8 21  3  0
  9 12  3  0
  9 22  3  0
  9 24  3  0
  9 25  4  0
 10 12  4  0
 10 13  2  0
 10 14  1  0
 10 17  3  0
 11 15  2  0
 11 17  2  0
 11 21  3  0
 11 22  1  0
 12 13  4  0
 12 23  1  0
 14 16  3  0
 14 19  4  0
 14 21  4  0
 15 16  4  0
 15 20  4  0
 15 25  2  0
 16 21  1  0
 18 21  2  0
 19 22  4  0
 22 24  3  0
 24 25  3  0
M  END
$$$$

 Created by Python create_sdf_string function

 29 33  0  0  0  0  0  0  0  0999 V2000
   10.5946   -3.3784   17.9237 C   0  0  0  0  0  0  0  0  0  0  0  0
   10.8265   -4.1648   25.0577 C   0  0  0  0  0  0  0  0  0  0  0  0
    9.9061   -4.5069   17.5592 C   0  0  0  0  0  0  0  0  0  0  0  0
    6.8509   -7.4801   16.0208 C   0  0  0  0  0  0  0  0  0  0  0  0
    9.1055   -6.7572   17.7406 S   0  0  0  0  0  0  0  0  0  0  0  0
   10.9950   -4.3857   22.5675 C   0  0  0  0  0  0  0  0  0  0  0  0
   10.9785   -3.2646   19.2381 C   0  0  0  0  0  0  0  0  0  0  0  0
    5.5299   -7.4350   15.9773 O   0  0  0  0  0  0  0  0  0  0  0  0
    9.8581   -5.5676   18.3875 C   0  0  0  0  0  0  0  0  0  0  0  0
    9.2002   -4.7456   16.4181 N   0  0  0  0  0  0  0  0  0  0  0  0
    4.9883   -8.5256   16.6387 C   0  0  0  0  0  0  0  0  0  0  0  0
    8.6676   -5.9039   16.4178 C   0  0  0  0  0  0  0  0  0  0  0  0
   11.3366   -3.9801   21.4750 C   0  0  0  0  0  0  0  0  0  0  0  0
    1.4409   -8.5981   15.9006 C   0  0  0  0  0  0  0  0  0  0  0  0
    9.4307   -2.4659   26.0535 C   0  0  0  0  0  0  0  0  0  0  0  0
    1.8895  -10.1931   17.5699 C   0  0  0  0  0  0  0  0  0  0  0  0
    9.3146   -1.8477   24.8134 C   0  0  0  0  0  0  0  0  0  0  0  0
    7.2684   -8.7961   16.8015 N   0  0  0  0  0  0  0  0  0  0  0  0
    3.1474   -9.8652   17.5514 C   0  0  0  0  0  0  0  0  0  0  0  0
    2.7135   -8.1634   15.8682 N   0  0  0  0  0  0  0  0  0  0  0  0
   10.1768   -3.6120   26.1557 C   0  0  0  0  0  0  0  0  0  0  0  0
    9.8511   -2.4049   23.7291 C   0  0  0  0  0  0  0  0  0  0  0  0
    1.0401   -9.6185   16.7080 C   0  0  0  0  0  0  0  0  0  0  0  0
    3.6090   -8.8568   16.7064 C   0  0  0  0  0  0  0  0  0  0  0  0
    7.7371   -6.4469   15.3960 C   0  0  0  0  0  0  0  0  0  0  0  0
    6.0423   -9.2656   17.1722 N   0  0  0  0  0  0  0  0  0  0  0  0
   10.5847   -3.5671   23.8692 C   0  0  0  0  0  0  0  0  0  0  0  0
   10.9006   -4.2504   20.1242 C   0  0  0  0  0  0  0  0  0  0  0  0
   10.4263   -5.4924   19.6806 C   0  0  0  0  0  0  0  0  0  0  0  0
  1  3  4  0
  1  7  4  0
  2 21  4  0
  2 27  4  0
  3  9  4  0
  3 10  4  0
  4  8  4  0
  4 18  4  0
  4 25  1  0
  5  9  4  0
  5 12  4  0
  6 13  1  0
  6 27  1  0
  7 28  4  0
  8 11  4  0
  9 29  4  0
 10 12  4  0
 11 24  1  0
 11 26  4  0
 12 25  1  0
 13 28  1  0
 14 20  4  0
 14 23  4  0
 15 17  4  0
 15 21  4  0
 16 19  4  0
 16 23  4  0
 17 22  4  0
 18 26  4  0
 19 24  4  0
 20 24  4  0
 22 27  4  0
 28 29  4  0
M  END
$$$$

 Created by Python create_sdf_string function

 29 38  0  0  0  0  0  0  0  0999 V2000
   10.8604   -2.8708   17.7823 C   0  0  0  0  0  0  0  0  0  0  0  0
   11.3412   -4.4106   25.1600 C   0  0  0  0  0  0  0  0  0  0  0  0
    9.6984   -4.6086   17.6885 F   0  0  0  0  0  0  0  0  0  0  0  0
    9.5663   -6.3827   18.1247 C   0  0  0  0  0  0  0  0  0  0  0  0
    9.6396   -6.1373   18.0314 C   0  0  0  0  0  0  0  0  0  0  0  0
    9.0560   -4.6747   16.3739 N   0  0  0  0  0  0  0  0  0  0  0  0
    4.6448   -8.6208   16.7968 C   0  0  0  0  0  0  0  0  0  0  0  0
    9.3487   -6.2639   16.3228 C   0  0  0  0  0  0  0  0  0  0  0  0
   11.2783   -3.8126   21.8751 C   0  0  0  0  0  0  0  0  0  0  0  0
    1.5741   -8.3511   16.1811 C   0  0  0  0  0  0  0  0  0  0  0  0
    9.3658   -2.3522   26.0141 S   0  0  0  0  0  0  0  0  0  0  0  0
    2.2906  -10.1916   18.0030 C   0  0  0  0  0  0  0  0  0  0  0  0
    3.3391   -9.8836   17.5778 C   0  0  0  0  0  0  0  0  0  0  0  0
    2.6162   -7.9228   15.6624 N   0  0  0  0  0  0  0  0  0  0  0  0
   10.4196   -3.1288   25.9640 C   0  0  0  0  0  0  0  0  0  0  0  0
    9.7248   -2.7112   23.4496 N   0  0  0  0  0  0  0  0  0  0  0  0
    1.3221   -9.6607   16.7512 C   0  0  0  0  0  0  0  0  0  0  0  0
    3.9985   -8.6374   16.8628 C   0  0  0  0  0  0  0  0  0  0  0  0
    7.8072   -6.2567   15.7648 C   0  0  0  0  0  0  0  0  0  0  0  0
   10.6144   -3.8765   23.7895 C   0  0  0  0  0  0  0  0  0  0  0  0
   10.7623   -4.2989   19.4949 C   0  0  0  0  0  0  0  0  0  0  0  0
   10.6067   -5.0387   19.4071 C   0  0  0  0  0  0  0  0  0  0  0  0
    6.8473   -7.8833   16.4656 He  0  0  0  0  0  0  0  0  0  0  0  0
   11.0756   -4.4515   22.6748 He  0  0  0  0  0  0  0  0  0  0  0  0
   10.9452   -2.8598   19.3448 He  0  0  0  0  0  0  0  0  0  0  0  0
    5.4875   -7.4668   15.9825 He  0  0  0  0  0  0  0  0  0  0  0  0
    9.3206   -1.4366   24.7183 He  0  0  0  0  0  0  0  0  0  0  0  0
    7.1810   -8.7083   16.9564 He  0  0  0  0  0  0  0  0  0  0  0  0
    5.9428   -8.6942   16.9305 He  0  0  0  0  0  0  0  0  0  0  0  0
  1  3  4  0
  1  5  4  0
  1 11  3  0
  1 17  3  0
  2 13  4  0
  2 15  4  0
  2 20  4  0
  2 22  1  0
  3  5  4  0
  3  6  3  0
  4  5  4  0
  4  8  4  0
  4 20  1  0
  5 11  1  0
  5 18  1  0
  5 22  4  0
  6  8  4  0
  7 18  1  0
  8 19  1  0
  8 21  1  0
  9 16  2  0
  9 21  1  0
 10 12  4  0
 10 14  1  0
 10 17  4  0
 11 13  2  0
 11 15  4  0
 11 17  2  0
 11 20  4  0
 12 13  2  0
 12 17  4  0
 13 18  4  0
 14 18  4  0
 16 17  3  0
 16 20  4  0
 16 21  2  0
 18 22  3  0
 21 22  4  0
M  END
$$$$

 Created by Python create_sdf_string function

 29 33  0  0  0  0  0  0  0  0999 V2000
   10.5478   -3.2111   17.8828 C   0  0  0  0  0  0  0  0  0  0  0  0
   10.9255   -4.1077   24.9823 C   0  0  0  0  0  0  0  0  0  0  0  0
   10.0028   -4.4122   17.5214 C   0  0  0  0  0  0  0  0  0  0  0  0
    6.9104   -7.4965   16.2121 C   0  0  0  0  0  0  0  0  0  0  0  0
    9.3505   -6.5432   17.7874 C   0  0  0  0  0  0  0  0  0  0  0  0
   10.9711   -4.4421   22.5376 C   0  0  0  0  0  0  0  0  0  0  0  0
   11.0217   -3.0344   19.1693 C   0  0  0  0  0  0  0  0  0  0  0  0
    5.6737   -7.4159   16.0520 C   0  0  0  0  0  0  0  0  0  0  0  0
    9.9691   -5.4959   18.3967 C   0  0  0  0  0  0  0  0  0  0  0  0
    9.2965   -4.7791   16.3990 N   0  0  0  0  0  0  0  0  0  0  0  0
    5.0188   -8.4903   16.6742 C   0  0  0  0  0  0  0  0  0  0  0  0
    8.8567   -6.0040   16.5776 C   0  0  0  0  0  0  0  0  0  0  0  0
   11.3665   -3.7719   21.4323 C   0  0  0  0  0  0  0  0  0  0  0  0
    1.4479   -8.5692   16.0924 C   0  0  0  0  0  0  0  0  0  0  0  0
    9.6338   -2.3088   25.9113 C   0  0  0  0  0  0  0  0  0  0  0  0
    1.9784  -10.2339   17.6748 C   0  0  0  0  0  0  0  0  0  0  0  0
    9.3395   -1.8465   24.6296 C   0  0  0  0  0  0  0  0  0  0  0  0
    7.1896   -8.6109   16.9765 N   0  0  0  0  0  0  0  0  0  0  0  0
    3.2775   -9.8810   17.5987 C   0  0  0  0  0  0  0  0  0  0  0  0
    2.7250   -8.1217   16.0145 N   0  0  0  0  0  0  0  0  0  0  0  0
   10.4127   -3.4276   26.0847 C   0  0  0  0  0  0  0  0  0  0  0  0
    9.8777   -2.4851   23.5491 N   0  0  0  0  0  0  0  0  0  0  0  0
    1.0535   -9.5788   16.9074 C   0  0  0  0  0  0  0  0  0  0  0  0
    3.6713   -8.8228   16.7524 C   0  0  0  0  0  0  0  0  0  0  0  0
    7.9529   -6.6416   15.5636 C   0  0  0  0  0  0  0  0  0  0  0  0
    6.0270   -9.1695   17.2680 N   0  0  0  0  0  0  0  0  0  0  0  0
   10.6124   -3.6065   23.7487 C   0  0  0  0  0  0  0  0  0  0  0  0
   10.9153   -4.0457   20.0585 C   0  0  0  0  0  0  0  0  0  0  0  0
   10.4169   -5.2869   19.6800 C   0  0  0  0  0  0  0  0  0  0  0  0
  1  3  4  0
  1  7  4  0
  2 21  4  0
  2 27  4  0
  3  9  4  0
  3 10  4  0
  4  8  4  0
  4 18  4  0
  4 25  1  0
  5  9  4  0
  5 12  4  0
  6 13  1  0
  6 27  1  0
  7 28  4  0
  8 11  4  0
  9 29  4  0
 10 12  4  0
 11 24  1  0
 11 26  4  0
 12 25  1  0
 13 28  1  0
 14 20  4  0
 14 23  4  0
 15 17  4  0
 15 21  4  0
 16 19  4  0
 16 23  4  0
 17 22  4  0
 18 26  4  0
 19 24  4  0
 20 24  4  0
 22 27  4  0
 28 29  4  0
M  END
$$$$

 Created by Python create_sdf_string function

 29 39  0  0  0  0  0  0  0  0999 V2000
   10.0882   -3.3005   18.1777 C   0  0  0  0  0  0  0  0  0  0  0  0
   10.9461   -3.9300   25.0635 C   0  0  0  0  0  0  0  0  0  0  0  0
   10.1884   -4.1787   17.4202 C   0  0  0  0  0  0  0  0  0  0  0  0
    6.8762   -8.3769   16.5123 C   0  0  0  0  0  0  0  0  0  0  0  0
    9.4252   -6.5461   17.7858 C   0  0  0  0  0  0  0  0  0  0  0  0
    9.9234   -5.7395   17.9613 C   0  0  0  0  0  0  0  0  0  0  0  0
    8.9421   -4.9779   16.3548 N   0  0  0  0  0  0  0  0  0  0  0  0
    4.8157   -8.4568   16.7042 C   0  0  0  0  0  0  0  0  0  0  0  0
    8.8200   -6.7371   16.8427 F   0  0  0  0  0  0  0  0  0  0  0  0
   11.1394   -3.3721   21.2607 C   0  0  0  0  0  0  0  0  0  0  0  0
    1.1091   -8.7465   15.7911 N   0  0  0  0  0  0  0  0  0  0  0  0
    9.7086   -2.0107   25.1909 C   0  0  0  0  0  0  0  0  0  0  0  0
    1.9902  -10.2312   17.5401 C   0  0  0  0  0  0  0  0  0  0  0  0
    6.9920   -8.8388   16.9349 N   0  0  0  0  0  0  0  0  0  0  0  0
    2.9655   -9.7129   17.3423 C   0  0  0  0  0  0  0  0  0  0  0  0
    2.7261   -8.6025   16.4013 N   0  0  0  0  0  0  0  0  0  0  0  0
   10.3315   -3.4792   25.8116 C   0  0  0  0  0  0  0  0  0  0  0  0
    9.9074   -2.2426   23.5172 N   0  0  0  0  0  0  0  0  0  0  0  0
    0.9933   -9.1449   17.1223 C   0  0  0  0  0  0  0  0  0  0  0  0
    3.7854   -9.3093   16.6587 C   0  0  0  0  0  0  0  0  0  0  0  0
    6.1792   -9.0172   17.1880 C   0  0  0  0  0  0  0  0  0  0  0  0
   10.6777   -4.0353   20.0161 C   0  0  0  0  0  0  0  0  0  0  0  0
   10.0158   -5.2056   19.8099 C   0  0  0  0  0  0  0  0  0  0  0  0
   10.4874   -4.8076   22.2810 He  0  0  0  0  0  0  0  0  0  0  0  0
   10.7926   -3.1975   19.4005 He  0  0  0  0  0  0  0  0  0  0  0  0
    5.3951   -7.4391   15.8332 He  0  0  0  0  0  0  0  0  0  0  0  0
    9.4588   -1.6900   24.8629 He  0  0  0  0  0  0  0  0  0  0  0  0
    7.6468   -6.8574   15.4097 He  0  0  0  0  0  0  0  0  0  0  0  0
   10.5065   -3.5592   23.9590 He  0  0  0  0  0  0  0  0  0  0  0  0
  1  3  4  0
  2 17  4  0
  2 19  4  0
  2 22  1  0
  3  6  4  0
  3  7  4  0
  3  8  4  0
  3  9  4  0
  4  9  4  0
  4 14  4  0
  5  6  4  0
  5  9  4  0
  6  7  1  0
  6 10  1  0
  6 14  1  0
  6 23  4  0
  7  9  4  0
  7 20  4  0
  8 20  1  0
  8 21  4  0
  9 11  3  0
  9 12  1  0
  9 13  4  0
  9 15  1  0
 10 15  2  0
 10 22  1  0
 11 15  2  0
 11 16  4  0
 12 13  2  0
 12 17  4  0
 12 18  4  0
 13 19  4  0
 13 21  1  0
 14 21  3  0
 15 20  1  0
 16 20  1  0
 18 20  2  0
 21 22  4  0
 22 23  4  0
M  END
$$$$

 Created by Python create_sdf_string function

 29 33  0  0  0  0  0  0  0  0999 V2000
   10.3723   -3.3501   17.7225 C   0  0  0  0  0  0  0  0  0  0  0  0
   10.7600   -4.0869   24.8983 C   0  0  0  0  0  0  0  0  0  0  0  0
    9.8108   -4.5773   17.4663 C   0  0  0  0  0  0  0  0  0  0  0  0
    6.8696   -7.7809   16.1820 C   0  0  0  0  0  0  0  0  0  0  0  0
    9.2418   -6.6931   17.7904 C   0  0  0  0  0  0  0  0  0  0  0  0
   10.7603   -4.3956   22.4418 C   0  0  0  0  0  0  0  0  0  0  0  0
   10.7742   -3.0659   18.9913 C   0  0  0  0  0  0  0  0  0  0  0  0
    5.5577   -7.6805   15.8929 C   0  0  0  0  0  0  0  0  0  0  0  0
    9.8055   -5.5930   18.4015 C   0  0  0  0  0  0  0  0  0  0  0  0
    9.1755   -5.0044   16.3335 N   0  0  0  0  0  0  0  0  0  0  0  0
    4.9165   -8.6556   16.6399 C   0  0  0  0  0  0  0  0  0  0  0  0
    8.7853   -6.2836   16.5250 C   0  0  0  0  0  0  0  0  0  0  0  0
   11.1873   -3.6497   21.3089 C   0  0  0  0  0  0  0  0  0  0  0  0
    1.3076   -8.6433   16.0468 C   0  0  0  0  0  0  0  0  0  0  0  0
    9.6884   -2.1729   25.8298 C   0  0  0  0  0  0  0  0  0  0  0  0
    1.7852  -10.2332   17.7305 C   0  0  0  0  0  0  0  0  0  0  0  0
    9.4726   -1.6162   24.6108 C   0  0  0  0  0  0  0  0  0  0  0  0
    7.0731   -8.7361   17.0909 N   0  0  0  0  0  0  0  0  0  0  0  0
    3.0726   -9.9484   17.5926 C   0  0  0  0  0  0  0  0  0  0  0  0
    2.6058   -8.4028   15.9150 N   0  0  0  0  0  0  0  0  0  0  0  0
   10.3387   -3.3343   25.9889 C   0  0  0  0  0  0  0  0  0  0  0  0
    9.9181   -2.2886   23.4967 N   0  0  0  0  0  0  0  0  0  0  0  0
    0.8603   -9.5863   16.9402 C   0  0  0  0  0  0  0  0  0  0  0  0
    3.5292   -8.9789   16.6981 C   0  0  0  0  0  0  0  0  0  0  0  0
    7.9420   -7.0009   15.4196 C   0  0  0  0  0  0  0  0  0  0  0  0
    5.9272   -9.2601   17.3522 C   0  0  0  0  0  0  0  0  0  0  0  0
   10.4810   -3.5176   23.6691 C   0  0  0  0  0  0  0  0  0  0  0  0
   10.7317   -4.0100   19.9800 C   0  0  0  0  0  0  0  0  0  0  0  0
   10.3000   -5.3141   19.6864 C   0  0  0  0  0  0  0  0  0  0  0  0
  1  3  4  0
  1  7  4  0
  2 21  4  0
  2 27  4  0
  3  9  4  0
  3 10  4  0
  4  8  4  0
  4 18  4  0
  4 25  1  0
  5  9  4  0
  5 12  4  0
  6 13  1  0
  6 27  1  0
  7 28  4  0
  8 11  4  0
  9 29  4  0
 10 12  4  0
 11 24  1  0
 11 26  4  0
 12 25  1  0
 13 28  1  0
 14 20  4  0
 14 23  4  0
 15 17  4  0
 15 21  4  0
 16 19  4  0
 16 23  4  0
 17 22  4  0
 18 26  4  0
 19 24  4  0
 20 24  4  0
 22 27  4  0
 28 29  4  0
M  END
$$$$

 Created by Python create_sdf_string function

 29 52  0  0  0  0  0  0  0  0999 V2000
   10.5000   -3.2349   17.6748 C   0  0  0  0  0  0  0  0  0  0  0  0
   10.9327   -3.5969   24.6996 C   0  0  0  0  0  0  0  0  0  0  0  0
    7.4196   -7.4782   16.3535 C   0  0  0  0  0  0  0  0  0  0  0  0
    9.1392   -6.5290   17.6474 Se  0  0  0  0  0  0  0  0  0  0  0  0
   10.7413   -4.4979   22.1790 C   0  0  0  0  0  0  0  0  0  0  0  0
   10.1053   -3.3058   18.9301 C   0  0  0  0  0  0  0  0  0  0  0  0
    5.7953   -7.6870   16.0925 C   0  0  0  0  0  0  0  0  0  0  0  0
   10.0488   -5.8457   18.4606 C   0  0  0  0  0  0  0  0  0  0  0  0
    9.0221   -4.7861   15.9894 N   0  0  0  0  0  0  0  0  0  0  0  0
    4.8524   -8.7346   16.4817 C   0  0  0  0  0  0  0  0  0  0  0  0
    9.0445   -5.9363   16.6493 C   0  0  0  0  0  0  0  0  0  0  0  0
   11.7158   -3.5493   21.3291 C   0  0  0  0  0  0  0  0  0  0  0  0
    1.5418   -8.3147   16.2959 C   0  0  0  0  0  0  0  0  0  0  0  0
    9.8202   -2.1693   25.8637 C   0  0  0  0  0  0  0  0  0  0  0  0
    2.0543  -10.6774   17.6706 C   0  0  0  0  0  0  0  0  0  0  0  0
    9.5884   -1.2269   24.6869 C   0  0  0  0  0  0  0  0  0  0  0  0
    6.8864   -9.0248   17.0028 N   0  0  0  0  0  0  0  0  0  0  0  0
    2.8963   -9.6630   17.3220 C   0  0  0  0  0  0  0  0  0  0  0  0
    2.6626   -8.7063   16.1079 N   0  0  0  0  0  0  0  0  0  0  0  0
   10.6697   -3.0649   25.9751 C   0  0  0  0  0  0  0  0  0  0  0  0
   10.2512   -1.8725   23.8441 N   0  0  0  0  0  0  0  0  0  0  0  0
    0.8001   -9.6803   17.0424 C   0  0  0  0  0  0  0  0  0  0  0  0
    3.4692   -9.0835   16.6946 C   0  0  0  0  0  0  0  0  0  0  0  0
    8.0417   -7.4352   15.0757 C   0  0  0  0  0  0  0  0  0  0  0  0
    9.6543   -3.6226   23.4710 C   0  0  0  0  0  0  0  0  0  0  0  0
   10.5996   -4.5516   20.3447 C   0  0  0  0  0  0  0  0  0  0  0  0
   10.0555   -4.9256   17.4471 He  0  0  0  0  0  0  0  0  0  0  0  0
    5.5967   -9.4329   17.4692 He  0  0  0  0  0  0  0  0  0  0  0  0
   10.4809   -5.6383   19.6565 He  0  0  0  0  0  0  0  0  0  0  0  0
  1  6  4  0
  1 17  2  0
  1 20  4  0
  2 20  4  0
  2 25  4  0
  3  7  4  0
  3  8  1  0
  3 17  4  0
  3 19  3  0
  3 24  1  0
  4  7  4  0
  4  8  4  0
  4 11  4  0
  4 17  4  0
  5 10  2  0
  5 11  2  0
  5 12  1  0
  5 18  1  0
  5 25  3  0
  6  7  3  0
  6 25  4  0
  6 26  1  0
  7 10  4  0
  7 22  3  0
  8 16  4  0
  8 19  4  0
  9 11  4  0
  9 17  4  0
  9 22  1  0
 10 23  1  0
 11 13  2  0
 11 15  2  0
 11 23  2  0
 11 24  1  0
 12 14  2  0
 12 26  3  0
 13 22  3  0
 14 16  4  0
 14 20  4  0
 14 21  3  0
 15 18  4  0
 15 22  4  0
 15 23  4  0
 16 21  4  0
 17 19  3  0
 17 20  3  0
 17 23  4  0
 18 19  4  0
 18 23  4  0
 18 26  3  0
 19 23  4  0
 25 26  2  0
M  END
$$$$

 Created by Python create_sdf_string function

 29 33  0  0  0  0  0  0  0  0999 V2000
   10.3023   -3.4420   17.7451 C   0  0  0  0  0  0  0  0  0  0  0  0
   10.7769   -3.8702   24.8170 C   0  0  0  0  0  0  0  0  0  0  0  0
    9.8078   -4.6609   17.3957 C   0  0  0  0  0  0  0  0  0  0  0  0
    6.9845   -7.8878   16.1337 C   0  0  0  0  0  0  0  0  0  0  0  0
    9.2738   -6.7954   17.6385 N   0  0  0  0  0  0  0  0  0  0  0  0
   10.5942   -4.2654   22.3624 C   0  0  0  0  0  0  0  0  0  0  0  0
   10.7946   -3.2111   19.0005 C   0  0  0  0  0  0  0  0  0  0  0  0
    5.6632   -7.7868   15.9502 C   0  0  0  0  0  0  0  0  0  0  0  0
    9.8207   -5.7265   18.2738 C   0  0  0  0  0  0  0  0  0  0  0  0
    9.2306   -5.0574   16.2387 N   0  0  0  0  0  0  0  0  0  0  0  0
    4.9504   -8.6892   16.6705 C   0  0  0  0  0  0  0  0  0  0  0  0
    8.8453   -6.3075   16.3891 C   0  0  0  0  0  0  0  0  0  0  0  0
   11.2497   -3.8240   21.2530 C   0  0  0  0  0  0  0  0  0  0  0  0
    1.3336   -8.5886   16.1670 C   0  0  0  0  0  0  0  0  0  0  0  0
    9.9025   -1.9090   25.8350 C   0  0  0  0  0  0  0  0  0  0  0  0
    1.8361  -10.3470   17.6695 C   0  0  0  0  0  0  0  0  0  0  0  0
    9.6111   -1.3936   24.5767 C   0  0  0  0  0  0  0  0  0  0  0  0
    7.1365   -8.8378   17.0515 N   0  0  0  0  0  0  0  0  0  0  0  0
    3.1233  -10.0494   17.5011 C   0  0  0  0  0  0  0  0  0  0  0  0
    2.6146   -8.2655   16.0996 N   0  0  0  0  0  0  0  0  0  0  0  0
   10.4416   -3.1643   25.9281 C   0  0  0  0  0  0  0  0  0  0  0  0
    9.9250   -2.0566   23.4677 N   0  0  0  0  0  0  0  0  0  0  0  0
    0.8974   -9.6092   16.9790 C   0  0  0  0  0  0  0  0  0  0  0  0
    3.5808   -8.9933   16.7461 C   0  0  0  0  0  0  0  0  0  0  0  0
    7.9984   -7.1572   15.3613 C   0  0  0  0  0  0  0  0  0  0  0  0
    5.9140   -9.3219   17.3941 N   0  0  0  0  0  0  0  0  0  0  0  0
   10.4872   -3.2953   23.6074 C   0  0  0  0  0  0  0  0  0  0  0  0
   10.7973   -4.2162   19.9360 C   0  0  0  0  0  0  0  0  0  0  0  0
   10.3557   -5.4903   19.5996 C   0  0  0  0  0  0  0  0  0  0  0  0
  1  3  4  0
  1  7  4  0
  2 21  4  0
  2 27  4  0
  3  9  4  0
  3 10  4  0
  4  8  4  0
  4 18  4  0
  4 25  1  0
  5  9  4  0
  5 12  4  0
  6 13  1  0
  6 27  1  0
  7 28  4  0
  8 11  4  0
  9 29  4  0
 10 12  4  0
 11 24  1  0
 11 26  4  0
 12 25  1  0
 13 28  1  0
 14 20  4  0
 14 23  4  0
 15 17  4  0
 15 21  4  0
 16 19  4  0
 16 23  4  0
 17 22  4  0
 18 26  4  0
 19 24  4  0
 20 24  4  0
 22 27  4  0
 28 29  4  0
M  END
$$$$

 Created by Python create_sdf_string function

 29 49  0  0  0  0  0  0  0  0999 V2000
   10.4770   -3.3604   17.7846 P   0  0  0  0  0  0  0  0  0  0  0  0
   10.6007   -3.7383   24.3643 C   0  0  0  0  0  0  0  0  0  0  0  0
    9.6974   -4.4935   17.6300 C   0  0  0  0  0  0  0  0  0  0  0  0
    6.8220   -7.8834   15.9252 C   0  0  0  0  0  0  0  0  0  0  0  0
   10.1274   -4.2899   22.8148 C   0  0  0  0  0  0  0  0  0  0  0  0
   10.9651   -3.4694   19.3538 C   0  0  0  0  0  0  0  0  0  0  0  0
    5.6988   -7.7975   15.9205 C   0  0  0  0  0  0  0  0  0  0  0  0
   10.0214   -5.7599   18.1470 C   0  0  0  0  0  0  0  0  0  0  0  0
    9.5630   -5.0574   16.6718 N   0  0  0  0  0  0  0  0  0  0  0  0
    5.0340   -8.6962   16.3240 C   0  0  0  0  0  0  0  0  0  0  0  0
    8.7680   -6.4668   16.4531 C   0  0  0  0  0  0  0  0  0  0  0  0
   11.3873   -3.8114   21.0322 O   0  0  0  0  0  0  0  0  0  0  0  0
    9.8760   -2.2070   25.9039 C   0  0  0  0  0  0  0  0  0  0  0  0
    1.7161  -10.1321   17.6182 C   0  0  0  0  0  0  0  0  0  0  0  0
    9.3578   -1.5159   23.9144 C   0  0  0  0  0  0  0  0  0  0  0  0
    7.2179   -8.9581   16.9821 N   0  0  0  0  0  0  0  0  0  0  0  0
    3.1921  -10.0364   17.1952 C   0  0  0  0  0  0  0  0  0  0  0  0
   10.5846   -2.9323   25.8992 C   0  0  0  0  0  0  0  0  0  0  0  0
    9.8622   -2.4702   23.5212 N   0  0  0  0  0  0  0  0  0  0  0  0
    1.0183   -9.4183   17.1685 C   0  0  0  0  0  0  0  0  0  0  0  0
    3.6130   -9.5356   17.0575 C   0  0  0  0  0  0  0  0  0  0  0  0
    7.7494   -7.1383   15.2479 C   0  0  0  0  0  0  0  0  0  0  0  0
    5.9069   -9.0227   17.3662 N   0  0  0  0  0  0  0  0  0  0  0  0
   10.6001   -3.1877   23.4903 C   0  0  0  0  0  0  0  0  0  0  0  0
   10.5572   -4.4742   19.2207 N   0  0  0  0  0  0  0  0  0  0  0  0
   10.6728   -5.7223   19.5725 C   0  0  0  0  0  0  0  0  0  0  0  0
    8.9562   -6.8888   17.5414 He  0  0  0  0  0  0  0  0  0  0  0  0
    1.4968   -8.5533   16.4407 He  0  0  0  0  0  0  0  0  0  0  0  0
    2.6165   -7.7945   15.9532 He  0  0  0  0  0  0  0  0  0  0  0  0
  1  3  4  0
  1 14  4  0
  2 11  2  0
  2 18  4  0
  2 20  2  0
  2 24  4  0
  3  4  1  0
  3  8  4  0
  3  9  4  0
  3 17  2  0
  3 19  1  0
  4  7  3  0
  4 16  4  0
  4 22  1  0
  5 12  1  0
  5 21  4  0
  5 24  1  0
  6 22  4  0
  6 25  4  0
  7 10  4  0
  7 12  4  0
  7 21  4  0
  8 13  3  0
  8 21  4  0
  8 26  4  0
  9 18  1  0
 10 21  1  0
 11 13  3  0
 11 22  1  0
 11 26  3  0
 12 14  1  0
 12 16  1  0
 12 25  1  0
 13 15  4  0
 13 18  4  0
 13 19  4  0
 14 17  4  0
 14 20  3  0
 15 19  3  0
 15 24  3  0
 16 23  4  0
 16 25  4  0
 17 21  4  0
 17 23  3  0
 18 22  2  0
 19 24  4  0
 20 24  3  0
 21 22  3  0
 22 24  4  0
M  END
$$$$

 Created by Python create_sdf_string function

 29 33  0  0  0  0  0  0  0  0999 V2000
   10.4452   -3.5238   17.6604 C   0  0  0  0  0  0  0  0  0  0  0  0
   10.8180   -3.8552   24.6792 C   0  0  0  0  0  0  0  0  0  0  0  0
    9.8888   -4.7298   17.3724 C   0  0  0  0  0  0  0  0  0  0  0  0
    6.9104   -7.8762   16.0229 C   0  0  0  0  0  0  0  0  0  0  0  0
    9.2105   -6.8239   17.6130 N   0  0  0  0  0  0  0  0  0  0  0  0
   10.5802   -4.3474   22.2794 C   0  0  0  0  0  0  0  0  0  0  0  0
   10.9114   -3.3005   18.9664 C   0  0  0  0  0  0  0  0  0  0  0  0
    5.6430   -7.8528   15.8193 C   0  0  0  0  0  0  0  0  0  0  0  0
    9.8556   -5.7823   18.2516 C   0  0  0  0  0  0  0  0  0  0  0  0
    9.2512   -5.0554   16.2573 N   0  0  0  0  0  0  0  0  0  0  0  0
    4.9751   -8.7300   16.6347 C   0  0  0  0  0  0  0  0  0  0  0  0
    8.7989   -6.3081   16.4080 C   0  0  0  0  0  0  0  0  0  0  0  0
   11.2524   -3.9469   21.1973 O   0  0  0  0  0  0  0  0  0  0  0  0
    1.3055   -8.3909   16.3414 C   0  0  0  0  0  0  0  0  0  0  0  0
    9.7957   -1.9416   25.6591 C   0  0  0  0  0  0  0  0  0  0  0  0
    1.8130  -10.3123   17.6556 C   0  0  0  0  0  0  0  0  0  0  0  0
    9.4642   -1.4714   24.3990 C   0  0  0  0  0  0  0  0  0  0  0  0
    7.0846   -8.8258   16.9760 N   0  0  0  0  0  0  0  0  0  0  0  0
    3.1532  -10.0572   17.5312 C   0  0  0  0  0  0  0  0  0  0  0  0
    2.6338   -8.1651   16.1378 C   0  0  0  0  0  0  0  0  0  0  0  0
   10.4731   -3.1172   25.7914 C   0  0  0  0  0  0  0  0  0  0  0  0
    9.8360   -2.2097   23.3153 N   0  0  0  0  0  0  0  0  0  0  0  0
    0.9121   -9.4704   17.0687 C   0  0  0  0  0  0  0  0  0  0  0  0
    3.5816   -8.9736   16.7542 C   0  0  0  0  0  0  0  0  0  0  0  0
    7.9422   -7.0768   15.3418 C   0  0  0  0  0  0  0  0  0  0  0  0
    5.9424   -9.2967   17.3433 N   0  0  0  0  0  0  0  0  0  0  0  0
   10.4406   -3.3926   23.4596 C   0  0  0  0  0  0  0  0  0  0  0  0
   10.8569   -4.2731   19.8800 C   0  0  0  0  0  0  0  0  0  0  0  0
   10.3849   -5.5185   19.5450 C   0  0  0  0  0  0  0  0  0  0  0  0
  1  3  4  0
  1  7  4  0
  2 21  4  0
  2 27  4  0
  3  9  4  0
  3 10  4  0
  4  8  4  0
  4 18  4  0
  4 25  1  0
  5  9  4  0
  5 12  4  0
  6 13  1  0
  6 27  1  0
  7 28  4  0
  8 11  4  0
  9 29  4  0
 10 12  4  0
 11 24  1  0
 11 26  4  0
 12 25  1  0
 13 28  1  0
 14 20  4  0
 14 23  4  0
 15 17  4  0
 15 21  4  0
 16 19  4  0
 16 23  4  0
 17 22  4  0
 18 26  4  0
 19 24  4  0
 20 24  4  0
 22 27  4  0
 28 29  4  0
M  END
$$$$

 Created by Python create_sdf_string function

 29 57  0  0  0  0  0  0  0  0999 V2000
   10.5339   -3.4086   17.8648 C   0  0  0  0  0  0  0  0  0  0  0  0
   10.9150   -3.7124   24.5663 C   0  0  0  0  0  0  0  0  0  0  0  0
   10.0175   -4.8965   17.0800 C   0  0  0  0  0  0  0  0  0  0  0  0
    7.1472   -8.1181   15.7657 C   0  0  0  0  0  0  0  0  0  0  0  0
    9.4142   -6.7743   17.6161 N   0  0  0  0  0  0  0  0  0  0  0  0
    9.9980   -4.4112   22.2858 C   0  0  0  0  0  0  0  0  0  0  0  0
   10.9234   -3.0585   18.7300 C   0  0  0  0  0  0  0  0  0  0  0  0
    5.6826   -7.6311   15.7286 C   0  0  0  0  0  0  0  0  0  0  0  0
    9.3489   -5.9028   18.2757 O   0  0  0  0  0  0  0  0  0  0  0  0
    8.7682   -5.2015   16.1069 N   0  0  0  0  0  0  0  0  0  0  0  0
    5.3590   -8.5155   16.7220 C   0  0  0  0  0  0  0  0  0  0  0  0
    9.3169   -6.1174   16.4513 C   0  0  0  0  0  0  0  0  0  0  0  0
   11.1733   -3.7616   21.0150 O   0  0  0  0  0  0  0  0  0  0  0  0
    9.5156   -1.8618   25.4114 C   0  0  0  0  0  0  0  0  0  0  0  0
    1.8135  -10.0726   17.3029 C   0  0  0  0  0  0  0  0  0  0  0  0
    9.5500   -1.5736   24.3854 C   0  0  0  0  0  0  0  0  0  0  0  0
    7.1312   -8.4974   16.8814 N   0  0  0  0  0  0  0  0  0  0  0  0
    3.3055  -10.5367   17.3874 C   0  0  0  0  0  0  0  0  0  0  0  0
    2.6896   -8.1710   16.3072 N   0  0  0  0  0  0  0  0  0  0  0  0
   10.4510   -2.9185   25.5317 O   0  0  0  0  0  0  0  0  0  0  0  0
    9.7187   -2.2711   23.5115 N   0  0  0  0  0  0  0  0  0  0  0  0
    0.7575   -9.8592   16.7534 C   0  0  0  0  0  0  0  0  0  0  0  0
    3.7227   -9.1158   16.6452 C   0  0  0  0  0  0  0  0  0  0  0  0
    7.8400   -7.1422   15.3271 C   0  0  0  0  0  0  0  0  0  0  0  0
    6.2290   -9.0797   17.2057 S   0  0  0  0  0  0  0  0  0  0  0  0
   10.7865   -4.4742   19.8715 O   0  0  0  0  0  0  0  0  0  0  0  0
   10.6957   -5.1737   19.4740 C   0  0  0  0  0  0  0  0  0  0  0  0
    1.1334   -8.3953   16.3544 He  0  0  0  0  0  0  0  0  0  0  0  0
   10.3768   -3.1568   23.3896 He  0  0  0  0  0  0  0  0  0  0  0  0
  1  3  4  0
  1  7  4  0
  2  6  2  0
  2  8  4  0
  2 15  3  0
  2 20  4  0
  3  5  3  0
  3 10  4  0
  3 11  4  0
  3 14  3  0
  4  6  1  0
  4  8  4  0
  4 21  3  0
  4 24  1  0
  4 27  3  0
  5 21  1  0
  6 13  1  0
  7 13  3  0
  7 14  4  0
  7 17  2  0
  7 19  3  0
  7 26  3  0
  8 11  4  0
  9 24  3  0
  9 27  4  0
 10 12  4  0
 10 17  3  0
 10 23  2  0
 11 23  1  0
 11 27  4  0
 12 19  4  0
 13 15  1  0
 13 17  2  0
 13 18  4  0
 13 22  3  0
 13 23  3  0
 13 26  1  0
 14 16  4  0
 14 20  4  0
 14 24  4  0
 15 18  4  0
 15 21  1  0
 15 22  4  0
 15 25  2  0
 16 19  3  0
 16 21  4  0
 17 25  4  0
 17 26  1  0
 18 20  3  0
 18 23  3  0
 18 25  2  0
 19 20  1  0
 19 23  4  0
 19 24  1  0
 21 24  2  0
 22 25  2  0
 26 27  2  0
M  END
$$$$

 Created by Python create_sdf_string function

 29 33  0  0  0  0  0  0  0  0999 V2000
   10.4246   -3.4723   17.5461 C   0  0  0  0  0  0  0  0  0  0  0  0
   10.7390   -3.7751   24.5922 C   0  0  0  0  0  0  0  0  0  0  0  0
    9.8718   -4.6811   17.2706 C   0  0  0  0  0  0  0  0  0  0  0  0
    7.0163   -7.8686   15.9744 C   0  0  0  0  0  0  0  0  0  0  0  0
    9.2550   -6.7952   17.5785 N   0  0  0  0  0  0  0  0  0  0  0  0
   10.5020   -4.2452   22.2176 C   0  0  0  0  0  0  0  0  0  0  0  0
   10.9376   -3.2269   18.8074 C   0  0  0  0  0  0  0  0  0  0  0  0
    5.7003   -7.8093   15.7683 C   0  0  0  0  0  0  0  0  0  0  0  0
    9.8358   -5.6969   18.1709 C   0  0  0  0  0  0  0  0  0  0  0  0
    9.2196   -5.0771   16.1216 N   0  0  0  0  0  0  0  0  0  0  0  0
    5.0304   -8.6786   16.6062 C   0  0  0  0  0  0  0  0  0  0  0  0
    8.8692   -6.2888   16.3319 C   0  0  0  0  0  0  0  0  0  0  0  0
   11.1405   -3.7573   21.1498 O   0  0  0  0  0  0  0  0  0  0  0  0
    1.3924   -8.4758   16.2260 C   0  0  0  0  0  0  0  0  0  0  0  0
    9.7452   -1.8790   25.5849 C   0  0  0  0  0  0  0  0  0  0  0  0
    1.8720  -10.4338   17.4945 C   0  0  0  0  0  0  0  0  0  0  0  0
    9.3874   -1.3938   24.3515 C   0  0  0  0  0  0  0  0  0  0  0  0
    7.2589   -8.7813   16.9441 N   0  0  0  0  0  0  0  0  0  0  0  0
    3.2072  -10.1103   17.4514 C   0  0  0  0  0  0  0  0  0  0  0  0
    2.7001   -8.1664   16.1450 N   0  0  0  0  0  0  0  0  0  0  0  0
   10.4261   -3.0304   25.7220 C   0  0  0  0  0  0  0  0  0  0  0  0
    9.7498   -2.1192   23.2381 N   0  0  0  0  0  0  0  0  0  0  0  0
    0.9756   -9.6235   16.8740 C   0  0  0  0  0  0  0  0  0  0  0  0
    3.6402   -8.9773   16.7230 C   0  0  0  0  0  0  0  0  0  0  0  0
    8.0727   -7.1180   15.2604 C   0  0  0  0  0  0  0  0  0  0  0  0
    6.0378   -9.2279   17.3790 N   0  0  0  0  0  0  0  0  0  0  0  0
   10.3499   -3.3050   23.3724 C   0  0  0  0  0  0  0  0  0  0  0  0
   10.7815   -4.1639   19.8032 C   0  0  0  0  0  0  0  0  0  0  0  0
   10.3018   -5.4108   19.4955 C   0  0  0  0  0  0  0  0  0  0  0  0
  1  3  4  0
  1  7  4  0
  2 21  4  0
  2 27  4  0
  3  9  4  0
  3 10  4  0
  4  8  4  0
  4 18  4  0
  4 25  1  0
  5  9  4  0
  5 12  4  0
  6 13  1  0
  6 27  1  0
  7 28  4  0
  8 11  4  0
  9 29  4  0
 10 12  4  0
 11 24  1  0
 11 26  4  0
 12 25  1  0
 13 28  1  0
 14 20  4  0
 14 23  4  0
 15 17  4  0
 15 21  4  0
 16 19  4  0
 16 23  4  0
 17 22  4  0
 18 26  4  0
 19 24  4  0
 20 24  4  0
 22 27  4  0
 28 29  4  0
M  END
$$$$

 Created by Python create_sdf_string function

 29 42  0  0  0  0  0  0  0  0999 V2000
   10.8935   -3.6793   24.7148 C   0  0  0  0  0  0  0  0  0  0  0  0
    9.7080   -4.6456   16.9880 C   0  0  0  0  0  0  0  0  0  0  0  0
    9.6973   -6.8129   17.6402 N   0  0  0  0  0  0  0  0  0  0  0  0
   10.7960   -3.9063   22.3459 C   0  0  0  0  0  0  0  0  0  0  0  0
   11.3260   -3.2990   18.6649 C   0  0  0  0  0  0  0  0  0  0  0  0
    5.6550   -7.5269   15.9362 C   0  0  0  0  0  0  0  0  0  0  0  0
   10.2296   -5.5385   18.1891 C   0  0  0  0  0  0  0  0  0  0  0  0
    8.9370   -4.6366   16.0958 N   0  0  0  0  0  0  0  0  0  0  0  0
    4.9112   -8.5842   16.9378 C   0  0  0  0  0  0  0  0  0  0  0  0
    8.8954   -6.4526   16.2989 C   0  0  0  0  0  0  0  0  0  0  0  0
   11.4982   -3.6807   21.1084 O   0  0  0  0  0  0  0  0  0  0  0  0
    1.7086   -8.3736   16.4632 C   0  0  0  0  0  0  0  0  0  0  0  0
    9.8816   -1.8709   25.4308 C   0  0  0  0  0  0  0  0  0  0  0  0
    1.8735  -10.4727   17.8970 C   0  0  0  0  0  0  0  0  0  0  0  0
    9.1572   -1.0149   24.4809 C   0  0  0  0  0  0  0  0  0  0  0  0
    6.9812   -8.8788   16.7890 N   0  0  0  0  0  0  0  0  0  0  0  0
    3.0523  -10.2287   17.0937 C   0  0  0  0  0  0  0  0  0  0  0  0
    2.7181   -8.3256   15.7143 N   0  0  0  0  0  0  0  0  0  0  0  0
   10.0076   -2.9951   25.6613 C   0  0  0  0  0  0  0  0  0  0  0  0
    9.9496   -1.8854   23.0988 N   0  0  0  0  0  0  0  0  0  0  0  0
    1.2599   -9.8624   16.7662 C   0  0  0  0  0  0  0  0  0  0  0  0
   10.1799   -3.3629   23.3184 C   0  0  0  0  0  0  0  0  0  0  0  0
   10.9275   -4.3174   19.8828 C   0  0  0  0  0  0  0  0  0  0  0  0
   10.2809   -5.6368   19.2463 C   0  0  0  0  0  0  0  0  0  0  0  0
   10.4610   -3.3763   17.6846 He  0  0  0  0  0  0  0  0  0  0  0  0
    6.9307   -7.6856   15.9054 He  0  0  0  0  0  0  0  0  0  0  0  0
    3.7766   -8.6499   17.0520 He  0  0  0  0  0  0  0  0  0  0  0  0
    8.2431   -6.7253   15.0481 He  0  0  0  0  0  0  0  0  0  0  0  0
    6.0329   -9.4554   17.1352 He  0  0  0  0  0  0  0  0  0  0  0  0
  1  9  3  0
  1 19  4  0
  1 22  4  0
  2  7  3  0
  2  8  4  0
  2  9  2  0
  2 14  3  0
  2 16  4  0
  3  5  1  0
  3 10  4  0
  3 14  3  0
  3 23  3  0
  4 11  1  0
  4 16  2  0
  4 22  1  0
  5  7  1  0
  5 13  1  0
  5 23  4  0
  6  7  2  0
  6  9  4  0
  7 24  4  0
  8 10  4  0
  9 14  4  0
  9 20  1  0
 10 22  1  0
 11 18  3  0
 11 23  1  0
 11 24  2  0
 12 18  4  0
 12 19  1  0
 12 21  4  0
 12 23  1  0
 13 15  4  0
 13 19  4  0
 14 21  4  0
 15 18  3  0
 15 20  4  0
 16 17  1  0
 16 19  2  0
 17 24  3  0
 22 23  4  0
 23 24  4  0
M  END
$$$$

 Created by Python create_sdf_string function

 29 33  0  0  0  0  0  0  0  0999 V2000
   10.5198   -3.3705   17.5489 C   0  0  0  0  0  0  0  0  0  0  0  0
   10.6353   -3.7450   24.5845 C   0  0  0  0  0  0  0  0  0  0  0  0
    9.8919   -4.5719   17.2601 C   0  0  0  0  0  0  0  0  0  0  0  0
    6.9836   -7.7724   16.0253 C   0  0  0  0  0  0  0  0  0  0  0  0
    9.3950   -6.7177   17.4662 N   0  0  0  0  0  0  0  0  0  0  0  0
   10.6854   -4.1093   22.1469 C   0  0  0  0  0  0  0  0  0  0  0  0
   10.9939   -3.1837   18.8276 C   0  0  0  0  0  0  0  0  0  0  0  0
    5.6754   -7.6142   15.9467 C   0  0  0  0  0  0  0  0  0  0  0  0
    9.9504   -5.6584   18.1038 C   0  0  0  0  0  0  0  0  0  0  0  0
    9.1550   -4.9225   16.1211 N   0  0  0  0  0  0  0  0  0  0  0  0
    5.0764   -8.6563   16.6098 C   0  0  0  0  0  0  0  0  0  0  0  0
    8.8612   -6.2060   16.2973 C   0  0  0  0  0  0  0  0  0  0  0  0
   11.3101   -3.7957   21.0646 O   0  0  0  0  0  0  0  0  0  0  0  0
    1.4543   -8.6041   16.1560 C   0  0  0  0  0  0  0  0  0  0  0  0
    9.6102   -1.8036   25.5555 C   0  0  0  0  0  0  0  0  0  0  0  0
    1.9770  -10.3877   17.6385 C   0  0  0  0  0  0  0  0  0  0  0  0
    9.4708   -1.2489   24.2678 C   0  0  0  0  0  0  0  0  0  0  0  0
    7.2518   -8.8275   16.7550 N   0  0  0  0  0  0  0  0  0  0  0  0
    3.2855  -10.0095   17.5428 C   0  0  0  0  0  0  0  0  0  0  0  0
    2.7354   -8.1904   16.1158 N   0  0  0  0  0  0  0  0  0  0  0  0
   10.2330   -3.0227   25.6979 C   0  0  0  0  0  0  0  0  0  0  0  0
    9.8993   -1.9717   23.1776 N   0  0  0  0  0  0  0  0  0  0  0  0
    1.0613   -9.6581   16.9413 C   0  0  0  0  0  0  0  0  0  0  0  0
    3.6835   -8.9477   16.7511 C   0  0  0  0  0  0  0  0  0  0  0  0
    8.0001   -6.9993   15.2104 C   0  0  0  0  0  0  0  0  0  0  0  0
    6.1343   -9.3370   17.1615 N   0  0  0  0  0  0  0  0  0  0  0  0
   10.4501   -3.1905   23.3531 C   0  0  0  0  0  0  0  0  0  0  0  0
   10.9418   -4.1795   19.7577 C   0  0  0  0  0  0  0  0  0  0  0  0
   10.4958   -5.4431   19.4028 C   0  0  0  0  0  0  0  0  0  0  0  0
  1  3  4  0
  1  7  4  0
  2 21  4  0
  2 27  4  0
  3  9  4  0
  3 10  4  0
  4  8  4  0
  4 18  4  0
  4 25  1  0
  5  9  4  0
  5 12  4  0
  6 13  1  0
  6 27  1  0
  7 28  4  0
  8 11  4  0
  9 29  4  0
 10 12  4  0
 11 24  1  0
 11 26  4  0
 12 25  1  0
 13 28  1  0
 14 20  4  0
 14 23  4  0
 15 17  4  0
 15 21  4  0
 16 19  4  0
 16 23  4  0
 17 22  4  0
 18 26  4  0
 19 24  4  0
 20 24  4  0
 22 27  4  0
 28 29  4  0
M  END
$$$$

 Created by Python create_sdf_string function

 29 53  0  0  0  0  0  0  0  0999 V2000
   10.7856   -3.5095   17.8278 C   0  0  0  0  0  0  0  0  0  0  0  0
   10.8556   -3.7236   24.6096 C   0  0  0  0  0  0  0  0  0  0  0  0
    7.1261   -8.2954   16.1353 C   0  0  0  0  0  0  0  0  0  0  0  0
    9.5197   -6.5578   17.5641 N   0  0  0  0  0  0  0  0  0  0  0  0
   10.5464   -3.9336   22.2068 C   0  0  0  0  0  0  0  0  0  0  0  0
   10.9901   -3.4096   19.0518 F   0  0  0  0  0  0  0  0  0  0  0  0
    5.9264   -7.5866   16.1638 O   0  0  0  0  0  0  0  0  0  0  0  0
    9.9577   -5.9008   18.0632 C   0  0  0  0  0  0  0  0  0  0  0  0
    9.0273   -4.9687   16.2761 N   0  0  0  0  0  0  0  0  0  0  0  0
    5.1208   -8.4443   16.4796 C   0  0  0  0  0  0  0  0  0  0  0  0
    8.5655   -5.9967   16.2459 C   0  0  0  0  0  0  0  0  0  0  0  0
   11.1901   -3.9059   20.9160 O   0  0  0  0  0  0  0  0  0  0  0  0
    1.0328   -8.5955   16.1022 C   0  0  0  0  0  0  0  0  0  0  0  0
    9.5957   -2.0682   25.4500 C   0  0  0  0  0  0  0  0  0  0  0  0
    1.8525  -10.3325   17.5398 C   0  0  0  0  0  0  0  0  0  0  0  0
    9.4185   -0.7762   23.9064 C   0  0  0  0  0  0  0  0  0  0  0  0
    7.4795   -8.4975   16.6851 N   0  0  0  0  0  0  0  0  0  0  0  0
    3.5130  -10.0750   18.0494 C   0  0  0  0  0  0  0  0  0  0  0  0
    3.1859   -8.0746   15.9430 N   0  0  0  0  0  0  0  0  0  0  0  0
   10.3711   -2.8279   25.8560 C   0  0  0  0  0  0  0  0  0  0  0  0
    9.7684   -2.0690   23.3148 O   0  0  0  0  0  0  0  0  0  0  0  0
    1.0702   -9.7685   16.9325 C   0  0  0  0  0  0  0  0  0  0  0  0
    3.8837   -8.9160   16.7792 C   0  0  0  0  0  0  0  0  0  0  0  0
    5.7995   -9.4077   16.9283 N   0  0  0  0  0  0  0  0  0  0  0  0
   10.3300   -3.4731   23.6116 C   0  0  0  0  0  0  0  0  0  0  0  0
   11.4052   -4.1961   19.6871 C   0  0  0  0  0  0  0  0  0  0  0  0
   10.3648   -5.6886   19.5339 F   0  0  0  0  0  0  0  0  0  0  0  0
    9.8602   -4.5100   17.0676 He  0  0  0  0  0  0  0  0  0  0  0  0
    8.1284   -7.0108   15.3920 He  0  0  0  0  0  0  0  0  0  0  0  0
  1  6  4  0
  1 22  3  0
  2  3  1  0
  2 20  4  0
  2 25  4  0
  2 27  1  0
  3  7  4  0
  3 20  3  0
  3 22  1  0
  4  9  2  0
  4 11  4  0
  4 15  4  0
  4 20  1  0
  4 27  1  0
  5 10  1  0
  5 12  1  0
  6 18  4  0
  6 26  4  0
  7 10  4  0
  7 21  4  0
  7 27  1  0
  8 16  1  0
  8 18  1  0
  8 19  1  0
  8 27  4  0
  9 11  4  0
  9 15  4  0
 10 14  4  0
 10 23  1  0
 10 24  4  0
 11 22  1  0
 12 26  1  0
 13 20  2  0
 13 22  4  0
 13 26  2  0
 13 27  2  0
 14 16  4  0
 14 18  1  0
 14 20  4  0
 15 18  4  0
 15 19  3  0
 15 22  4  0
 16 21  4  0
 17 21  2  0
 17 24  4  0
 17 26  4  0
 18 23  4  0
 19 23  4  0
 19 24  3  0
 20 27  1  0
 21 25  4  0
 22 26  1  0
 26 27  4  0
M  END
$$$$

 Created by Python create_sdf_string function

 29 33  0  0  0  0  0  0  0  0999 V2000
   10.5729   -3.3997   17.6249 C   0  0  0  0  0  0  0  0  0  0  0  0
   10.6761   -3.7279   24.5719 C   0  0  0  0  0  0  0  0  0  0  0  0
    9.9137   -4.5543   17.2891 C   0  0  0  0  0  0  0  0  0  0  0  0
    7.0545   -7.8492   16.0571 C   0  0  0  0  0  0  0  0  0  0  0  0
    9.2930   -6.6602   17.5466 N   0  0  0  0  0  0  0  0  0  0  0  0
   10.6209   -4.1859   22.1691 C   0  0  0  0  0  0  0  0  0  0  0  0
   11.0566   -3.2609   18.9008 C   0  0  0  0  0  0  0  0  0  0  0  0
    5.8001   -7.7112   15.9983 O   0  0  0  0  0  0  0  0  0  0  0  0
    9.9132   -5.6369   18.1417 C   0  0  0  0  0  0  0  0  0  0  0  0
    9.2056   -4.9115   16.1770 N   0  0  0  0  0  0  0  0  0  0  0  0
    5.1404   -8.7010   16.6265 C   0  0  0  0  0  0  0  0  0  0  0  0
    8.8282   -6.1680   16.3391 C   0  0  0  0  0  0  0  0  0  0  0  0
   11.3015   -3.9476   21.1408 O   0  0  0  0  0  0  0  0  0  0  0  0
    1.4598   -8.6302   16.1478 C   0  0  0  0  0  0  0  0  0  0  0  0
    9.7052   -1.7719   25.5114 C   0  0  0  0  0  0  0  0  0  0  0  0
    2.0162  -10.3403   17.7391 C   0  0  0  0  0  0  0  0  0  0  0  0
    9.4718   -1.2822   24.2386 C   0  0  0  0  0  0  0  0  0  0  0  0
    7.2918   -8.9460   16.7600 N   0  0  0  0  0  0  0  0  0  0  0  0
    3.3511  -10.0013   17.6026 C   0  0  0  0  0  0  0  0  0  0  0  0
    2.8067   -8.2397   16.0885 N   0  0  0  0  0  0  0  0  0  0  0  0
   10.2984   -2.9864   25.6587 C   0  0  0  0  0  0  0  0  0  0  0  0
    9.8696   -2.0109   23.1763 C   0  0  0  0  0  0  0  0  0  0  0  0
    1.0825   -9.6805   16.9623 C   0  0  0  0  0  0  0  0  0  0  0  0
    3.7528   -8.9700   16.7653 C   0  0  0  0  0  0  0  0  0  0  0  0
    7.9578   -6.9767   15.3300 C   0  0  0  0  0  0  0  0  0  0  0  0
    6.1326   -9.4256   17.1591 N   0  0  0  0  0  0  0  0  0  0  0  0
   10.4318   -3.2362   23.3544 C   0  0  0  0  0  0  0  0  0  0  0  0
   10.9225   -4.2565   19.8150 C   0  0  0  0  0  0  0  0  0  0  0  0
   10.4475   -5.4500   19.4632 C   0  0  0  0  0  0  0  0  0  0  0  0
  1  3  4  0
  1  7  4  0
  2 21  4  0
  2 27  4  0
  3  9  4  0
  3 10  4  0
  4  8  4  0
  4 18  4  0
  4 25  1  0
  5  9  4  0
  5 12  4  0
  6 13  1  0
  6 27  1  0
  7 28  4  0
  8 11  4  0
  9 29  4  0
 10 12  4  0
 11 24  1  0
 11 26  4  0
 12 25  1  0
 13 28  1  0
 14 20  4  0
 14 23  4  0
 15 17  4  0
 15 21  4  0
 16 19  4  0
 16 23  4  0
 17 22  4  0
 18 26  4  0
 19 24  4  0
 20 24  4  0
 22 27  4  0
 28 29  4  0
M  END
$$$$

 Created by Python create_sdf_string function

 29 46  0  0  0  0  0  0  0  0999 V2000
   10.7536   -3.4994   17.5086 C   0  0  0  0  0  0  0  0  0  0  0  0
   10.2746   -3.6071   24.4731 Br  0  0  0  0  0  0  0  0  0  0  0  0
   10.0735   -4.4994   17.3587 C   0  0  0  0  0  0  0  0  0  0  0  0
    6.7264   -7.6140   15.9655 C   0  0  0  0  0  0  0  0  0  0  0  0
    9.4434   -6.8009   17.2602 N   0  0  0  0  0  0  0  0  0  0  0  0
   10.5574   -4.1055   22.3275 C   0  0  0  0  0  0  0  0  0  0  0  0
   10.8392   -2.9699   19.0233 C   0  0  0  0  0  0  0  0  0  0  0  0
    5.8153   -7.6199   16.1008 O   0  0  0  0  0  0  0  0  0  0  0  0
    9.9514   -5.4000   18.0141 C   0  0  0  0  0  0  0  0  0  0  0  0
    9.2391   -4.7328   16.0973 N   0  0  0  0  0  0  0  0  0  0  0  0
    4.9392   -8.5902   16.5532 C   0  0  0  0  0  0  0  0  0  0  0  0
    8.9944   -6.4828   16.1984 C   0  0  0  0  0  0  0  0  0  0  0  0
    1.2389   -8.6716   16.4948 C   0  0  0  0  0  0  0  0  0  0  0  0
    9.3647   -1.8433   25.6016 C   0  0  0  0  0  0  0  0  0  0  0  0
    2.1838  -10.4327   17.6013 C   0  0  0  0  0  0  0  0  0  0  0  0
    9.4899   -1.1809   24.2701 C   0  0  0  0  0  0  0  0  0  0  0  0
    7.0826   -8.7062   16.4161 N   0  0  0  0  0  0  0  0  0  0  0  0
    3.3337  -10.1111   17.4465 C   0  0  0  0  0  0  0  0  0  0  0  0
    2.3979   -7.8652   15.9501 N   0  0  0  0  0  0  0  0  0  0  0  0
    9.9591   -3.0504   25.9379 C   0  0  0  0  0  0  0  0  0  0  0  0
    9.5156   -2.3463   23.3676 C   0  0  0  0  0  0  0  0  0  0  0  0
    1.0691   -9.3464   16.9715 C   0  0  0  0  0  0  0  0  0  0  0  0
    4.1025   -9.0322   17.0800 C   0  0  0  0  0  0  0  0  0  0  0  0
    8.1926   -6.8337   14.8387 C   0  0  0  0  0  0  0  0  0  0  0  0
    6.1422   -9.6297   17.1197 N   0  0  0  0  0  0  0  0  0  0  0  0
   10.4649   -3.1824   23.5325 C   0  0  0  0  0  0  0  0  0  0  0  0
   10.8012   -4.2574   19.9440 F   0  0  0  0  0  0  0  0  0  0  0  0
   11.2462   -4.0523   21.0554 He  0  0  0  0  0  0  0  0  0  0  0  0
   10.3072   -5.6586   19.7365 He  0  0  0  0  0  0  0  0  0  0  0  0
  1  3  4  0
  1  7  4  0
  1 11  4  0
  1 16  2  0
  1 20  3  0
  2 20  4  0
  2 26  4  0
  3  9  4  0
  3 10  4  0
  4  8  4  0
  4 17  4  0
  4 24  1  0
  5  8  4  0
  5  9  4  0
  5 12  4  0
  6 13  1  0
  6 19  1  0
  6 20  1  0
  6 26  1  0
  6 27  1  0
  7 22  4  0
  7 27  4  0
  8 11  4  0
  8 15  2  0
  8 20  3  0
 10 12  4  0
 11 23  1  0
 11 25  4  0
 12 24  1  0
 13 19  4  0
 13 23  4  0
 13 27  4  0
 14 20  4  0
 15 18  3  0
 15 21  4  0
 15 22  4  0
 15 24  2  0
 16 21  4  0
 17 25  4  0
 18 20  4  0
 18 23  4  0
 18 26  2  0
 19 23  4  0
 19 25  1  0
 21 26  4  0
 25 26  4  0
M  END
$$$$

 Created by Python create_sdf_string function

 29 33  0  0  0  0  0  0  0  0999 V2000
   10.5366   -3.3638   17.6466 C   0  0  0  0  0  0  0  0  0  0  0  0
   10.4114   -3.7980   24.6947 C   0  0  0  0  0  0  0  0  0  0  0  0
    9.9879   -4.5509   17.2647 C   0  0  0  0  0  0  0  0  0  0  0  0
    6.9948   -7.7482   15.9159 C   0  0  0  0  0  0  0  0  0  0  0  0
    9.3060   -6.6328   17.4268 N   0  0  0  0  0  0  0  0  0  0  0  0
   10.6250   -4.1913   22.2878 C   0  0  0  0  0  0  0  0  0  0  0  0
   10.9714   -3.2128   18.9491 C   0  0  0  0  0  0  0  0  0  0  0  0
    5.6807   -7.6320   15.9621 O   0  0  0  0  0  0  0  0  0  0  0  0
    9.8869   -5.6384   18.0872 C   0  0  0  0  0  0  0  0  0  0  0  0
    9.4091   -4.8775   16.0348 N   0  0  0  0  0  0  0  0  0  0  0  0
    5.0891   -8.6643   16.5611 C   0  0  0  0  0  0  0  0  0  0  0  0
    8.9143   -6.1631   16.2448 C   0  0  0  0  0  0  0  0  0  0  0  0
   11.1759   -3.9051   21.1793 O   0  0  0  0  0  0  0  0  0  0  0  0
    1.4251   -8.4447   16.3601 C   0  0  0  0  0  0  0  0  0  0  0  0
    9.4328   -1.8028   25.6127 C   0  0  0  0  0  0  0  0  0  0  0  0
    1.9791  -10.3606   17.6717 C   0  0  0  0  0  0  0  0  0  0  0  0
    9.3358   -1.2607   24.3301 C   0  0  0  0  0  0  0  0  0  0  0  0
    7.2465   -8.8423   16.5508 N   0  0  0  0  0  0  0  0  0  0  0  0
    3.3119  -10.0455   17.5255 C   0  0  0  0  0  0  0  0  0  0  0  0
    2.7504   -8.1009   16.2409 N   0  0  0  0  0  0  0  0  0  0  0  0
    9.9714   -3.0715   25.7685 C   0  0  0  0  0  0  0  0  0  0  0  0
    9.7941   -1.9918   23.2609 C   0  0  0  0  0  0  0  0  0  0  0  0
    1.0289   -9.5633   17.0314 C   0  0  0  0  0  0  0  0  0  0  0  0
    3.7069   -8.9346   16.7675 C   0  0  0  0  0  0  0  0  0  0  0  0
    7.9784   -6.9071   15.1344 C   0  0  0  0  0  0  0  0  0  0  0  0
    6.1239   -9.3733   16.9404 N   0  0  0  0  0  0  0  0  0  0  0  0
   10.2808   -3.2633   23.4582 C   0  0  0  0  0  0  0  0  0  0  0  0
   10.8331   -4.2113   19.8367 C   0  0  0  0  0  0  0  0  0  0  0  0
   10.3265   -5.4395   19.4505 C   0  0  0  0  0  0  0  0  0  0  0  0
  1  3  4  0
  1  7  4  0
  2 21  4  0
  2 27  4  0
  3  9  4  0
  3 10  4  0
  4  8  4  0
  4 18  4  0
  4 25  1  0
  5  9  4  0
  5 12  4  0
  6 13  1  0
  6 27  1  0
  7 28  4  0
  8 11  4  0
  9 29  4  0
 10 12  4  0
 11 24  1  0
 11 26  4  0
 12 25  1  0
 13 28  1  0
 14 20  4  0
 14 23  4  0
 15 17  4  0
 15 21  4  0
 16 19  4  0
 16 23  4  0
 17 22  4  0
 18 26  4  0
 19 24  4  0
 20 24  4  0
 22 27  4  0
 28 29  4  0
M  END
$$$$

 Created by Python create_sdf_string function

 29 39  0  0  0  0  0  0  0  0999 V2000
   10.7225   -3.2033   17.7584 C   0  0  0  0  0  0  0  0  0  0  0  0
   10.4523   -3.9830   24.6020 C   0  0  0  0  0  0  0  0  0  0  0  0
   10.1548   -4.6615   17.2938 C   0  0  0  0  0  0  0  0  0  0  0  0
    6.7682   -7.7128   15.9393 C   0  0  0  0  0  0  0  0  0  0  0  0
    9.2416   -6.4944   17.5386 N   0  0  0  0  0  0  0  0  0  0  0  0
    5.8386   -7.5347   15.7499 O   0  0  0  0  0  0  0  0  0  0  0  0
   10.1230   -5.6162   18.2091 C   0  0  0  0  0  0  0  0  0  0  0  0
    9.3645   -4.8370   15.9804 N   0  0  0  0  0  0  0  0  0  0  0  0
    5.0346   -8.6397   16.0999 C   0  0  0  0  0  0  0  0  0  0  0  0
   11.1940   -3.9728   21.3311 O   0  0  0  0  0  0  0  0  0  0  0  0
    1.5227   -8.2783   16.6122 C   0  0  0  0  0  0  0  0  0  0  0  0
    9.4178   -1.8040   25.6735 C   0  0  0  0  0  0  0  0  0  0  0  0
    1.9800  -10.3930   17.5569 C   0  0  0  0  0  0  0  0  0  0  0  0
    9.3113   -1.2137   23.8760 C   0  0  0  0  0  0  0  0  0  0  0  0
    7.2770   -8.9402   16.6949 N   0  0  0  0  0  0  0  0  0  0  0  0
    2.8097   -7.8776   16.2433 N   0  0  0  0  0  0  0  0  0  0  0  0
    9.8968   -2.9434   25.8109 C   0  0  0  0  0  0  0  0  0  0  0  0
    9.6102   -1.7727   23.0135 C   0  0  0  0  0  0  0  0  0  0  0  0
    1.3064   -9.5023   16.8252 C   0  0  0  0  0  0  0  0  0  0  0  0
    3.6063   -9.0085   16.7949 C   0  0  0  0  0  0  0  0  0  0  0  0
    7.8478   -6.9893   15.4017 C   0  0  0  0  0  0  0  0  0  0  0  0
    6.1277   -9.3215   17.0741 N   0  0  0  0  0  0  0  0  0  0  0  0
   10.2361   -3.3408   23.6073 C   0  0  0  0  0  0  0  0  0  0  0  0
   10.8417   -4.1340   19.5909 C   0  0  0  0  0  0  0  0  0  0  0  0
   10.0937   -5.6786   19.5071 C   0  0  0  0  0  0  0  0  0  0  0  0
   10.6645   -3.9653   22.2230 He  0  0  0  0  0  0  0  0  0  0  0  0
   11.2704   -3.4055   19.3290 He  0  0  0  0  0  0  0  0  0  0  0  0
    8.5017   -6.0591   16.1964 He  0  0  0  0  0  0  0  0  0  0  0  0
    3.3897   -9.8923   17.8412 He  0  0  0  0  0  0  0  0  0  0  0  0
  1  3  4  0
  1  5  4  0
  2 23  4  0
  3  6  2  0
  3  7  4  0
  3  8  4  0
  3 15  4  0
  3 22  2  0
  4  5  1  0
  4  6  4  0
  4 15  4  0
  4 21  1  0
  5  7  4  0
  5 16  2  0
  5 25  3  0
  6  9  4  0
  7 25  4  0
  8 14  1  0
  8 19  1  0
  8 22  1  0
  9 10  4  0
  9 13  4  0
  9 20  1  0
  9 22  4  0
 10 24  1  0
 11 16  4  0
 11 19  4  0
 12 14  4  0
 12 17  4  0
 12 19  4  0
 12 22  4  0
 13 20  2  0
 13 23  1  0
 14 18  4  0
 15 22  4  0
 16 20  4  0
 16 21  4  0
 19 20  2  0
 24 25  4  0
M  END
$$$$

 Created by Python create_sdf_string function

 29 33  0  0  0  0  0  0  0  0999 V2000
   10.7286   -3.4275   17.6863 C   0  0  0  0  0  0  0  0  0  0  0  0
   10.4020   -3.8048   24.6461 C   0  0  0  0  0  0  0  0  0  0  0  0
   10.0122   -4.5347   17.3129 C   0  0  0  0  0  0  0  0  0  0  0  0
    6.9901   -7.7280   15.9224 C   0  0  0  0  0  0  0  0  0  0  0  0
    9.1289   -6.5513   17.5356 N   0  0  0  0  0  0  0  0  0  0  0  0
   10.5948   -4.1974   22.2892 C   0  0  0  0  0  0  0  0  0  0  0  0
   11.0765   -3.2647   19.0188 C   0  0  0  0  0  0  0  0  0  0  0  0
    5.7075   -7.6919   15.8284 O   0  0  0  0  0  0  0  0  0  0  0  0
    9.8104   -5.5772   18.1764 C   0  0  0  0  0  0  0  0  0  0  0  0
    9.3912   -4.8550   16.1075 N   0  0  0  0  0  0  0  0  0  0  0  0
    5.1075   -8.6794   16.5226 C   0  0  0  0  0  0  0  0  0  0  0  0
    8.8167   -6.1038   16.3069 C   0  0  0  0  0  0  0  0  0  0  0  0
   11.1595   -4.0433   21.2231 O   0  0  0  0  0  0  0  0  0  0  0  0
    1.4734   -8.3481   16.4048 C   0  0  0  0  0  0  0  0  0  0  0  0
    9.4069   -1.7765   25.5243 C   0  0  0  0  0  0  0  0  0  0  0  0
    2.0009  -10.3073   17.6372 C   0  0  0  0  0  0  0  0  0  0  0  0
    9.3690   -1.2189   24.2246 C   0  0  0  0  0  0  0  0  0  0  0  0
    7.2379   -8.8296   16.6565 N   0  0  0  0  0  0  0  0  0  0  0  0
    3.3470  -10.0315   17.4677 C   0  0  0  0  0  0  0  0  0  0  0  0
    2.8096   -8.0270   16.2578 N   0  0  0  0  0  0  0  0  0  0  0  0
    9.9310   -3.0482   25.6970 C   0  0  0  0  0  0  0  0  0  0  0  0
    9.8237   -1.9875   23.1396 C   0  0  0  0  0  0  0  0  0  0  0  0
    1.0883   -9.4706   17.0762 C   0  0  0  0  0  0  0  0  0  0  0  0
    3.7371   -8.8967   16.7505 C   0  0  0  0  0  0  0  0  0  0  0  0
    7.8988   -6.8035   15.3100 C   0  0  0  0  0  0  0  0  0  0  0  0
    6.1034   -9.3976   16.9817 N   0  0  0  0  0  0  0  0  0  0  0  0
   10.2949   -3.2571   23.4058 C   0  0  0  0  0  0  0  0  0  0  0  0
   10.8357   -4.2878   19.8987 C   0  0  0  0  0  0  0  0  0  0  0  0
   10.2892   -5.4592   19.4878 C   0  0  0  0  0  0  0  0  0  0  0  0
  1  3  4  0
  1  7  4  0
  2 21  4  0
  2 27  4  0
  3  9  4  0
  3 10  4  0
  4  8  4  0
  4 18  4  0
  4 25  1  0
  5  9  4  0
  5 12  4  0
  6 13  1  0
  6 27  1  0
  7 28  4  0
  8 11  4  0
  9 29  4  0
 10 12  4  0
 11 24  1  0
 11 26  4  0
 12 25  1  0
 13 28  1  0
 14 20  4  0
 14 23  4  0
 15 17  4  0
 15 21  4  0
 16 19  4  0
 16 23  4  0
 17 22  4  0
 18 26  4  0
 19 24  4  0
 20 24  4  0
 22 27  4  0
 28 29  4  0
M  END
$$$$

 Created by Python create_sdf_string function

 29 48  0  0  0  0  0  0  0  0999 V2000
   10.7646   -3.5652   17.4938 C   0  0  0  0  0  0  0  0  0  0  0  0
   10.2197   -3.8885   24.8335 C   0  0  0  0  0  0  0  0  0  0  0  0
    9.9284   -4.5544   17.2984 C   0  0  0  0  0  0  0  0  0  0  0  0
    7.2985   -7.4331   16.0031 C   0  0  0  0  0  0  0  0  0  0  0  0
    9.1842   -6.9469   17.4373 N   0  0  0  0  0  0  0  0  0  0  0  0
   10.5805   -4.1892   22.4552 C   0  0  0  0  0  0  0  0  0  0  0  0
    5.7166   -7.4958   15.6639 O   0  0  0  0  0  0  0  0  0  0  0  0
    9.7457   -5.5222   18.1047 C   0  0  0  0  0  0  0  0  0  0  0  0
    9.4338   -4.9968   15.9891 N   0  0  0  0  0  0  0  0  0  0  0  0
    4.8910   -8.7699   16.2675 C   0  0  0  0  0  0  0  0  0  0  0  0
    8.9924   -6.1720   16.0542 C   0  0  0  0  0  0  0  0  0  0  0  0
   11.0184   -3.9909   21.4845 O   0  0  0  0  0  0  0  0  0  0  0  0
    1.2693   -8.3868   16.1946 C   0  0  0  0  0  0  0  0  0  0  0  0
    9.4397   -1.7241   25.6539 C   0  0  0  0  0  0  0  0  0  0  0  0
    2.4248  -10.5622   17.5149 C   0  0  0  0  0  0  0  0  0  0  0  0
    9.5380   -1.3663   24.2039 C   0  0  0  0  0  0  0  0  0  0  0  0
    7.1493   -8.7278   16.6170 N   0  0  0  0  0  0  0  0  0  0  0  0
    3.3525   -9.9770   17.8122 O   0  0  0  0  0  0  0  0  0  0  0  0
    2.8907   -7.8997   16.0125 N   0  0  0  0  0  0  0  0  0  0  0  0
    9.8887   -3.5155   25.5614 P   0  0  0  0  0  0  0  0  0  0  0  0
    9.7404   -1.8264   23.0594 C   0  0  0  0  0  0  0  0  0  0  0  0
    1.2083   -9.7176   16.7448 C   0  0  0  0  0  0  0  0  0  0  0  0
    3.6789   -9.1387   16.8297 C   0  0  0  0  0  0  0  0  0  0  0  0
    7.8238   -6.8927   15.3598 C   0  0  0  0  0  0  0  0  0  0  0  0
    6.2018   -9.2534   17.0671 N   0  0  0  0  0  0  0  0  0  0  0  0
   10.2590   -3.0928   23.3579 C   0  0  0  0  0  0  0  0  0  0  0  0
   10.7906   -4.4421   20.1460 C   0  0  0  0  0  0  0  0  0  0  0  0
   10.1635   -5.4670   19.5643 C   0  0  0  0  0  0  0  0  0  0  0  0
   10.8135   -3.4159   18.9893 He  0  0  0  0  0  0  0  0  0  0  0  0
  1  3  4  0
  2 20  4  0
  2 21  1  0
  2 26  4  0
  3  7  2  0
  3  9  4  0
  4  7  4  0
  4 17  4  0
  4 22  2  0
  4 24  1  0
  5  8  4  0
  5 11  4  0
  6 12  1  0
  6 21  3  0
  6 26  1  0
  7 10  4  0
  7 15  2  0
  7 26  2  0
  8 11  1  0
  8 25  2  0
  8 28  4  0
  9 11  4  0
  9 14  4  0
 10 23  1  0
 10 25  4  0
 11 19  2  0
 11 22  3  0
 11 24  1  0
 12 27  1  0
 13 22  4  0
 14 16  4  0
 14 20  4  0
 15 18  4  0
 15 22  4  0
 15 27  2  0
 16 21  4  0
 16 28  1  0
 17 21  2  0
 17 25  4  0
 18 23  4  0
 19 23  4  0
 20 25  1  0
 21 22  3  0
 21 26  4  0
 23 24  4  0
 23 28  2  0
 25 28  2  0
 27 28  4  0
M  END
$$$$

 Created by Python create_sdf_string function

 29 33  0  0  0  0  0  0  0  0999 V2000
   10.6181   -3.5061   17.6571 C   0  0  0  0  0  0  0  0  0  0  0  0
   10.2757   -3.8899   24.6801 C   0  0  0  0  0  0  0  0  0  0  0  0
   10.0072   -4.6577   17.2789 C   0  0  0  0  0  0  0  0  0  0  0  0
    7.0119   -7.7057   15.9004 C   0  0  0  0  0  0  0  0  0  0  0  0
    9.1172   -6.6841   17.5073 N   0  0  0  0  0  0  0  0  0  0  0  0
   10.6040   -4.2207   22.3042 C   0  0  0  0  0  0  0  0  0  0  0  0
   10.9839   -3.3308   18.9712 C   0  0  0  0  0  0  0  0  0  0  0  0
    5.7203   -7.6577   15.7893 O   0  0  0  0  0  0  0  0  0  0  0  0
    9.7806   -5.6803   18.1492 C   0  0  0  0  0  0  0  0  0  0  0  0
    9.4680   -4.9743   16.0431 N   0  0  0  0  0  0  0  0  0  0  0  0
    5.1096   -8.6501   16.5010 C   0  0  0  0  0  0  0  0  0  0  0  0
    8.8497   -6.1614   16.2502 C   0  0  0  0  0  0  0  0  0  0  0  0
   11.0291   -3.9375   21.2348 O   0  0  0  0  0  0  0  0  0  0  0  0
    1.4741   -8.5459   16.1955 C   0  0  0  0  0  0  0  0  0  0  0  0
    9.4128   -1.8265   25.5681 C   0  0  0  0  0  0  0  0  0  0  0  0
    2.1113  -10.3716   17.5985 C   0  0  0  0  0  0  0  0  0  0  0  0
    9.4754   -1.2433   24.2973 C   0  0  0  0  0  0  0  0  0  0  0  0
    7.2427   -8.7560   16.6924 N   0  0  0  0  0  0  0  0  0  0  0  0
    3.4158  -10.0254   17.4724 C   0  0  0  0  0  0  0  0  0  0  0  0
    2.7940   -8.1472   16.0912 N   0  0  0  0  0  0  0  0  0  0  0  0
    9.8225   -3.1404   25.7381 C   0  0  0  0  0  0  0  0  0  0  0  0
    9.9267   -2.0033   23.2319 C   0  0  0  0  0  0  0  0  0  0  0  0
    1.1588   -9.6747   16.9102 C   0  0  0  0  0  0  0  0  0  0  0  0
    3.7485   -8.9300   16.6833 C   0  0  0  0  0  0  0  0  0  0  0  0
    7.9294   -6.8448   15.2373 C   0  0  0  0  0  0  0  0  0  0  0  0
    6.1232   -9.3085   17.0057 N   0  0  0  0  0  0  0  0  0  0  0  0
   10.2764   -3.3234   23.4464 C   0  0  0  0  0  0  0  0  0  0  0  0
   10.7094   -4.2963   19.8935 C   0  0  0  0  0  0  0  0  0  0  0  0
   10.1537   -5.4899   19.5028 C   0  0  0  0  0  0  0  0  0  0  0  0
  1  3  4  0
  1  7  4  0
  2 21  4  0
  2 27  4  0
  3  9  4  0
  3 10  4  0
  4  8  4  0
  4 18  4  0
  4 25  1  0
  5  9  4  0
  5 12  4  0
  6 13  1  0
  6 27  1  0
  7 28  4  0
  8 11  4  0
  9 29  4  0
 10 12  4  0
 11 24  1  0
 11 26  4  0
 12 25  1  0
 13 28  1  0
 14 20  4  0
 14 23  4  0
 15 17  4  0
 15 21  4  0
 16 19  4  0
 16 23  4  0
 17 22  4  0
 18 26  4  0
 19 24  4  0
 20 24  4  0
 22 27  4  0
 28 29  4  0
M  END
$$$$

 Created by Python create_sdf_string function

 29 44  0  0  0  0  0  0  0  0999 V2000
   10.5672   -3.8918   17.6986 C   0  0  0  0  0  0  0  0  0  0  0  0
   10.2752   -3.9784   24.9730 C   0  0  0  0  0  0  0  0  0  0  0  0
    9.8108   -4.7680   17.6516 C   0  0  0  0  0  0  0  0  0  0  0  0
    7.0592   -7.6990   15.9464 C   0  0  0  0  0  0  0  0  0  0  0  0
    9.2697   -6.7383   17.4688 N   0  0  0  0  0  0  0  0  0  0  0  0
   10.8625   -4.0756   22.1982 C   0  0  0  0  0  0  0  0  0  0  0  0
   11.2638   -3.4614   18.7645 C   0  0  0  0  0  0  0  0  0  0  0  0
    5.7402   -7.5688   15.6246 O   0  0  0  0  0  0  0  0  0  0  0  0
    9.7451   -5.8954   18.1432 C   0  0  0  0  0  0  0  0  0  0  0  0
    9.4889   -4.9744   15.9323 N   0  0  0  0  0  0  0  0  0  0  0  0
    4.7351   -8.9931   16.7253 O   0  0  0  0  0  0  0  0  0  0  0  0
    8.7789   -6.1778   16.3501 C   0  0  0  0  0  0  0  0  0  0  0  0
   10.8379   -3.9655   21.3101 O   0  0  0  0  0  0  0  0  0  0  0  0
    1.5785   -8.6281   16.2442 C   0  0  0  0  0  0  0  0  0  0  0  0
    9.2772   -1.7607   25.5688 C   0  0  0  0  0  0  0  0  0  0  0  0
    1.9916  -10.4750   17.6496 C   0  0  0  0  0  0  0  0  0  0  0  0
    9.3446   -1.2618   24.2140 C   0  0  0  0  0  0  0  0  0  0  0  0
    7.0248   -8.9367   16.6609 N   0  0  0  0  0  0  0  0  0  0  0  0
    3.6299   -9.9498   17.4905 C   0  0  0  0  0  0  0  0  0  0  0  0
    2.7516   -8.2523   16.1968 Se  0  0  0  0  0  0  0  0  0  0  0  0
    9.6966   -3.0692   25.4573 C   0  0  0  0  0  0  0  0  0  0  0  0
    9.9230   -1.7975   23.2879 C   0  0  0  0  0  0  0  0  0  0  0  0
    1.1942   -9.5360   16.6530 C   0  0  0  0  0  0  0  0  0  0  0  0
    3.7465   -9.2136   16.7304 C   0  0  0  0  0  0  0  0  0  0  0  0
    6.2900   -9.5402   17.2105 N   0  0  0  0  0  0  0  0  0  0  0  0
   10.2826   -2.9951   23.4221 C   0  0  0  0  0  0  0  0  0  0  0  0
   10.8343   -4.2229   20.0949 C   0  0  0  0  0  0  0  0  0  0  0  0
   10.2752   -5.5605   19.3405 C   0  0  0  0  0  0  0  0  0  0  0  0
    7.8952   -6.8750   15.3652 He  0  0  0  0  0  0  0  0  0  0  0  0
  1  3  4  0
  1  7  4  0
  1 22  4  0
  2  6  4  0
  2 21  4  0
  2 26  4  0
  3  9  4  0
  3 10  4  0
  3 20  2  0
  4  8  4  0
  4 10  4  0
  4 11  2  0
  4 18  4  0
  5  6  1  0
  5 12  4  0
  6 13  1  0
  6 26  1  0
  7 10  2  0
  7 27  4  0
  8 11  4  0
  8 28  1  0
  9 13  3  0
  9 28  4  0
 10 12  4  0
 11 16  4  0
 11 18  4  0
 11 24  1  0
 11 25  4  0
 12 13  4  0
 12 17  2  0
 12 28  4  0
 14 20  4  0
 15 18  1  0
 15 21  4  0
 16 19  4  0
 16 23  4  0
 17 22  4  0
 18 25  4  0
 18 26  2  0
 19 24  4  0
 20 24  4  0
 21 22  1  0
 22 26  4  0
 27 28  4  0
M  END
$$$$

 Created by Python create_sdf_string function

 29 33  0  0  0  0  0  0  0  0999 V2000
   10.6806   -3.5793   17.6231 C   0  0  0  0  0  0  0  0  0  0  0  0
   10.2670   -3.7773   24.6965 C   0  0  0  0  0  0  0  0  0  0  0  0
   10.0071   -4.7239   17.2922 C   0  0  0  0  0  0  0  0  0  0  0  0
    6.9602   -7.8300   15.9621 C   0  0  0  0  0  0  0  0  0  0  0  0
    9.0984   -6.7188   17.5704 N   0  0  0  0  0  0  0  0  0  0  0  0
   10.8427   -4.0732   22.3041 C   0  0  0  0  0  0  0  0  0  0  0  0
   11.0484   -3.3694   18.9426 C   0  0  0  0  0  0  0  0  0  0  0  0
    5.6850   -7.7953   15.8591 O   0  0  0  0  0  0  0  0  0  0  0  0
    9.7982   -5.7306   18.1875 C   0  0  0  0  0  0  0  0  0  0  0  0
    9.3789   -5.0177   16.1062 N   0  0  0  0  0  0  0  0  0  0  0  0
    5.1362   -8.7885   16.5634 C   0  0  0  0  0  0  0  0  0  0  0  0
    8.7872   -6.2418   16.3314 C   0  0  0  0  0  0  0  0  0  0  0  0
   10.8923   -3.9006   21.2327 O   0  0  0  0  0  0  0  0  0  0  0  0
    1.5251   -8.5959   16.1729 C   0  0  0  0  0  0  0  0  0  0  0  0
    9.2287   -1.7704   25.5445 C   0  0  0  0  0  0  0  0  0  0  0  0
    1.9991  -10.4079   17.6299 C   0  0  0  0  0  0  0  0  0  0  0  0
    9.4059   -1.1520   24.2938 C   0  0  0  0  0  0  0  0  0  0  0  0
    7.2248   -8.9052   16.7360 N   0  0  0  0  0  0  0  0  0  0  0  0
    3.3494  -10.1068   17.5418 C   0  0  0  0  0  0  0  0  0  0  0  0
    2.8403   -8.2828   16.0827 C   0  0  0  0  0  0  0  0  0  0  0  0
    9.6844   -3.0604   25.7360 C   0  0  0  0  0  0  0  0  0  0  0  0
    9.9589   -1.8844   23.2517 C   0  0  0  0  0  0  0  0  0  0  0  0
    1.1098   -9.6637   16.9269 C   0  0  0  0  0  0  0  0  0  0  0  0
    3.7746   -9.0607   16.7384 C   0  0  0  0  0  0  0  0  0  0  0  0
    7.8761   -6.9213   15.2904 C   0  0  0  0  0  0  0  0  0  0  0  0
    6.1474   -9.4451   17.0719 N   0  0  0  0  0  0  0  0  0  0  0  0
   10.3474   -3.1950   23.4831 C   0  0  0  0  0  0  0  0  0  0  0  0
   10.7508   -4.3154   19.8797 C   0  0  0  0  0  0  0  0  0  0  0  0
   10.2171   -5.5094   19.5158 C   0  0  0  0  0  0  0  0  0  0  0  0
  1  3  4  0
  1  7  4  0
  2 21  4  0
  2 27  4  0
  3  9  4  0
  3 10  4  0
  4  8  4  0
  4 18  4  0
  4 25  1  0
  5  9  4  0
  5 12  4  0
  6 13  1  0
  6 27  1  0
  7 28  4  0
  8 11  4  0
  9 29  4  0
 10 12  4  0
 11 24  1  0
 11 26  4  0
 12 25  1  0
 13 28  1  0
 14 20  4  0
 14 23  4  0
 15 17  4  0
 15 21  4  0
 16 19  4  0
 16 23  4  0
 17 22  4  0
 18 26  4  0
 19 24  4  0
 20 24  4  0
 22 27  4  0
 28 29  4  0
M  END
$$$$

 Created by Python create_sdf_string function

 29 52  0  0  0  0  0  0  0  0999 V2000
   10.6099   -3.6438   17.4932 C   0  0  0  0  0  0  0  0  0  0  0  0
   10.3069   -3.6395   24.6428 C   0  0  0  0  0  0  0  0  0  0  0  0
    9.8335   -4.8986   17.2937 C   0  0  0  0  0  0  0  0  0  0  0  0
    6.9389   -8.0678   15.9379 C   0  0  0  0  0  0  0  0  0  0  0  0
    9.4682   -6.6049   17.6424 N   0  0  0  0  0  0  0  0  0  0  0  0
   10.8337   -4.0674   22.3977 C   0  0  0  0  0  0  0  0  0  0  0  0
   10.8780   -3.1879   19.0985 C   0  0  0  0  0  0  0  0  0  0  0  0
    5.6238   -7.7517   15.9180 O   0  0  0  0  0  0  0  0  0  0  0  0
    9.8670   -5.7872   18.0467 C   0  0  0  0  0  0  0  0  0  0  0  0
    9.5530   -4.9081   16.3399 N   0  0  0  0  0  0  0  0  0  0  0  0
    5.0663   -8.6177   16.6717 C   0  0  0  0  0  0  0  0  0  0  0  0
    8.8302   -6.2013   16.3127 C   0  0  0  0  0  0  0  0  0  0  0  0
   10.6904   -4.0113   21.0734 O   0  0  0  0  0  0  0  0  0  0  0  0
    1.6899   -8.3558   16.1392 C   0  0  0  0  0  0  0  0  0  0  0  0
    9.0854   -1.7075   25.5451 C   0  0  0  0  0  0  0  0  0  0  0  0
    2.4227  -10.4220   17.5262 C   0  0  0  0  0  0  0  0  0  0  0  0
    9.3900   -0.9613   24.2658 C   0  0  0  0  0  0  0  0  0  0  0  0
    7.1480   -9.0361   16.7734 N   0  0  0  0  0  0  0  0  0  0  0  0
    3.0823   -9.9412   17.4721 C   0  0  0  0  0  0  0  0  0  0  0  0
    2.7905   -8.2138   16.2529 C   0  0  0  0  0  0  0  0  0  0  0  0
    9.6182   -2.8129   25.7474 C   0  0  0  0  0  0  0  0  0  0  0  0
    1.0670   -9.7473   17.0108 C   0  0  0  0  0  0  0  0  0  0  0  0
    3.8537   -9.1982   16.7577 C   0  0  0  0  0  0  0  0  0  0  0  0
    7.8651   -6.9181   15.3767 C   0  0  0  0  0  0  0  0  0  0  0  0
    6.2960   -9.2376   16.9758 N   0  0  0  0  0  0  0  0  0  0  0  0
   10.3752   -3.0791   23.5271 C   0  0  0  0  0  0  0  0  0  0  0  0
   10.8936   -4.1084   19.8048 C   0  0  0  0  0  0  0  0  0  0  0  0
   10.3986   -5.4275   19.5147 C   0  0  0  0  0  0  0  0  0  0  0  0
   10.1411   -1.9825   23.2548 He  0  0  0  0  0  0  0  0  0  0  0  0
  1  3  4  0
  1  7  1  0
  2 13  4  0
  2 21  4  0
  2 26  4  0
  3  9  4  0
  3 10  4  0
  3 12  3  0
  3 24  1  0
  4  5  1  0
  4  8  4  0
  4 18  4  0
  4 23  4  0
  4 24  3  0
  4 25  1  0
  4 26  2  0
  5  9  4  0
  5 12  4  0
  5 19  4  0
  6 13  1  0
  6 26  1  0
  7 27  4  0
  8 11  1  0
  8 23  2  0
  8 25  2  0
  9 10  2  0
  9 17  2  0
 10 12  4  0
 11 23  1  0
 11 25  4  0
 12 24  1  0
 13 17  2  0
 13 18  3  0
 13 21  1  0
 13 27  1  0
 14 18  1  0
 14 20  4  0
 14 22  4  0
 15 17  2  0
 15 21  4  0
 15 25  3  0
 16 19  4  0
 16 22  4  0
 17 24  3  0
 18 25  4  0
 19 23  2  0
 20 23  4  0
 22 26  3  0
 23 24  2  0
 24 27  1  0
 26 28  2  0
 27 28  4  0
M  END
$$$$

 Created by Python create_sdf_string function

 29 33  0  0  0  0  0  0  0  0999 V2000
   10.5613   -3.4662   17.6342 C   0  0  0  0  0  0  0  0  0  0  0  0
   10.2480   -3.6758   24.7261 C   0  0  0  0  0  0  0  0  0  0  0  0
    9.9868   -4.6658   17.2978 C   0  0  0  0  0  0  0  0  0  0  0  0
    7.0210   -7.8618   16.0156 C   0  0  0  0  0  0  0  0  0  0  0  0
    9.2355   -6.7038   17.5926 N   0  0  0  0  0  0  0  0  0  0  0  0
   10.8421   -4.0345   22.3800 C   0  0  0  0  0  0  0  0  0  0  0  0
   10.9240   -3.2312   18.9520 C   0  0  0  0  0  0  0  0  0  0  0  0
    5.7416   -7.7825   15.9124 O   0  0  0  0  0  0  0  0  0  0  0  0
    9.8785   -5.6853   18.1811 C   0  0  0  0  0  0  0  0  0  0  0  0
    9.3872   -5.0295   16.1384 N   0  0  0  0  0  0  0  0  0  0  0  0
    5.1519   -8.7465   16.6123 C   0  0  0  0  0  0  0  0  0  0  0  0
    8.8760   -6.2577   16.3853 C   0  0  0  0  0  0  0  0  0  0  0  0
   10.7896   -3.8233   21.2132 O   0  0  0  0  0  0  0  0  0  0  0  0
    1.5185   -8.5284   16.2371 C   0  0  0  0  0  0  0  0  0  0  0  0
    9.2072   -1.6317   25.4800 C   0  0  0  0  0  0  0  0  0  0  0  0
    1.9982  -10.3991   17.6157 C   0  0  0  0  0  0  0  0  0  0  0  0
    9.4444   -1.0467   24.2029 C   0  0  0  0  0  0  0  0  0  0  0  0
    7.2779   -8.9385   16.7296 N   0  0  0  0  0  0  0  0  0  0  0  0
    3.3374  -10.1042   17.5378 C   0  0  0  0  0  0  0  0  0  0  0  0
    2.8316   -8.2127   16.1708 C   0  0  0  0  0  0  0  0  0  0  0  0
    9.6324   -2.9387   25.7312 C   0  0  0  0  0  0  0  0  0  0  0  0
   10.0296   -1.8248   23.2063 C   0  0  0  0  0  0  0  0  0  0  0  0
    1.1063   -9.6255   16.9369 C   0  0  0  0  0  0  0  0  0  0  0  0
    3.7647   -9.0176   16.7836 C   0  0  0  0  0  0  0  0  0  0  0  0
    7.9793   -6.9796   15.3825 C   0  0  0  0  0  0  0  0  0  0  0  0
    6.1366   -9.4363   17.1276 N   0  0  0  0  0  0  0  0  0  0  0  0
   10.3592   -3.1146   23.4926 C   0  0  0  0  0  0  0  0  0  0  0  0
   10.7057   -4.2021   19.9040 C   0  0  0  0  0  0  0  0  0  0  0  0
   10.3146   -5.4495   19.5304 C   0  0  0  0  0  0  0  0  0  0  0  0
  1  3  4  0
  1  7  4  0
  2 21  4  0
  2 27  4  0
  3  9  4  0
  3 10  4  0
  4  8  4  0
  4 18  4  0
  4 25  1  0
  5  9  4  0
  5 12  4  0
  6 13  1  0
  6 27  1  0
  7 28  4  0
  8 11  4  0
  9 29  4  0
 10 12  4  0
 11 24  1  0
 11 26  4  0
 12 25  1  0
 13 28  1  0
 14 20  4  0
 14 23  4  0
 15 17  4  0
 15 21  4  0
 16 19  4  0
 16 23  4  0
 17 22  4  0
 18 26  4  0
 19 24  4  0
 20 24  4  0
 22 27  4  0
 28 29  4  0
M  END
$$$$

 Created by Python create_sdf_string function

 29 42  0  0  0  0  0  0  0  0999 V2000
   10.4584   -3.2859   17.7820 C   0  0  0  0  0  0  0  0  0  0  0  0
   10.1441   -3.5016   24.6579 C   0  0  0  0  0  0  0  0  0  0  0  0
    9.9761   -4.7327   17.5627 C   0  0  0  0  0  0  0  0  0  0  0  0
    7.0223   -7.7019   16.0818 C   0  0  0  0  0  0  0  0  0  0  0  0
    9.1919   -6.7202   17.6010 N   0  0  0  0  0  0  0  0  0  0  0  0
   10.8555   -4.0600   22.3871 C   0  0  0  0  0  0  0  0  0  0  0  0
   11.0388   -3.4508   18.9274 C   0  0  0  0  0  0  0  0  0  0  0  0
   10.0130   -5.9171   17.9753 C   0  0  0  0  0  0  0  0  0  0  0  0
    9.3261   -4.9727   16.1565 N   0  0  0  0  0  0  0  0  0  0  0  0
    4.9858   -8.6742   16.5426 C   0  0  0  0  0  0  0  0  0  0  0  0
   10.9542   -4.0389   21.1237 O   0  0  0  0  0  0  0  0  0  0  0  0
    1.5653   -8.5077   16.0442 C   0  0  0  0  0  0  0  0  0  0  0  0
    9.0631   -1.7787   25.7450 C   0  0  0  0  0  0  0  0  0  0  0  0
    2.1330  -10.4218   17.6411 C   0  0  0  0  0  0  0  0  0  0  0  0
    9.2683   -1.0033   24.0949 C   0  0  0  0  0  0  0  0  0  0  0  0
    7.2057   -8.9681   16.8338 N   0  0  0  0  0  0  0  0  0  0  0  0
    3.4103  -10.0437   17.5719 C   0  0  0  0  0  0  0  0  0  0  0  0
    2.7383   -8.0458   15.9551 P   0  0  0  0  0  0  0  0  0  0  0  0
    9.9834   -1.7371   23.2604 C   0  0  0  0  0  0  0  0  0  0  0  0
    1.2516   -9.8193   16.8488 C   0  0  0  0  0  0  0  0  0  0  0  0
    3.7204   -8.8908   16.8471 C   0  0  0  0  0  0  0  0  0  0  0  0
    7.6912   -6.7542   15.2650 C   0  0  0  0  0  0  0  0  0  0  0  0
    6.3068   -9.5279   17.2052 N   0  0  0  0  0  0  0  0  0  0  0  0
   10.4338   -3.2008   23.3378 C   0  0  0  0  0  0  0  0  0  0  0  0
   10.7316   -4.0998   20.0876 C   0  0  0  0  0  0  0  0  0  0  0  0
   10.2191   -5.2905   19.6087 C   0  0  0  0  0  0  0  0  0  0  0  0
    5.8147   -7.8462   15.7986 He  0  0  0  0  0  0  0  0  0  0  0  0
    8.5514   -6.2038   16.4363 He  0  0  0  0  0  0  0  0  0  0  0  0
    9.4107   -3.1162   25.9450 He  0  0  0  0  0  0  0  0  0  0  0  0
  1  5  2  0
  1  9  1  0
  2  6  3  0
  2 24  4  0
  3  6  4  0
  3  8  4  0
  3 23  1  0
  4 16  4  0
  6 11  1  0
  6 17  4  0
  6 24  1  0
  7 16  4  0
  7 25  4  0
  8 17  2  0
  8 18  4  0
  8 26  4  0
  9 12  2  0
 10 12  3  0
 10 21  1  0
 10 23  4  0
 11 14  3  0
 11 16  2  0
 11 20  3  0
 11 25  1  0
 12 18  4  0
 12 20  4  0
 13 15  1  0
 14 17  4  0
 14 20  4  0
 14 23  4  0
 15 19  4  0
 16 21  1  0
 16 23  4  0
 17 20  1  0
 17 21  4  0
 18 19  4  0
 18 21  4  0
 18 26  4  0
 19 20  2  0
 19 24  4  0
 21 25  3  0
 25 26  4  0
M  END
$$$$

 Created by Python create_sdf_string function

 29 33  0  0  0  0  0  0  0  0999 V2000
   10.5774   -3.4576   17.7040 C   0  0  0  0  0  0  0  0  0  0  0  0
   10.1600   -3.7043   24.7455 C   0  0  0  0  0  0  0  0  0  0  0  0
    9.9169   -4.6165   17.3785 C   0  0  0  0  0  0  0  0  0  0  0  0
    6.9761   -7.7748   16.0297 C   0  0  0  0  0  0  0  0  0  0  0  0
    9.1459   -6.6866   17.5869 N   0  0  0  0  0  0  0  0  0  0  0  0
   10.8315   -4.0501   22.4035 C   0  0  0  0  0  0  0  0  0  0  0  0
   10.9184   -3.2269   19.0178 C   0  0  0  0  0  0  0  0  0  0  0  0
    5.7190   -7.7864   15.8891 O   0  0  0  0  0  0  0  0  0  0  0  0
    9.7910   -5.6518   18.2505 C   0  0  0  0  0  0  0  0  0  0  0  0
    9.3032   -4.9464   16.2124 N   0  0  0  0  0  0  0  0  0  0  0  0
    5.1267   -8.7630   16.5754 C   0  0  0  0  0  0  0  0  0  0  0  0
    8.7683   -6.1772   16.3770 C   0  0  0  0  0  0  0  0  0  0  0  0
   10.9506   -3.8642   21.2703 O   0  0  0  0  0  0  0  0  0  0  0  0
    1.4988   -8.6282   16.1290 C   0  0  0  0  0  0  0  0  0  0  0  0
    9.0843   -1.6893   25.5115 C   0  0  0  0  0  0  0  0  0  0  0  0
    2.0148  -10.3862   17.6432 C   0  0  0  0  0  0  0  0  0  0  0  0
    9.3577   -1.0656   24.2737 C   0  0  0  0  0  0  0  0  0  0  0  0
    7.2648   -8.8372   16.8122 N   0  0  0  0  0  0  0  0  0  0  0  0
    3.3609  -10.0545   17.5730 C   0  0  0  0  0  0  0  0  0  0  0  0
    2.8120   -8.2689   16.0508 C   0  0  0  0  0  0  0  0  0  0  0  0
    9.5133   -3.0052   25.7468 C   0  0  0  0  0  0  0  0  0  0  0  0
    9.9723   -1.8127   23.2683 C   0  0  0  0  0  0  0  0  0  0  0  0
    1.1195   -9.6872   16.8841 C   0  0  0  0  0  0  0  0  0  0  0  0
    3.7564   -9.0327   16.7342 C   0  0  0  0  0  0  0  0  0  0  0  0
    7.8471   -6.7930   15.3869 C   0  0  0  0  0  0  0  0  0  0  0  0
    6.1508   -9.4220   17.1379 N   0  0  0  0  0  0  0  0  0  0  0  0
   10.3205   -3.1418   23.5201 C   0  0  0  0  0  0  0  0  0  0  0  0
   10.7542   -4.2167   19.9489 C   0  0  0  0  0  0  0  0  0  0  0  0
   10.3043   -5.4373   19.5707 C   0  0  0  0  0  0  0  0  0  0  0  0
  1  3  4  0
  1  7  4  0
  2 21  4  0
  2 27  4  0
  3  9  4  0
  3 10  4  0
  4  8  4  0
  4 18  4  0
  4 25  1  0
  5  9  4  0
  5 12  4  0
  6 13  1  0
  6 27  1  0
  7 28  4  0
  8 11  4  0
  9 29  4  0
 10 12  4  0
 11 24  1  0
 11 26  4  0
 12 25  1  0
 13 28  1  0
 14 20  4  0
 14 23  4  0
 15 17  4  0
 15 21  4  0
 16 19  4  0
 16 23  4  0
 17 22  4  0
 18 26  4  0
 19 24  4  0
 20 24  4  0
 22 27  4  0
 28 29  4  0
M  END
$$$$

 Created by Python create_sdf_string function

 29 52  0  0  0  0  0  0  0  0999 V2000
   10.7197   -3.3850   17.8154 C   0  0  0  0  0  0  0  0  0  0  0  0
   10.2378   -3.7965   24.8084 C   0  0  0  0  0  0  0  0  0  0  0  0
   10.1878   -4.6749   17.5372 C   0  0  0  0  0  0  0  0  0  0  0  0
    6.8757   -7.8078   16.0481 C   0  0  0  0  0  0  0  0  0  0  0  0
    9.0758   -6.8083   17.4885 N   0  0  0  0  0  0  0  0  0  0  0  0
   11.0103   -4.2407   22.5234 C   0  0  0  0  0  0  0  0  0  0  0  0
   10.8263   -3.2500   18.9898 C   0  0  0  0  0  0  0  0  0  0  0  0
    9.9552   -5.5792   18.2990 C   0  0  0  0  0  0  0  0  0  0  0  0
    9.1705   -4.9646   16.2395 N   0  0  0  0  0  0  0  0  0  0  0  0
    5.1694   -8.8130   16.7836 C   0  0  0  0  0  0  0  0  0  0  0  0
    8.7231   -5.9749   16.5078 C   0  0  0  0  0  0  0  0  0  0  0  0
   11.0187   -4.0111   21.2160 O   0  0  0  0  0  0  0  0  0  0  0  0
    1.4944   -8.4186   16.0888 C   0  0  0  0  0  0  0  0  0  0  0  0
    9.0812   -1.6052   25.4834 C   0  0  0  0  0  0  0  0  0  0  0  0
    1.9705  -10.3297   17.7898 C   0  0  0  0  0  0  0  0  0  0  0  0
    9.4255   -0.8533   24.3950 O   0  0  0  0  0  0  0  0  0  0  0  0
    7.1130   -8.8766   16.8744 N   0  0  0  0  0  0  0  0  0  0  0  0
    3.3197  -10.1523   17.5095 C   0  0  0  0  0  0  0  0  0  0  0  0
    2.6498   -8.1061   16.2469 C   0  0  0  0  0  0  0  0  0  0  0  0
    9.4478   -3.0212   25.8523 C   0  0  0  0  0  0  0  0  0  0  0  0
   10.1624   -1.8809   23.3077 C   0  0  0  0  0  0  0  0  0  0  0  0
    1.0484   -9.5691   17.0034 C   0  0  0  0  0  0  0  0  0  0  0  0
    3.6176   -9.0069   16.6458 C   0  0  0  0  0  0  0  0  0  0  0  0
    7.6135   -6.9046   15.3797 C   0  0  0  0  0  0  0  0  0  0  0  0
    6.0801   -9.3868   17.2163 N   0  0  0  0  0  0  0  0  0  0  0  0
   10.4219   -3.3902   23.6867 C   0  0  0  0  0  0  0  0  0  0  0  0
   10.8235   -4.1953   20.0413 C   0  0  0  0  0  0  0  0  0  0  0  0
   10.1737   -5.4264   19.5143 C   0  0  0  0  0  0  0  0  0  0  0  0
    5.6299   -7.7589   15.9560 He  0  0  0  0  0  0  0  0  0  0  0  0
  1  3  4  0
  1  7  4  0
  1  8  2  0
  2 20  4  0
  2 25  4  0
  2 27  2  0
  3  8  4  0
  3  9  4  0
  3 20  2  0
  3 24  4  0
  4 17  4  0
  4 18  2  0
  4 24  1  0
  5  8  4  0
  5 11  4  0
  5 28  3  0
  6  7  1  0
  6 11  3  0
  6 12  1  0
  6 26  3  0
  7 27  4  0
  8 16  2  0
  8 28  4  0
  9 11  4  0
 10 17  2  0
 10 25  3  0
 11 13  3  0
 11 16  3  0
 11 24  1  0
 12 23  1  0
 12 27  1  0
 13 19  4  0
 13 20  1  0
 13 22  4  0
 13 28  2  0
 14 16  4  0
 14 20  4  0
 15 16  1  0
 15 18  4  0
 15 22  4  0
 16 20  1  0
 16 21  4  0
 17 25  4  0
 18 22  1  0
 18 23  4  0
 19 22  3  0
 19 23  4  0
 21 23  2  0
 21 26  2  0
 22 28  1  0
 25 26  3  0
 27 28  4  0
M  END
$$$$

 Created by Python create_sdf_string function

 29 33  0  0  0  0  0  0  0  0999 V2000
   10.5890   -3.4310   17.7454 C   0  0  0  0  0  0  0  0  0  0  0  0
   10.1539   -3.7540   24.8276 C   0  0  0  0  0  0  0  0  0  0  0  0
    9.9236   -4.5957   17.3925 C   0  0  0  0  0  0  0  0  0  0  0  0
    6.8814   -7.7687   16.1003 C   0  0  0  0  0  0  0  0  0  0  0  0
    9.0854   -6.6382   17.6320 N   0  0  0  0  0  0  0  0  0  0  0  0
   10.8703   -4.1522   22.4955 C   0  0  0  0  0  0  0  0  0  0  0  0
   10.9668   -3.2502   19.0638 C   0  0  0  0  0  0  0  0  0  0  0  0
    5.6334   -7.7890   15.9704 O   0  0  0  0  0  0  0  0  0  0  0  0
    9.7733   -5.6263   18.2675 C   0  0  0  0  0  0  0  0  0  0  0  0
    9.3220   -4.9311   16.2230 N   0  0  0  0  0  0  0  0  0  0  0  0
    5.0453   -8.7494   16.6468 C   0  0  0  0  0  0  0  0  0  0  0  0
    8.7353   -6.1478   16.4198 C   0  0  0  0  0  0  0  0  0  0  0  0
   10.9944   -3.9049   21.3112 O   0  0  0  0  0  0  0  0  0  0  0  0
    1.4084   -8.5006   16.2722 C   0  0  0  0  0  0  0  0  0  0  0  0
    9.1435   -1.6448   25.5045 C   0  0  0  0  0  0  0  0  0  0  0  0
    1.8946  -10.3553   17.6713 C   0  0  0  0  0  0  0  0  0  0  0  0
    9.4882   -1.0788   24.2826 C   0  0  0  0  0  0  0  0  0  0  0  0
    7.1796   -8.8142   16.8856 N   0  0  0  0  0  0  0  0  0  0  0  0
    3.2559  -10.0750   17.5822 C   0  0  0  0  0  0  0  0  0  0  0  0
    2.7428   -8.2197   16.1341 C   0  0  0  0  0  0  0  0  0  0  0  0
    9.4910   -2.9770   25.7863 C   0  0  0  0  0  0  0  0  0  0  0  0
   10.1213   -1.8740   23.3323 C   0  0  0  0  0  0  0  0  0  0  0  0
    1.0012   -9.5690   17.0139 C   0  0  0  0  0  0  0  0  0  0  0  0
    3.6727   -9.0253   16.8006 C   0  0  0  0  0  0  0  0  0  0  0  0
    7.7813   -6.8188   15.4305 C   0  0  0  0  0  0  0  0  0  0  0  0
    6.0756   -9.4168   17.2056 N   0  0  0  0  0  0  0  0  0  0  0  0
   10.3945   -3.2130   23.6017 C   0  0  0  0  0  0  0  0  0  0  0  0
   10.7518   -4.2248   19.9959 C   0  0  0  0  0  0  0  0  0  0  0  0
   10.2664   -5.4325   19.5914 C   0  0  0  0  0  0  0  0  0  0  0  0
  1  3  4  0
  1  7  4  0
  2 21  4  0
  2 27  4  0
  3  9  4  0
  3 10  4  0
  4  8  4  0
  4 18  4  0
  4 25  1  0
  5  9  4  0
  5 12  4  0
  6 13  1  0
  6 27  1  0
  7 28  4  0
  8 11  4  0
  9 29  4  0
 10 12  4  0
 11 24  1  0
 11 26  4  0
 12 25  1  0
 13 28  1  0
 14 20  4  0
 14 23  4  0
 15 17  4  0
 15 21  4  0
 16 19  4  0
 16 23  4  0
 17 22  4  0
 18 26  4  0
 19 24  4  0
 20 24  4  0
 22 27  4  0
 28 29  4  0
M  END
$$$$

 Created by Python create_sdf_string function

 29 41  0  0  0  0  0  0  0  0999 V2000
   10.4907   -3.4526   17.6283 C   0  0  0  0  0  0  0  0  0  0  0  0
   10.1404   -3.6972   24.8473 C   0  0  0  0  0  0  0  0  0  0  0  0
    6.6999   -8.0595   16.1485 C   0  0  0  0  0  0  0  0  0  0  0  0
    9.0055   -6.7865   17.6283 F   0  0  0  0  0  0  0  0  0  0  0  0
   10.8283   -4.3514   22.6007 C   0  0  0  0  0  0  0  0  0  0  0  0
   10.8689   -3.2626   19.0696 C   0  0  0  0  0  0  0  0  0  0  0  0
    5.4065   -7.6579   15.7838 O   0  0  0  0  0  0  0  0  0  0  0  0
    9.7452   -5.4020   18.3776 C   0  0  0  0  0  0  0  0  0  0  0  0
    9.3894   -4.9325   16.2857 N   0  0  0  0  0  0  0  0  0  0  0  0
    5.1359   -8.6895   16.8110 C   0  0  0  0  0  0  0  0  0  0  0  0
    8.7507   -6.2096   16.2141 C   0  0  0  0  0  0  0  0  0  0  0  0
   10.9445   -3.8846   21.3057 B   0  0  0  0  0  0  0  0  0  0  0  0
    1.4406   -8.5943   16.2305 C   0  0  0  0  0  0  0  0  0  0  0  0
    8.9924   -1.6054   25.7408 C   0  0  0  0  0  0  0  0  0  0  0  0
    1.7248  -10.2765   17.5736 N   0  0  0  0  0  0  0  0  0  0  0  0
    9.5105   -1.0013   24.1571 C   0  0  0  0  0  0  0  0  0  0  0  0
    7.1113   -8.8431   16.8961 F   0  0  0  0  0  0  0  0  0  0  0  0
    3.1230  -10.0382   17.4519 C   0  0  0  0  0  0  0  0  0  0  0  0
    2.8858   -8.2551   15.9500 C   0  0  0  0  0  0  0  0  0  0  0  0
    9.3192   -2.9394   25.7595 C   0  0  0  0  0  0  0  0  0  0  0  0
    9.9484   -1.8675   23.2344 C   0  0  0  0  0  0  0  0  0  0  0  0
    1.0921   -9.4875   17.2064 C   0  0  0  0  0  0  0  0  0  0  0  0
    3.5050   -8.8700   16.8657 C   0  0  0  0  0  0  0  0  0  0  0  0
    7.9167   -6.6789   15.4721 C   0  0  0  0  0  0  0  0  0  0  0  0
    6.1773   -9.3220   17.3513 N   0  0  0  0  0  0  0  0  0  0  0  0
   10.5202   -3.2317   23.5965 C   0  0  0  0  0  0  0  0  0  0  0  0
   10.9091   -4.3233   20.1916 C   0  0  0  0  0  0  0  0  0  0  0  0
   10.5582   -5.4545   19.4933 C   0  0  0  0  0  0  0  0  0  0  0  0
   10.0012   -4.5628   17.5603 He  0  0  0  0  0  0  0  0  0  0  0  0
  1  6  4  0
  2 20  4  0
  2 25  1  0
  2 26  4  0
  3  7  3  0
  3 17  4  0
  3 20  4  0
  3 24  1  0
  4 11  4  0
  5 12  1  0
  5 26  1  0
  6 27  4  0
  7 10  4  0
  7 17  3  0
  7 18  4  0
  8 19  3  0
  8 28  4  0
  9 11  4  0
 10 23  1  0
 10 25  4  0
 11 24  1  0
 12 27  1  0
 13 19  4  0
 13 22  4  0
 13 28  3  0
 14 16  4  0
 14 20  4  0
 14 24  2  0
 15 18  4  0
 15 19  2  0
 15 22  4  0
 15 26  4  0
 15 27  3  0
 17 25  4  0
 18 23  4  0
 19 23  4  0
 21 26  4  0
 22 23  2  0
 25 27  1  0
 25 28  3  0
 26 28  3  0
M  END
$$$$

 Created by Python create_sdf_string function

 29 33  0  0  0  0  0  0  0  0999 V2000
   10.5112   -3.4324   17.7540 C   0  0  0  0  0  0  0  0  0  0  0  0
   10.0829   -3.7383   24.8513 C   0  0  0  0  0  0  0  0  0  0  0  0
    9.9321   -4.6049   17.4191 C   0  0  0  0  0  0  0  0  0  0  0  0
    6.8654   -7.7840   16.0898 C   0  0  0  0  0  0  0  0  0  0  0  0
    9.1098   -6.6210   17.6886 C   0  0  0  0  0  0  0  0  0  0  0  0
   10.8260   -4.1865   22.5452 C   0  0  0  0  0  0  0  0  0  0  0  0
   10.9617   -3.2170   19.0453 C   0  0  0  0  0  0  0  0  0  0  0  0
    5.6041   -7.7794   15.9376 O   0  0  0  0  0  0  0  0  0  0  0  0
    9.8270   -5.6270   18.3228 C   0  0  0  0  0  0  0  0  0  0  0  0
    9.3238   -4.9656   16.2668 N   0  0  0  0  0  0  0  0  0  0  0  0
    5.0076   -8.7354   16.6848 C   0  0  0  0  0  0  0  0  0  0  0  0
    8.7425   -6.1590   16.4343 C   0  0  0  0  0  0  0  0  0  0  0  0
   11.0993   -3.8538   21.3200 O   0  0  0  0  0  0  0  0  0  0  0  0
    1.3989   -8.4962   16.2146 C   0  0  0  0  0  0  0  0  0  0  0  0
    9.1044   -1.6218   25.5059 C   0  0  0  0  0  0  0  0  0  0  0  0
    1.8502  -10.2679   17.6980 N   0  0  0  0  0  0  0  0  0  0  0  0
    9.4418   -1.0649   24.2531 C   0  0  0  0  0  0  0  0  0  0  0  0
    7.0736   -8.8285   16.9035 C   0  0  0  0  0  0  0  0  0  0  0  0
    3.1603  -10.0286   17.5915 C   0  0  0  0  0  0  0  0  0  0  0  0
    2.7370   -8.2205   16.0816 C   0  0  0  0  0  0  0  0  0  0  0  0
    9.4404   -2.9444   25.8002 C   0  0  0  0  0  0  0  0  0  0  0  0
   10.0637   -1.8851   23.2955 C   0  0  0  0  0  0  0  0  0  0  0  0
    0.9625   -9.5239   17.0066 C   0  0  0  0  0  0  0  0  0  0  0  0
    3.6417   -9.0133   16.7812 C   0  0  0  0  0  0  0  0  0  0  0  0
    7.8211   -6.8542   15.4799 C   0  0  0  0  0  0  0  0  0  0  0  0
    5.9782   -9.3474   17.3286 N   0  0  0  0  0  0  0  0  0  0  0  0
   10.3165   -3.2167   23.6102 C   0  0  0  0  0  0  0  0  0  0  0  0
   10.8016   -4.1919   20.0087 C   0  0  0  0  0  0  0  0  0  0  0  0
   10.3084   -5.4176   19.6313 C   0  0  0  0  0  0  0  0  0  0  0  0
  1  3  4  0
  1  7  4  0
  2 21  4  0
  2 27  4  0
  3  9  4  0
  3 10  4  0
  4  8  4  0
  4 18  4  0
  4 25  1  0
  5  9  4  0
  5 12  4  0
  6 13  1  0
  6 27  1  0
  7 28  4  0
  8 11  4  0
  9 29  4  0
 10 12  4  0
 11 24  1  0
 11 26  4  0
 12 25  1  0
 13 28  1  0
 14 20  4  0
 14 23  4  0
 15 17  4  0
 15 21  4  0
 16 19  4  0
 16 23  4  0
 17 22  4  0
 18 26  4  0
 19 24  4  0
 20 24  4  0
 22 27  4  0
 28 29  4  0
M  END
$$$$

 Created by Python create_sdf_string function

 29 33  0  0  0  0  0  0  0  0999 V2000
   10.3676   -3.5563   17.8397 C   0  0  0  0  0  0  0  0  0  0  0  0
   10.0787   -3.6951   24.5817 N   0  0  0  0  0  0  0  0  0  0  0  0
    9.8671   -4.5999   17.4689 C   0  0  0  0  0  0  0  0  0  0  0  0
    6.7856   -7.9111   16.1658 C   0  0  0  0  0  0  0  0  0  0  0  0
   10.8132   -4.0559   22.5161 C   0  0  0  0  0  0  0  0  0  0  0  0
   10.8296   -3.4237   19.0132 C   0  0  0  0  0  0  0  0  0  0  0  0
    5.6270   -7.7960   15.8240 O   0  0  0  0  0  0  0  0  0  0  0  0
    9.9203   -5.6200   18.2439 C   0  0  0  0  0  0  0  0  0  0  0  0
    5.1275   -8.6990   16.7623 C   0  0  0  0  0  0  0  0  0  0  0  0
    8.7664   -6.1111   16.5090 C   0  0  0  0  0  0  0  0  0  0  0  0
   11.2299   -3.8202   21.3561 O   0  0  0  0  0  0  0  0  0  0  0  0
    9.1189   -1.6634   25.4840 C   0  0  0  0  0  0  0  0  0  0  0  0
    1.8393  -10.4369   17.7019 N   0  0  0  0  0  0  0  0  0  0  0  0
    7.1381   -8.7970   16.8356 C   0  0  0  0  0  0  0  0  0  0  0  0
    3.2260  -10.0601   17.6076 C   0  0  0  0  0  0  0  0  0  0  0  0
    2.5918   -8.4641   16.0085 C   0  0  0  0  0  0  0  0  0  0  0  0
    9.3844   -3.0801   25.8404 C   0  0  0  0  0  0  0  0  0  0  0  0
    9.9951   -1.7515   23.2181 C   0  0  0  0  0  0  0  0  0  0  0  0
    0.9863   -9.3825   16.8131 C   0  0  0  0  0  0  0  0  0  0  0  0
    3.5210   -8.9556   16.8299 C   0  0  0  0  0  0  0  0  0  0  0  0
    7.9321   -6.9555   15.5010 C   0  0  0  0  0  0  0  0  0  0  0  0
    6.1025   -9.4192   17.3640 N   0  0  0  0  0  0  0  0  0  0  0  0
   10.2186   -3.2066   23.5920 C   0  0  0  0  0  0  0  0  0  0  0  0
   10.6428   -4.2354   20.1250 C   0  0  0  0  0  0  0  0  0  0  0  0
   10.3243   -5.3898   19.5666 C   0  0  0  0  0  0  0  0  0  0  0  0
    8.8883   -6.6407   17.6142 He  0  0  0  0  0  0  0  0  0  0  0  0
    9.5033   -5.0896   16.1801 He  0  0  0  0  0  0  0  0  0  0  0  0
    1.4262   -8.4127   16.2622 He  0  0  0  0  0  0  0  0  0  0  0  0
    9.4920   -0.9798   24.0523 He  0  0  0  0  0  0  0  0  0  0  0  0
  1  3  4  0
  1  6  4  0
  1 21  2  0
  2  7  4  0
  2 17  4  0
  2 23  4  0
  3  8  4  0
  4  7  4  0
  4 14  4  0
  4 21  1  0
  5 11  1  0
  5 19  1  0
  5 23  1  0
  6 22  1  0
  6 24  4  0
  7  9  4  0
  7 19  2  0
  8 25  4  0
  9 20  1  0
  9 22  4  0
 10 21  1  0
 11 13  4  0
 11 21  1  0
 11 24  1  0
 12 17  4  0
 13 14  3  0
 13 15  4  0
 13 16  2  0
 13 19  4  0
 14 22  4  0
 15 20  4  0
 16 20  4  0
 18 23  4  0
M  END
$$$$

 Created by Python create_sdf_string function

 29 33  0  0  0  0  0  0  0  0999 V2000
   10.5002   -3.4753   17.7572 C   0  0  0  0  0  0  0  0  0  0  0  0
   10.0433   -3.7462   24.7017 N   0  0  0  0  0  0  0  0  0  0  0  0
    9.9103   -4.6500   17.4099 C   0  0  0  0  0  0  0  0  0  0  0  0
    6.9203   -7.8289   16.1030 C   0  0  0  0  0  0  0  0  0  0  0  0
    9.0856   -6.6207   17.6961 N   0  0  0  0  0  0  0  0  0  0  0  0
   10.7749   -4.1532   22.4490 C   0  0  0  0  0  0  0  0  0  0  0  0
   10.8756   -3.2407   19.0843 C   0  0  0  0  0  0  0  0  0  0  0  0
    5.6291   -7.8161   15.9326 O   0  0  0  0  0  0  0  0  0  0  0  0
    9.7578   -5.6319   18.3405 C   0  0  0  0  0  0  0  0  0  0  0  0
    9.3448   -5.0439   16.2195 N   0  0  0  0  0  0  0  0  0  0  0  0
    5.0178   -8.7810   16.6726 C   0  0  0  0  0  0  0  0  0  0  0  0
    8.7613   -6.2169   16.4416 C   0  0  0  0  0  0  0  0  0  0  0  0
   11.1001   -3.8334   21.3111 O   0  0  0  0  0  0  0  0  0  0  0  0
    1.4308   -8.5309   16.1404 C   0  0  0  0  0  0  0  0  0  0  0  0
    9.1429   -1.6288   25.4334 C   0  0  0  0  0  0  0  0  0  0  0  0
    1.8542  -10.2845   17.6813 N   0  0  0  0  0  0  0  0  0  0  0  0
    9.4633   -1.0417   24.2006 C   0  0  0  0  0  0  0  0  0  0  0  0
    7.1052   -8.8756   16.9316 C   0  0  0  0  0  0  0  0  0  0  0  0
    3.1676  -10.0424   17.5903 C   0  0  0  0  0  0  0  0  0  0  0  0
    2.7498   -8.2475   16.0712 C   0  0  0  0  0  0  0  0  0  0  0  0
    9.4404   -2.9921   25.6801 C   0  0  0  0  0  0  0  0  0  0  0  0
   10.0567   -1.8498   23.2056 C   0  0  0  0  0  0  0  0  0  0  0  0
    0.9888   -9.5425   16.9652 C   0  0  0  0  0  0  0  0  0  0  0  0
    3.6507   -9.0302   16.7696 C   0  0  0  0  0  0  0  0  0  0  0  0
    7.8501   -6.9320   15.4852 C   0  0  0  0  0  0  0  0  0  0  0  0
    5.9755   -9.4054   17.3097 N   0  0  0  0  0  0  0  0  0  0  0  0
   10.2933   -3.1905   23.5102 C   0  0  0  0  0  0  0  0  0  0  0  0
   10.7542   -4.1970   20.0223 C   0  0  0  0  0  0  0  0  0  0  0  0
   10.2513   -5.4065   19.6644 C   0  0  0  0  0  0  0  0  0  0  0  0
  1  3  4  0
  1  7  4  0
  2 21  4  0
  2 27  4  0
  3  9  4  0
  3 10  4  0
  4  8  4  0
  4 18  4  0
  4 25  1  0
  5  9  4  0
  5 12  4  0
  6 13  1  0
  6 27  1  0
  7 28  4  0
  8 11  4  0
  9 29  4  0
 10 12  4  0
 11 24  1  0
 11 26  4  0
 12 25  1  0
 13 28  1  0
 14 20  4  0
 14 23  4  0
 15 17  4  0
 15 21  4  0
 16 19  4  0
 16 23  4  0
 17 22  4  0
 18 26  4  0
 19 24  4  0
 20 24  4  0
 22 27  4  0
 28 29  4  0
M  END
$$$$

 Created by Python create_sdf_string function

 29 40  0  0  0  0  0  0  0  0999 V2000
   10.3522   -3.4996   17.6701 C   0  0  0  0  0  0  0  0  0  0  0  0
   10.1064   -3.7516   24.7786 N   0  0  0  0  0  0  0  0  0  0  0  0
    9.8807   -4.6800   17.3232 C   0  0  0  0  0  0  0  0  0  0  0  0
    6.8973   -7.8632   16.1140 C   0  0  0  0  0  0  0  0  0  0  0  0
    8.9234   -6.4396   17.8501 N   0  0  0  0  0  0  0  0  0  0  0  0
   10.8083   -4.0563   22.5537 C   0  0  0  0  0  0  0  0  0  0  0  0
   10.8204   -3.1376   19.1160 C   0  0  0  0  0  0  0  0  0  0  0  0
    5.6595   -7.7924   15.8126 O   0  0  0  0  0  0  0  0  0  0  0  0
    9.6802   -5.7532   18.5573 C   0  0  0  0  0  0  0  0  0  0  0  0
    9.4727   -5.0811   16.1141 Br  0  0  0  0  0  0  0  0  0  0  0  0
    5.0154   -8.6493   16.5398 C   0  0  0  0  0  0  0  0  0  0  0  0
    8.7966   -6.1073   16.5373 C   0  0  0  0  0  0  0  0  0  0  0  0
   11.0743   -3.7243   21.1157 O   0  0  0  0  0  0  0  0  0  0  0  0
    1.3643   -8.4713   16.2104 C   0  0  0  0  0  0  0  0  0  0  0  0
    9.2125   -1.5199   25.5665 C   0  0  0  0  0  0  0  0  0  0  0  0
    1.8367  -10.3165   17.5846 N   0  0  0  0  0  0  0  0  0  0  0  0
    9.5115   -0.9497   24.1749 C   0  0  0  0  0  0  0  0  0  0  0  0
    7.1353   -8.8528   16.8820 C   0  0  0  0  0  0  0  0  0  0  0  0
    3.1648  -10.0156   17.5620 C   0  0  0  0  0  0  0  0  0  0  0  0
    2.8889   -8.0976   16.3121 C   0  0  0  0  0  0  0  0  0  0  0  0
    9.5971   -2.8584   25.7207 C   0  0  0  0  0  0  0  0  0  0  0  0
   10.1090   -1.7862   23.2051 C   0  0  0  0  0  0  0  0  0  0  0  0
    0.9919   -9.4249   16.9742 C   0  0  0  0  0  0  0  0  0  0  0  0
    3.5947   -9.1009   16.6820 C   0  0  0  0  0  0  0  0  0  0  0  0
    7.8152   -6.9238   15.4627 C   0  0  0  0  0  0  0  0  0  0  0  0
    5.8633   -9.4240   17.4319 N   0  0  0  0  0  0  0  0  0  0  0  0
   10.3919   -3.3015   23.6934 C   0  0  0  0  0  0  0  0  0  0  0  0
   10.8136   -4.2984   19.9887 C   0  0  0  0  0  0  0  0  0  0  0  0
   10.3893   -5.3852   19.5921 C   0  0  0  0  0  0  0  0  0  0  0  0
  1  3  4  0
  1  7  4  0
  2 21  4  0
  2 27  4  0
  3  7  1  0
  3  9  4  0
  3 10  4  0
  3 13  1  0
  3 17  4  0
  3 23  3  0
  4  8  4  0
  5  9  4  0
  5 12  4  0
  6 13  1  0
  6 27  1  0
  7 12  2  0
  8 11  4  0
  8 12  3  0
  9 29  4  0
 10 12  4  0
 11 13  1  0
 11 24  1  0
 12 22  4  0
 12 25  2  0
 13 24  1  0
 13 28  1  0
 14 20  4  0
 14 23  4  0
 15 17  4  0
 15 21  4  0
 16 19  4  0
 16 23  4  0
 16 26  2  0
 17 22  4  0
 18 21  2  0
 18 26  4  0
 19 24  4  0
 20 24  4  0
 22 27  4  0
 28 29  2  0
M  END
$$$$

 Created by Python create_sdf_string function

 29 33  0  0  0  0  0  0  0  0999 V2000
   10.4928   -3.4189   17.7264 C   0  0  0  0  0  0  0  0  0  0  0  0
   10.1245   -3.6777   24.7769 N   0  0  0  0  0  0  0  0  0  0  0  0
    9.9126   -4.6061   17.4153 C   0  0  0  0  0  0  0  0  0  0  0  0
    6.9193   -7.8366   16.1215 C   0  0  0  0  0  0  0  0  0  0  0  0
    8.9947   -6.5791   17.7967 N   0  0  0  0  0  0  0  0  0  0  0  0
   10.7735   -4.0654   22.4842 C   0  0  0  0  0  0  0  0  0  0  0  0
   10.8886   -3.1962   19.0136 C   0  0  0  0  0  0  0  0  0  0  0  0
    5.6470   -7.8328   15.8629 O   0  0  0  0  0  0  0  0  0  0  0  0
    9.7147   -5.5903   18.3545 C   0  0  0  0  0  0  0  0  0  0  0  0
    9.3767   -5.0332   16.1622 N   0  0  0  0  0  0  0  0  0  0  0  0
    5.0034   -8.7630   16.6434 C   0  0  0  0  0  0  0  0  0  0  0  0
    8.7268   -6.2190   16.4954 C   0  0  0  0  0  0  0  0  0  0  0  0
   11.0791   -3.7789   21.2629 O   0  0  0  0  0  0  0  0  0  0  0  0
    1.3933   -8.4188   16.2762 C   0  0  0  0  0  0  0  0  0  0  0  0
    9.2615   -1.5570   25.4891 C   0  0  0  0  0  0  0  0  0  0  0  0
    1.8349  -10.2874   17.6133 N   0  0  0  0  0  0  0  0  0  0  0  0
    9.5327   -0.9760   24.2180 C   0  0  0  0  0  0  0  0  0  0  0  0
    7.0864   -8.8700   16.9874 C   0  0  0  0  0  0  0  0  0  0  0  0
    3.1309  -10.0524   17.5159 C   0  0  0  0  0  0  0  0  0  0  0  0
    2.7447   -8.1784   16.1323 C   0  0  0  0  0  0  0  0  0  0  0  0
    9.5669   -2.8924   25.7465 C   0  0  0  0  0  0  0  0  0  0  0  0
   10.1080   -1.8271   23.2324 C   0  0  0  0  0  0  0  0  0  0  0  0
    0.9617   -9.4949   16.9892 C   0  0  0  0  0  0  0  0  0  0  0  0
    3.6221   -8.9930   16.7733 C   0  0  0  0  0  0  0  0  0  0  0  0
    7.8391   -6.9431   15.5288 C   0  0  0  0  0  0  0  0  0  0  0  0
    5.9425   -9.4090   17.2804 N   0  0  0  0  0  0  0  0  0  0  0  0
   10.3314   -3.1429   23.5508 C   0  0  0  0  0  0  0  0  0  0  0  0
   10.7425   -4.1311   19.9864 C   0  0  0  0  0  0  0  0  0  0  0  0
   10.2225   -5.3579   19.6409 C   0  0  0  0  0  0  0  0  0  0  0  0
  1  3  4  0
  1  7  4  0
  2 21  4  0
  2 27  4  0
  3  9  4  0
  3 10  4  0
  4  8  4  0
  4 18  4  0
  4 25  1  0
  5  9  4  0
  5 12  4  0
  6 13  1  0
  6 27  1  0
  7 28  4  0
  8 11  4  0
  9 29  4  0
 10 12  4  0
 11 24  1  0
 11 26  4  0
 12 25  1  0
 13 28  1  0
 14 20  4  0
 14 23  4  0
 15 17  4  0
 15 21  4  0
 16 19  4  0
 16 23  4  0
 17 22  4  0
 18 26  4  0
 19 24  4  0
 20 24  4  0
 22 27  4  0
 28 29  4  0
M  END
$$$$

 Created by Python create_sdf_string function

 29 39  0  0  0  0  0  0  0  0999 V2000
   10.5812   -3.4112   17.5873 C   0  0  0  0  0  0  0  0  0  0  0  0
   10.2239   -3.6765   24.7526 N   0  0  0  0  0  0  0  0  0  0  0  0
    9.8973   -4.6257   17.3691 C   0  0  0  0  0  0  0  0  0  0  0  0
    6.7371   -7.9079   16.1664 C   0  0  0  0  0  0  0  0  0  0  0  0
    8.9378   -6.4885   17.8156 N   0  0  0  0  0  0  0  0  0  0  0  0
   10.7378   -3.9036   22.4618 C   0  0  0  0  0  0  0  0  0  0  0  0
   10.9283   -3.1676   19.0816 C   0  0  0  0  0  0  0  0  0  0  0  0
    5.6515   -7.7841   15.7462 O   0  0  0  0  0  0  0  0  0  0  0  0
    9.5236   -5.6724   18.4182 C   0  0  0  0  0  0  0  0  0  0  0  0
    9.3591   -5.0118   16.3212 N   0  0  0  0  0  0  0  0  0  0  0  0
    4.9809   -8.7218   16.4534 C   0  0  0  0  0  0  0  0  0  0  0  0
    8.6732   -6.2964   16.5286 C   0  0  0  0  0  0  0  0  0  0  0  0
   11.0992   -3.6469   21.3621 O   0  0  0  0  0  0  0  0  0  0  0  0
    1.4389   -8.2899   16.1435 C   0  0  0  0  0  0  0  0  0  0  0  0
    9.3778   -1.4062   25.4329 C   0  0  0  0  0  0  0  0  0  0  0  0
    1.7630  -10.4471   17.6471 N   0  0  0  0  0  0  0  0  0  0  0  0
    9.5587   -1.0267   24.2623 C   0  0  0  0  0  0  0  0  0  0  0  0
    7.2524   -9.0187   17.1041 C   0  0  0  0  0  0  0  0  0  0  0  0
    2.8007   -8.2171   16.1717 C   0  0  0  0  0  0  0  0  0  0  0  0
    9.6281   -2.9228   25.5344 C   0  0  0  0  0  0  0  0  0  0  0  0
   10.1195   -1.7590   23.3330 C   0  0  0  0  0  0  0  0  0  0  0  0
    0.9723   -9.5018   17.0310 C   0  0  0  0  0  0  0  0  0  0  0  0
    3.6925   -8.8680   16.6777 C   0  0  0  0  0  0  0  0  0  0  0  0
    7.7185   -6.9709   15.5061 C   0  0  0  0  0  0  0  0  0  0  0  0
    6.0564   -9.2212   17.3186 N   0  0  0  0  0  0  0  0  0  0  0  0
   10.3345   -3.1103   23.5104 C   0  0  0  0  0  0  0  0  0  0  0  0
   10.7585   -3.9440   19.9289 C   0  0  0  0  0  0  0  0  0  0  0  0
   10.3232   -5.3028   19.5952 C   0  0  0  0  0  0  0  0  0  0  0  0
    3.0021  -10.0941   17.6107 He  0  0  0  0  0  0  0  0  0  0  0  0
  1  3  4  0
  1  7  4  0
  1 10  4  0
  1 24  2  0
  2 17  1  0
  2 20  4  0
  2 26  4  0
  3  9  4  0
  3 10  4  0
  4  8  4  0
  4 18  4  0
  4 21  4  0
  4 24  1  0
  5  9  4  0
  5 12  4  0
  5 21  1  0
  6 13  1  0
  6 16  3  0
  6 22  4  0
  6 26  1  0
  7 27  4  0
  8 11  4  0
  9 28  4  0
 10 12  4  0
 10 13  2  0
 11 23  1  0
 11 25  4  0
 12 13  4  0
 12 24  1  0
 13 27  1  0
 14 19  4  0
 14 22  4  0
 15 17  4  0
 15 20  4  0
 17 21  4  0
 18 25  4  0
 19 23  4  0
 21 26  4  0
 27 28  4  0
M  END
$$$$

 Created by Python create_sdf_string function

 29 33  0  0  0  0  0  0  0  0999 V2000
   10.5538   -3.4189   17.6669 C   0  0  0  0  0  0  0  0  0  0  0  0
   10.1537   -3.6389   24.7143 N   0  0  0  0  0  0  0  0  0  0  0  0
    9.8926   -4.5988   17.4051 C   0  0  0  0  0  0  0  0  0  0  0  0
    6.9315   -7.8517   16.1324 C   0  0  0  0  0  0  0  0  0  0  0  0
    8.9614   -6.5208   17.8315 N   0  0  0  0  0  0  0  0  0  0  0  0
   10.7402   -4.0179   22.4319 C   0  0  0  0  0  0  0  0  0  0  0  0
   10.9612   -3.1531   18.9460 C   0  0  0  0  0  0  0  0  0  0  0  0
    5.6490   -7.8472   15.8310 O   0  0  0  0  0  0  0  0  0  0  0  0
    9.6892   -5.5290   18.3877 C   0  0  0  0  0  0  0  0  0  0  0  0
    9.3148   -5.0439   16.2621 N   0  0  0  0  0  0  0  0  0  0  0  0
    5.0120   -8.7554   16.6290 C   0  0  0  0  0  0  0  0  0  0  0  0
    8.6975   -6.1926   16.5530 C   0  0  0  0  0  0  0  0  0  0  0  0
   11.0502   -3.6571   21.2403 O   0  0  0  0  0  0  0  0  0  0  0  0
    1.3968   -8.4066   16.2372 C   0  0  0  0  0  0  0  0  0  0  0  0
    9.3406   -1.5380   25.4717 C   0  0  0  0  0  0  0  0  0  0  0  0
    1.8288  -10.2807   17.6275 N   0  0  0  0  0  0  0  0  0  0  0  0
    9.5988   -0.9525   24.2344 C   0  0  0  0  0  0  0  0  0  0  0  0
    7.1096   -8.8744   17.0277 C   0  0  0  0  0  0  0  0  0  0  0  0
    3.1465  -10.0214   17.5076 C   0  0  0  0  0  0  0  0  0  0  0  0
    2.7411   -8.1705   16.0991 C   0  0  0  0  0  0  0  0  0  0  0  0
    9.6295   -2.8612   25.6986 C   0  0  0  0  0  0  0  0  0  0  0  0
   10.1166   -1.7610   23.2259 C   0  0  0  0  0  0  0  0  0  0  0  0
    0.9553   -9.4800   16.9808 C   0  0  0  0  0  0  0  0  0  0  0  0
    3.6381   -8.9915   16.7453 C   0  0  0  0  0  0  0  0  0  0  0  0
    7.8358   -6.9421   15.5715 C   0  0  0  0  0  0  0  0  0  0  0  0
    5.9376   -9.3928   17.3100 N   0  0  0  0  0  0  0  0  0  0  0  0
   10.3409   -3.0828   23.5018 C   0  0  0  0  0  0  0  0  0  0  0  0
   10.7409   -4.0451   19.9588 C   0  0  0  0  0  0  0  0  0  0  0  0
   10.1729   -5.2388   19.6700 C   0  0  0  0  0  0  0  0  0  0  0  0
  1  3  4  0
  1  7  4  0
  2 21  4  0
  2 27  4  0
  3  9  4  0
  3 10  4  0
  4  8  4  0
  4 18  4  0
  4 25  1  0
  5  9  4  0
  5 12  4  0
  6 13  1  0
  6 27  1  0
  7 28  4  0
  8 11  4  0
  9 29  4  0
 10 12  4  0
 11 24  1  0
 11 26  4  0
 12 25  1  0
 13 28  1  0
 14 20  4  0
 14 23  4  0
 15 17  4  0
 15 21  4  0
 16 19  4  0
 16 23  4  0
 17 22  4  0
 18 26  4  0
 19 24  4  0
 20 24  4  0
 22 27  4  0
 28 29  4  0
M  END
$$$$

 Created by Python create_sdf_string function

 29 46  0  0  0  0  0  0  0  0999 V2000
   10.6493   -3.5436   17.6855 C   0  0  0  0  0  0  0  0  0  0  0  0
   10.0865   -3.5933   24.7335 N   0  0  0  0  0  0  0  0  0  0  0  0
    9.9460   -4.5484   17.4275 C   0  0  0  0  0  0  0  0  0  0  0  0
    6.8593   -7.8690   16.2882 C   0  0  0  0  0  0  0  0  0  0  0  0
    8.9705   -6.5229   17.8756 N   0  0  0  0  0  0  0  0  0  0  0  0
   10.7826   -4.0546   22.3717 C   0  0  0  0  0  0  0  0  0  0  0  0
   10.8572   -3.2264   18.8729 C   0  0  0  0  0  0  0  0  0  0  0  0
    5.7091   -7.8254   15.8424 O   0  0  0  0  0  0  0  0  0  0  0  0
    9.7734   -5.5009   18.3882 C   0  0  0  0  0  0  0  0  0  0  0  0
    9.3724   -5.0863   16.3726 N   0  0  0  0  0  0  0  0  0  0  0  0
    4.9806   -8.7446   16.6798 C   0  0  0  0  0  0  0  0  0  0  0  0
    8.6824   -6.1120   16.5990 C   0  0  0  0  0  0  0  0  0  0  0  0
   11.0898   -3.7585   21.3224 O   0  0  0  0  0  0  0  0  0  0  0  0
    1.5163   -8.5033   16.2314 C   0  0  0  0  0  0  0  0  0  0  0  0
    9.2297   -1.5809   25.3518 C   0  0  0  0  0  0  0  0  0  0  0  0
    1.9904  -10.3249   17.7860 N   0  0  0  0  0  0  0  0  0  0  0  0
    9.6123   -0.9624   24.3590 C   0  0  0  0  0  0  0  0  0  0  0  0
    7.2381   -8.8915   17.0694 C   0  0  0  0  0  0  0  0  0  0  0  0
    3.1885  -10.0127   17.5688 C   0  0  0  0  0  0  0  0  0  0  0  0
    2.6240   -8.1432   16.1354 C   0  0  0  0  0  0  0  0  0  0  0  0
    9.5827   -2.8091   25.6139 C   0  0  0  0  0  0  0  0  0  0  0  0
   10.1305   -1.6453   23.2461 C   0  0  0  0  0  0  0  0  0  0  0  0
    0.9872   -9.4742   17.0396 C   0  0  0  0  0  0  0  0  0  0  0  0
    3.5968   -8.9956   16.6939 C   0  0  0  0  0  0  0  0  0  0  0  0
    7.9348   -6.9419   15.6305 C   0  0  0  0  0  0  0  0  0  0  0  0
    5.9270   -9.5723   17.2747 Br  0  0  0  0  0  0  0  0  0  0  0  0
   10.3732   -3.1116   23.5427 C   0  0  0  0  0  0  0  0  0  0  0  0
   10.8628   -3.9397   20.0174 C   0  0  0  0  0  0  0  0  0  0  0  0
   10.3216   -5.2543   19.7178 He  0  0  0  0  0  0  0  0  0  0  0  0
  1  3  4  0
  1  7  4  0
  1 22  4  0
  1 23  3  0
  2  3  2  0
  2  7  2  0
  2 21  4  0
  2 23  3  0
  2 27  4  0
  3  5  4  0
  3  9  4  0
  3 10  4  0
  3 28  3  0
  4  8  4  0
  4 11  3  0
  4 18  4  0
  4 25  1  0
  5  9  4  0
  5 10  3  0
  5 11  3  0
  5 12  4  0
  5 25  1  0
  6 27  1  0
  6 28  4  0
  7 28  4  0
  8 11  4  0
  8 16  4  0
 10 12  4  0
 11 24  1  0
 11 26  4  0
 12 15  4  0
 12 25  1  0
 12 26  3  0
 13 28  1  0
 14 20  4  0
 14 23  4  0
 15 17  4  0
 15 21  4  0
 16 19  4  0
 16 23  4  0
 17 22  4  0
 18 26  4  0
 19 24  4  0
 20 24  4  0
 21 23  3  0
 22 27  4  0
M  END
$$$$

 Created by Python create_sdf_string function

 29 33  0  0  0  0  0  0  0  0999 V2000
   10.6056   -3.4393   17.6608 C   0  0  0  0  0  0  0  0  0  0  0  0
   10.0945   -3.6256   24.7098 N   0  0  0  0  0  0  0  0  0  0  0  0
    9.9446   -4.6053   17.4323 C   0  0  0  0  0  0  0  0  0  0  0  0
    6.9583   -7.8477   16.2313 C   0  0  0  0  0  0  0  0  0  0  0  0
    9.0014   -6.5042   17.8940 N   0  0  0  0  0  0  0  0  0  0  0  0
   10.7537   -4.0298   22.4137 C   0  0  0  0  0  0  0  0  0  0  0  0
   11.0088   -3.1458   18.9241 C   0  0  0  0  0  0  0  0  0  0  0  0
    5.6767   -7.8221   15.9487 O   0  0  0  0  0  0  0  0  0  0  0  0
    9.7367   -5.5104   18.4231 C   0  0  0  0  0  0  0  0  0  0  0  0
    9.3604   -5.0393   16.3112 N   0  0  0  0  0  0  0  0  0  0  0  0
    5.0187   -8.7932   16.6523 C   0  0  0  0  0  0  0  0  0  0  0  0
    8.7463   -6.1721   16.6151 C   0  0  0  0  0  0  0  0  0  0  0  0
   11.0894   -3.6567   21.2391 O   0  0  0  0  0  0  0  0  0  0  0  0
    1.4150   -8.4806   16.2609 C   0  0  0  0  0  0  0  0  0  0  0  0
    9.2654   -1.5281   25.4498 C   0  0  0  0  0  0  0  0  0  0  0  0
    1.8862  -10.2691   17.7144 N   0  0  0  0  0  0  0  0  0  0  0  0
    9.5970   -0.9197   24.2374 C   0  0  0  0  0  0  0  0  0  0  0  0
    7.1656   -8.9010   17.0577 C   0  0  0  0  0  0  0  0  0  0  0  0
    3.1844  -10.0443   17.5866 C   0  0  0  0  0  0  0  0  0  0  0  0
    2.7337   -8.2190   16.1079 C   0  0  0  0  0  0  0  0  0  0  0  0
    9.5343   -2.8508   25.6673 C   0  0  0  0  0  0  0  0  0  0  0  0
   10.1674   -1.7208   23.2257 C   0  0  0  0  0  0  0  0  0  0  0  0
    0.9942   -9.5155   17.0578 C   0  0  0  0  0  0  0  0  0  0  0  0
    3.6533   -9.0168   16.7781 C   0  0  0  0  0  0  0  0  0  0  0  0
    7.8754   -6.9353   15.6670 C   0  0  0  0  0  0  0  0  0  0  0  0
    5.9940   -9.4929   17.2927 N   0  0  0  0  0  0  0  0  0  0  0  0
   10.3372   -3.0705   23.5006 C   0  0  0  0  0  0  0  0  0  0  0  0
   10.7943   -4.0267   19.9531 C   0  0  0  0  0  0  0  0  0  0  0  0
   10.2356   -5.2272   19.6945 C   0  0  0  0  0  0  0  0  0  0  0  0
  1  3  4  0
  1  7  4  0
  2 21  4  0
  2 27  4  0
  3  9  4  0
  3 10  4  0
  4  8  4  0
  4 18  4  0
  4 25  1  0
  5  9  4  0
  5 12  4  0
  6 13  1  0
  6 27  1  0
  7 28  4  0
  8 11  4  0
  9 29  4  0
 10 12  4  0
 11 24  1  0
 11 26  4  0
 12 25  1  0
 13 28  1  0
 14 20  4  0
 14 23  4  0
 15 17  4  0
 15 21  4  0
 16 19  4  0
 16 23  4  0
 17 22  4  0
 18 26  4  0
 19 24  4  0
 20 24  4  0
 22 27  4  0
 28 29  4  0
M  END
$$$$

 Created by Python create_sdf_string function

 29 40  0  0  0  0  0  0  0  0999 V2000
   10.6036   -3.4004   17.8147 C   0  0  0  0  0  0  0  0  0  0  0  0
   10.1060   -3.7028   24.7557 N   0  0  0  0  0  0  0  0  0  0  0  0
   10.0035   -4.6886   17.4609 C   0  0  0  0  0  0  0  0  0  0  0  0
    7.0276   -7.7667   16.1504 C   0  0  0  0  0  0  0  0  0  0  0  0
    9.0522   -6.5221   17.8619 N   0  0  0  0  0  0  0  0  0  0  0  0
   10.8308   -4.1954   22.5720 C   0  0  0  0  0  0  0  0  0  0  0  0
   11.0428   -3.1051   18.7784 C   0  0  0  0  0  0  0  0  0  0  0  0
    5.6484   -7.8555   15.9476 O   0  0  0  0  0  0  0  0  0  0  0  0
    9.7299   -5.4637   18.3524 C   0  0  0  0  0  0  0  0  0  0  0  0
    9.3419   -5.0153   16.2328 N   0  0  0  0  0  0  0  0  0  0  0  0
    4.9744   -8.8183   16.6631 C   0  0  0  0  0  0  0  0  0  0  0  0
    8.6775   -6.1591   16.5062 C   0  0  0  0  0  0  0  0  0  0  0  0
   11.1816   -3.5411   21.1996 O   0  0  0  0  0  0  0  0  0  0  0  0
    1.4203   -8.6063   16.2086 C   0  0  0  0  0  0  0  0  0  0  0  0
    9.2441   -1.4917   25.3188 C   0  0  0  0  0  0  0  0  0  0  0  0
    1.8461  -10.3323   17.8400 N   0  0  0  0  0  0  0  0  0  0  0  0
    9.5717   -0.9349   24.2568 C   0  0  0  0  0  0  0  0  0  0  0  0
    7.0260   -8.7872   17.1669 C   0  0  0  0  0  0  0  0  0  0  0  0
    3.1430  -10.0930   17.6421 C   0  0  0  0  0  0  0  0  0  0  0  0
    9.4755   -2.8296   25.5587 C   0  0  0  0  0  0  0  0  0  0  0  0
   10.1614   -1.7516   23.1757 C   0  0  0  0  0  0  0  0  0  0  0  0
    0.8836   -9.5366   17.0851 C   0  0  0  0  0  0  0  0  0  0  0  0
    3.5498   -8.9591   16.8089 C   0  0  0  0  0  0  0  0  0  0  0  0
    7.8773   -6.9236   15.7035 N   0  0  0  0  0  0  0  0  0  0  0  0
    6.0395   -9.4554   17.2330 N   0  0  0  0  0  0  0  0  0  0  0  0
   10.3951   -3.1428   23.5602 C   0  0  0  0  0  0  0  0  0  0  0  0
   10.8229   -4.0334   19.9875 C   0  0  0  0  0  0  0  0  0  0  0  0
   10.1697   -5.2871   19.7196 C   0  0  0  0  0  0  0  0  0  0  0  0
    2.5222   -8.1652   16.0777 He  0  0  0  0  0  0  0  0  0  0  0  0
  1  3  4  0
  1  7  4  0
  1 13  4  0
  2 20  4  0
  2 26  4  0
  3  9  4  0
  3 10  4  0
  4  8  4  0
  4 18  4  0
  4 24  1  0
  5  9  4  0
  5 12  4  0
  6 13  1  0
  6 26  1  0
  7 11  1  0
  7 12  4  0
  7 27  4  0
  8 11  4  0
  9 10  1  0
  9 28  4  0
 10 11  3  0
 10 12  4  0
 10 15  1  0
 10 26  1  0
 11 16  4  0
 11 25  4  0
 11 27  1  0
 12 24  1  0
 13 27  1  0
 14 22  4  0
 15 17  4  0
 15 20  4  0
 16 19  4  0
 16 22  4  0
 17 21  4  0
 17 25  1  0
 18 19  1  0
 18 25  4  0
 19 23  4  0
 21 26  4  0
M  END
$$$$

 Created by Python create_sdf_string function

 29 33  0  0  0  0  0  0  0  0999 V2000
   10.6339   -3.4133   17.6620 C   0  0  0  0  0  0  0  0  0  0  0  0
   10.0755   -3.6544   24.7057 N   0  0  0  0  0  0  0  0  0  0  0  0
    9.9476   -4.5735   17.4256 C   0  0  0  0  0  0  0  0  0  0  0  0
    6.9215   -7.8063   16.2387 C   0  0  0  0  0  0  0  0  0  0  0  0
    9.0025   -6.5204   17.8402 N   0  0  0  0  0  0  0  0  0  0  0  0
   10.7946   -4.0925   22.4427 C   0  0  0  0  0  0  0  0  0  0  0  0
   11.0395   -3.1327   18.9339 C   0  0  0  0  0  0  0  0  0  0  0  0
    5.6512   -7.8429   15.9571 O   0  0  0  0  0  0  0  0  0  0  0  0
    9.7237   -5.4925   18.3974 C   0  0  0  0  0  0  0  0  0  0  0  0
    9.3543   -5.0425   16.2693 N   0  0  0  0  0  0  0  0  0  0  0  0
    4.9978   -8.7806   16.6696 C   0  0  0  0  0  0  0  0  0  0  0  0
    8.7180   -6.1966   16.5830 C   0  0  0  0  0  0  0  0  0  0  0  0
   11.1495   -3.6311   21.2304 O   0  0  0  0  0  0  0  0  0  0  0  0
    1.3338   -8.5543   16.2514 C   0  0  0  0  0  0  0  0  0  0  0  0
    9.2374   -1.5170   25.3801 C   0  0  0  0  0  0  0  0  0  0  0  0
    1.8250  -10.2824   17.7706 N   0  0  0  0  0  0  0  0  0  0  0  0
    9.6000   -0.9329   24.1546 C   0  0  0  0  0  0  0  0  0  0  0  0
    7.0735   -8.8397   17.0993 C   0  0  0  0  0  0  0  0  0  0  0  0
    3.1425  -10.0243   17.6216 C   0  0  0  0  0  0  0  0  0  0  0  0
    2.6827   -8.2801   16.1127 C   0  0  0  0  0  0  0  0  0  0  0  0
    9.4779   -2.8472   25.6370 C   0  0  0  0  0  0  0  0  0  0  0  0
   10.1889   -1.7846   23.1782 C   0  0  0  0  0  0  0  0  0  0  0  0
    0.9134   -9.5655   17.0779 C   0  0  0  0  0  0  0  0  0  0  0  0
    3.5938   -9.0253   16.7896 C   0  0  0  0  0  0  0  0  0  0  0  0
    7.8409   -6.9043   15.7205 C   0  0  0  0  0  0  0  0  0  0  0  0
    5.9498   -9.4408   17.3206 N   0  0  0  0  0  0  0  0  0  0  0  0
   10.3607   -3.1201   23.4979 C   0  0  0  0  0  0  0  0  0  0  0  0
   10.8055   -4.0089   19.9646 C   0  0  0  0  0  0  0  0  0  0  0  0
   10.1957   -5.2071   19.6832 C   0  0  0  0  0  0  0  0  0  0  0  0
  1  3  4  0
  1  7  4  0
  2 21  4  0
  2 27  4  0
  3  9  4  0
  3 10  4  0
  4  8  4  0
  4 18  4  0
  4 25  1  0
  5  9  4  0
  5 12  4  0
  6 13  1  0
  6 27  1  0
  7 28  4  0
  8 11  4  0
  9 29  4  0
 10 12  4  0
 11 24  1  0
 11 26  4  0
 12 25  1  0
 13 28  1  0
 14 20  4  0
 14 23  4  0
 15 17  4  0
 15 21  4  0
 16 19  4  0
 16 23  4  0
 17 22  4  0
 18 26  4  0
 19 24  4  0
 20 24  4  0
 22 27  4  0
 28 29  4  0
M  END
$$$$

 Created by Python create_sdf_string function

 29 35  0  0  0  0  0  0  0  0999 V2000
   10.6288   -3.3063   17.5854 C   0  0  0  0  0  0  0  0  0  0  0  0
   10.1425   -3.6954   24.7245 N   0  0  0  0  0  0  0  0  0  0  0  0
    9.9941   -4.6163   17.5297 C   0  0  0  0  0  0  0  0  0  0  0  0
    6.8299   -7.8205   16.3406 C   0  0  0  0  0  0  0  0  0  0  0  0
    9.0594   -6.5591   17.8727 N   0  0  0  0  0  0  0  0  0  0  0  0
   10.7764   -4.0870   22.4887 C   0  0  0  0  0  0  0  0  0  0  0  0
   11.0673   -3.1666   18.9084 C   0  0  0  0  0  0  0  0  0  0  0  0
    5.7147   -7.8079   15.9919 O   0  0  0  0  0  0  0  0  0  0  0  0
    9.6495   -5.4605   18.4212 C   0  0  0  0  0  0  0  0  0  0  0  0
    9.2689   -5.1502   16.2566 N   0  0  0  0  0  0  0  0  0  0  0  0
    4.8208   -8.7663   16.6007 C   0  0  0  0  0  0  0  0  0  0  0  0
    8.7007   -6.2476   16.5668 C   0  0  0  0  0  0  0  0  0  0  0  0
   11.1004   -3.6370   21.4030 O   0  0  0  0  0  0  0  0  0  0  0  0
    1.2909   -8.4715   16.2562 C   0  0  0  0  0  0  0  0  0  0  0  0
    9.2018   -1.4607   25.3373 C   0  0  0  0  0  0  0  0  0  0  0  0
    1.8508  -10.2689   17.8153 N   0  0  0  0  0  0  0  0  0  0  0  0
    7.0287   -8.7416   17.0281 C   0  0  0  0  0  0  0  0  0  0  0  0
    3.1493  -10.1359   17.5943 C   0  0  0  0  0  0  0  0  0  0  0  0
    2.6417   -8.2428   16.1802 C   0  0  0  0  0  0  0  0  0  0  0  0
    9.4240   -2.8458   25.5250 C   0  0  0  0  0  0  0  0  0  0  0  0
   10.2994   -1.8424   23.3104 C   0  0  0  0  0  0  0  0  0  0  0  0
    0.7806   -9.4266   17.0566 C   0  0  0  0  0  0  0  0  0  0  0  0
    3.6578   -9.0569   16.8395 C   0  0  0  0  0  0  0  0  0  0  0  0
    7.8774   -6.8412   15.7444 C   0  0  0  0  0  0  0  0  0  0  0  0
    5.9269   -9.5208   17.4188 N   0  0  0  0  0  0  0  0  0  0  0  0
   10.3847   -3.0738   23.3847 C   0  0  0  0  0  0  0  0  0  0  0  0
   10.6397   -3.9557   19.9913 C   0  0  0  0  0  0  0  0  0  0  0  0
   10.2194   -5.1199   19.7507 C   0  0  0  0  0  0  0  0  0  0  0  0
    9.6125   -0.9621   24.2185 He  0  0  0  0  0  0  0  0  0  0  0  0
  1  3  4  0
  1  7  4  0
  2 18  1  0
  2 20  4  0
  2 26  4  0
  3  9  4  0
  3 10  4  0
  4  8  4  0
  4 17  4  0
  4 24  1  0
  5  9  4  0
  5 12  4  0
  6 13  1  0
  6 20  2  0
  6 26  1  0
  7 27  4  0
  8 11  4  0
  9 28  4  0
 10 12  4  0
 11 23  1  0
 11 25  4  0
 12 24  1  0
 13 27  1  0
 13 28  3  0
 14 19  4  0
 14 22  4  0
 14 23  4  0
 15 20  4  0
 16 18  4  0
 16 22  4  0
 17 25  4  0
 18 23  4  0
 19 23  4  0
 21 26  4  0
 27 28  4  0
M  END
$$$$

 Created by Python create_sdf_string function

 29 33  0  0  0  0  0  0  0  0999 V2000
   10.6267   -3.4087   17.6530 C   0  0  0  0  0  0  0  0  0  0  0  0
   10.0477   -3.6412   24.6861 N   0  0  0  0  0  0  0  0  0  0  0  0
    9.9362   -4.5772   17.4294 C   0  0  0  0  0  0  0  0  0  0  0  0
    6.8963   -7.8129   16.2919 C   0  0  0  0  0  0  0  0  0  0  0  0
    9.0176   -6.4931   17.9081 N   0  0  0  0  0  0  0  0  0  0  0  0
   10.7755   -4.0616   22.4527 C   0  0  0  0  0  0  0  0  0  0  0  0
   11.0114   -3.1126   18.9270 C   0  0  0  0  0  0  0  0  0  0  0  0
    5.6125   -7.8251   16.0060 O   0  0  0  0  0  0  0  0  0  0  0  0
    9.7134   -5.4556   18.4301 C   0  0  0  0  0  0  0  0  0  0  0  0
    9.3631   -5.0594   16.2929 N   0  0  0  0  0  0  0  0  0  0  0  0
    4.9530   -8.7955   16.7156 C   0  0  0  0  0  0  0  0  0  0  0  0
    8.7325   -6.1939   16.6316 C   0  0  0  0  0  0  0  0  0  0  0  0
   11.0670   -3.5961   21.2413 O   0  0  0  0  0  0  0  0  0  0  0  0
    1.3309   -8.4703   16.2864 C   0  0  0  0  0  0  0  0  0  0  0  0
    9.2116   -1.5082   25.3616 C   0  0  0  0  0  0  0  0  0  0  0  0
    1.7743  -10.2764   17.7544 N   0  0  0  0  0  0  0  0  0  0  0  0
    9.6544   -0.9274   24.1800 C   0  0  0  0  0  0  0  0  0  0  0  0
    7.0360   -8.8470   17.1271 C   0  0  0  0  0  0  0  0  0  0  0  0
    3.0883  -10.0705   17.6103 C   0  0  0  0  0  0  0  0  0  0  0  0
    2.6734   -8.2662   16.1596 C   0  0  0  0  0  0  0  0  0  0  0  0
    9.4369   -2.8439   25.5981 C   0  0  0  0  0  0  0  0  0  0  0  0
   10.2560   -1.7352   23.2237 C   0  0  0  0  0  0  0  0  0  0  0  0
    0.8824   -9.4978   17.1072 C   0  0  0  0  0  0  0  0  0  0  0  0
    3.5732   -9.0478   16.8180 C   0  0  0  0  0  0  0  0  0  0  0  0
    7.8394   -6.9148   15.7411 C   0  0  0  0  0  0  0  0  0  0  0  0
    5.9032   -9.4565   17.3456 N   0  0  0  0  0  0  0  0  0  0  0  0
   10.3651   -3.1010   23.4897 C   0  0  0  0  0  0  0  0  0  0  0  0
   10.7432   -3.9685   19.9712 C   0  0  0  0  0  0  0  0  0  0  0  0
   10.1375   -5.1407   19.7112 C   0  0  0  0  0  0  0  0  0  0  0  0
  1  3  4  0
  1  7  4  0
  2 21  4  0
  2 27  4  0
  3  9  4  0
  3 10  4  0
  4  8  4  0
  4 18  4  0
  4 25  1  0
  5  9  4  0
  5 12  4  0
  6 13  1  0
  6 27  1  0
  7 28  4  0
  8 11  4  0
  9 29  4  0
 10 12  4  0
 11 24  1  0
 11 26  4  0
 12 25  1  0
 13 28  1  0
 14 20  4  0
 14 23  4  0
 15 17  4  0
 15 21  4  0
 16 19  4  0
 16 23  4  0
 17 22  4  0
 18 26  4  0
 19 24  4  0
 20 24  4  0
 22 27  4  0
 28 29  4  0
M  END
$$$$

 Created by Python create_sdf_string function

 29 38  0  0  0  0  0  0  0  0999 V2000
   10.6541   -3.3886   17.6835 C   0  0  0  0  0  0  0  0  0  0  0  0
   10.0896   -3.5601   24.6624 N   0  0  0  0  0  0  0  0  0  0  0  0
    9.9672   -4.5985   17.4946 C   0  0  0  0  0  0  0  0  0  0  0  0
    6.8636   -7.7908   16.3534 C   0  0  0  0  0  0  0  0  0  0  0  0
    8.9738   -6.4781   17.9179 N   0  0  0  0  0  0  0  0  0  0  0  0
   10.8053   -4.0497   22.3715 C   0  0  0  0  0  0  0  0  0  0  0  0
   11.1385   -3.0996   18.9200 C   0  0  0  0  0  0  0  0  0  0  0  0
    5.5968   -7.8408   15.9915 O   0  0  0  0  0  0  0  0  0  0  0  0
    9.6741   -5.4855   18.3670 C   0  0  0  0  0  0  0  0  0  0  0  0
    9.4432   -5.1019   16.3690 N   0  0  0  0  0  0  0  0  0  0  0  0
    4.8256   -8.8084   16.7171 C   0  0  0  0  0  0  0  0  0  0  0  0
    8.8163   -6.2311   16.6859 C   0  0  0  0  0  0  0  0  0  0  0  0
   11.1964   -3.5807   21.0848 O   0  0  0  0  0  0  0  0  0  0  0  0
    1.3527   -8.5640   16.3473 C   0  0  0  0  0  0  0  0  0  0  0  0
    9.2051   -1.5332   25.3830 C   0  0  0  0  0  0  0  0  0  0  0  0
    1.7739  -10.2260   17.7285 N   0  0  0  0  0  0  0  0  0  0  0  0
    9.5883   -0.8759   24.1201 C   0  0  0  0  0  0  0  0  0  0  0  0
    7.0988   -8.8388   17.0601 C   0  0  0  0  0  0  0  0  0  0  0  0
    3.1569  -10.1931   17.4745 C   0  0  0  0  0  0  0  0  0  0  0  0
    2.6801   -8.3009   16.1167 C   0  0  0  0  0  0  0  0  0  0  0  0
    9.5256   -2.8921   25.6814 C   0  0  0  0  0  0  0  0  0  0  0  0
   10.2621   -1.7104   23.1470 C   0  0  0  0  0  0  0  0  0  0  0  0
    0.7428   -9.4667   17.0748 C   0  0  0  0  0  0  0  0  0  0  0  0
    3.5440   -9.1363   16.9341 C   0  0  0  0  0  0  0  0  0  0  0  0
    7.8583   -6.8686   15.7696 C   0  0  0  0  0  0  0  0  0  0  0  0
    6.0074   -9.5278   17.3676 N   0  0  0  0  0  0  0  0  0  0  0  0
   10.3525   -3.1349   23.5592 C   0  0  0  0  0  0  0  0  0  0  0  0
   10.2493   -5.1661   19.7365 C   0  0  0  0  0  0  0  0  0  0  0  0
   10.6683   -3.8220   20.0427 He  0  0  0  0  0  0  0  0  0  0  0  0
  1  3  4  0
  1  7  4  0
  2 21  4  0
  2 27  4  0
  3  9  4  0
  3 10  4  0
  4  8  4  0
  4 18  4  0
  4 21  4  0
  4 23  3  0
  4 25  1  0
  5  9  4  0
  5 12  4  0
  5 17  1  0
  6 13  1  0
  6 27  1  0
  8 11  4  0
  9 25  4  0
  9 28  4  0
 10 12  4  0
 10 18  3  0
 11 24  1  0
 11 26  4  0
 12 25  1  0
 14 20  4  0
 14 23  4  0
 15 17  4  0
 15 21  4  0
 16 19  4  0
 16 23  4  0
 17 22  4  0
 17 26  2  0
 18 26  4  0
 19 24  4  0
 20 24  4  0
 20 27  4  0
 22 23  1  0
 22 27  4  0
M  END
$$$$

 Created by Python create_sdf_string function

 29 33  0  0  0  0  0  0  0  0999 V2000
   10.6791   -3.3966   17.6710 C   0  0  0  0  0  0  0  0  0  0  0  0
   10.0865   -3.6186   24.6764 N   0  0  0  0  0  0  0  0  0  0  0  0
    9.9883   -4.5641   17.4457 C   0  0  0  0  0  0  0  0  0  0  0  0
    6.8934   -7.8181   16.3150 C   0  0  0  0  0  0  0  0  0  0  0  0
    9.0061   -6.4633   17.9454 N   0  0  0  0  0  0  0  0  0  0  0  0
   10.7885   -3.9955   22.3822 C   0  0  0  0  0  0  0  0  0  0  0  0
   11.0617   -3.0740   18.9150 C   0  0  0  0  0  0  0  0  0  0  0  0
    5.6041   -7.8359   16.0448 O   0  0  0  0  0  0  0  0  0  0  0  0
    9.7316   -5.4278   18.4609 C   0  0  0  0  0  0  0  0  0  0  0  0
    9.4401   -5.0637   16.3257 N   0  0  0  0  0  0  0  0  0  0  0  0
    4.9702   -8.8383   16.7314 C   0  0  0  0  0  0  0  0  0  0  0  0
    8.7727   -6.1790   16.6711 C   0  0  0  0  0  0  0  0  0  0  0  0
   11.1565   -3.5325   21.2032 O   0  0  0  0  0  0  0  0  0  0  0  0
    1.3366   -8.5088   16.3067 C   0  0  0  0  0  0  0  0  0  0  0  0
    9.2260   -1.4990   25.3878 C   0  0  0  0  0  0  0  0  0  0  0  0
    1.7587  -10.3106   17.7124 N   0  0  0  0  0  0  0  0  0  0  0  0
    9.5956   -0.8790   24.1465 C   0  0  0  0  0  0  0  0  0  0  0  0
    7.0653   -8.8661   17.1031 C   0  0  0  0  0  0  0  0  0  0  0  0
    3.0787  -10.1336   17.5749 C   0  0  0  0  0  0  0  0  0  0  0  0
    2.6765   -8.3005   16.1708 C   0  0  0  0  0  0  0  0  0  0  0  0
    9.5033   -2.8474   25.6561 C   0  0  0  0  0  0  0  0  0  0  0  0
   10.2184   -1.7121   23.1598 C   0  0  0  0  0  0  0  0  0  0  0  0
    0.8618   -9.5212   17.1041 C   0  0  0  0  0  0  0  0  0  0  0  0
    3.5756   -9.1003   16.8124 C   0  0  0  0  0  0  0  0  0  0  0  0
    7.8451   -6.8976   15.8025 C   0  0  0  0  0  0  0  0  0  0  0  0
    5.9333   -9.4926   17.3414 N   0  0  0  0  0  0  0  0  0  0  0  0
   10.3617   -3.0699   23.4654 C   0  0  0  0  0  0  0  0  0  0  0  0
   10.7894   -3.9211   19.9602 C   0  0  0  0  0  0  0  0  0  0  0  0
   10.1762   -5.1151   19.7323 C   0  0  0  0  0  0  0  0  0  0  0  0
  1  3  4  0
  1  7  4  0
  2 21  4  0
  2 27  4  0
  3  9  4  0
  3 10  4  0
  4  8  4  0
  4 18  4  0
  4 25  1  0
  5  9  4  0
  5 12  4  0
  6 13  1  0
  6 27  1  0
  7 28  4  0
  8 11  4  0
  9 29  4  0
 10 12  4  0
 11 24  1  0
 11 26  4  0
 12 25  1  0
 13 28  1  0
 14 20  4  0
 14 23  4  0
 15 17  4  0
 15 21  4  0
 16 19  4  0
 16 23  4  0
 17 22  4  0
 18 26  4  0
 19 24  4  0
 20 24  4  0
 22 27  4  0
 28 29  4  0
M  END
$$$$

 Created by Python create_sdf_string function

 29 43  0  0  0  0  0  0  0  0999 V2000
   10.6240   -3.3848   17.7830 C   0  0  0  0  0  0  0  0  0  0  0  0
   10.0660   -3.5838   24.6767 N   0  0  0  0  0  0  0  0  0  0  0  0
   10.0170   -4.6338   17.5386 C   0  0  0  0  0  0  0  0  0  0  0  0
    6.9879   -7.8365   16.2552 F   0  0  0  0  0  0  0  0  0  0  0  0
    9.0765   -6.4098   17.8113 N   0  0  0  0  0  0  0  0  0  0  0  0
   10.8050   -4.0748   22.4594 C   0  0  0  0  0  0  0  0  0  0  0  0
   11.1220   -3.0537   18.9159 C   0  0  0  0  0  0  0  0  0  0  0  0
    5.6354   -7.8162   16.0419 O   0  0  0  0  0  0  0  0  0  0  0  0
    9.7120   -5.3047   18.5109 F   0  0  0  0  0  0  0  0  0  0  0  0
    9.5266   -5.0393   16.3329 N   0  0  0  0  0  0  0  0  0  0  0  0
    5.0098   -8.7826   16.6965 C   0  0  0  0  0  0  0  0  0  0  0  0
    8.7848   -6.1295   16.6273 C   0  0  0  0  0  0  0  0  0  0  0  0
   11.0593   -3.5101   21.1442 O   0  0  0  0  0  0  0  0  0  0  0  0
    1.4742   -8.4371   16.1970 C   0  0  0  0  0  0  0  0  0  0  0  0
    9.3046   -1.4424   25.4067 C   0  0  0  0  0  0  0  0  0  0  0  0
    1.8125  -10.3146   17.6866 N   0  0  0  0  0  0  0  0  0  0  0  0
    9.5793   -0.8457   24.1219 C   0  0  0  0  0  0  0  0  0  0  0  0
    7.0602   -8.8854   17.0531 C   0  0  0  0  0  0  0  0  0  0  0  0
    3.1078  -10.0973   17.6327 C   0  0  0  0  0  0  0  0  0  0  0  0
    2.7190   -8.3190   16.1855 C   0  0  0  0  0  0  0  0  0  0  0  0
    9.4314   -2.7925   25.5747 C   0  0  0  0  0  0  0  0  0  0  0  0
   10.2323   -1.7505   23.0734 C   0  0  0  0  0  0  0  0  0  0  0  0
    0.9042   -9.5720   17.0921 C   0  0  0  0  0  0  0  0  0  0  0  0
    3.6191   -9.0441   16.7131 C   0  0  0  0  0  0  0  0  0  0  0  0
    7.8162   -6.8863   15.8581 C   0  0  0  0  0  0  0  0  0  0  0  0
    5.9811   -9.5785   17.3409 N   0  0  0  0  0  0  0  0  0  0  0  0
   10.2024   -2.9799   23.4564 C   0  0  0  0  0  0  0  0  0  0  0  0
   10.7438   -3.9882   19.9307 C   0  0  0  0  0  0  0  0  0  0  0  0
   10.1957   -5.1225   19.6862 C   0  0  0  0  0  0  0  0  0  0  0  0
  1  3  4  0
  1  7  4  0
  2 16  4  0
  2 21  4  0
  2 27  4  0
  3  9  4  0
  3 10  4  0
  3 12  3  0
  4  8  4  0
  4 18  4  0
  4 25  1  0
  5  9  4  0
  5 12  4  0
  5 28  2  0
  6 13  1  0
  6 27  1  0
  7 12  2  0
  7 16  3  0
  7 28  4  0
  8 11  4  0
  9 29  4  0
 10 11  3  0
 10 12  4  0
 10 20  1  0
 11 24  1  0
 11 26  4  0
 12 17  3  0
 12 25  1  0
 13 21  2  0
 13 28  1  0
 14 20  4  0
 14 23  4  0
 15 17  4  0
 15 21  4  0
 16 19  4  0
 16 23  4  0
 17 22  4  0
 18 26  4  0
 19 24  4  0
 20 24  4  0
 22 27  4  0
 26 29  4  0
 28 29  4  0
M  END
$$$$

 Created by Python create_sdf_string function

 29 33  0  0  0  0  0  0  0  0999 V2000
   10.6883   -3.3737   17.6814 C   0  0  0  0  0  0  0  0  0  0  0  0
   10.0069   -3.5882   24.6550 N   0  0  0  0  0  0  0  0  0  0  0  0
   10.0091   -4.5304   17.4539 C   0  0  0  0  0  0  0  0  0  0  0  0
    6.9339   -7.8444   16.3003 C   0  0  0  0  0  0  0  0  0  0  0  0
    9.0149   -6.4114   17.9011 N   0  0  0  0  0  0  0  0  0  0  0  0
   10.7696   -3.9965   22.4089 C   0  0  0  0  0  0  0  0  0  0  0  0
   11.0651   -3.0689   18.9340 C   0  0  0  0  0  0  0  0  0  0  0  0
    5.6634   -7.8296   16.0464 O   0  0  0  0  0  0  0  0  0  0  0  0
    9.7408   -5.3991   18.4385 C   0  0  0  0  0  0  0  0  0  0  0  0
    9.4798   -5.0083   16.3111 N   0  0  0  0  0  0  0  0  0  0  0  0
    5.0212   -8.8378   16.7271 C   0  0  0  0  0  0  0  0  0  0  0  0
    8.8007   -6.1218   16.6504 C   0  0  0  0  0  0  0  0  0  0  0  0
   11.0537   -3.5146   21.2054 O   0  0  0  0  0  0  0  0  0  0  0  0
    1.4049   -8.5138   16.2567 C   0  0  0  0  0  0  0  0  0  0  0  0
    9.2738   -1.4180   25.3706 C   0  0  0  0  0  0  0  0  0  0  0  0
    1.8207  -10.3145   17.7113 N   0  0  0  0  0  0  0  0  0  0  0  0
    9.6082   -0.8230   24.1197 C   0  0  0  0  0  0  0  0  0  0  0  0
    7.0835   -8.9266   17.0724 C   0  0  0  0  0  0  0  0  0  0  0  0
    3.1220  -10.0911   17.5961 C   0  0  0  0  0  0  0  0  0  0  0  0
    2.7392   -8.2951   16.1452 C   0  0  0  0  0  0  0  0  0  0  0  0
    9.4574   -2.7723   25.6147 C   0  0  0  0  0  0  0  0  0  0  0  0
   10.1612   -1.6902   23.1245 C   0  0  0  0  0  0  0  0  0  0  0  0
    0.9441   -9.5370   17.0462 C   0  0  0  0  0  0  0  0  0  0  0  0
    3.6387   -9.0728   16.8253 C   0  0  0  0  0  0  0  0  0  0  0  0
    7.8578   -6.9023   15.7940 C   0  0  0  0  0  0  0  0  0  0  0  0
    5.9653   -9.5270   17.3115 N   0  0  0  0  0  0  0  0  0  0  0  0
   10.2960   -3.0422   23.4540 C   0  0  0  0  0  0  0  0  0  0  0  0
   10.7729   -3.9208   19.9538 C   0  0  0  0  0  0  0  0  0  0  0  0
   10.1633   -5.1008   19.7104 C   0  0  0  0  0  0  0  0  0  0  0  0
  1  3  4  0
  1  7  4  0
  2 21  4  0
  2 27  4  0
  3  9  4  0
  3 10  4  0
  4  8  4  0
  4 18  4  0
  4 25  1  0
  5  9  4  0
  5 12  4  0
  6 13  1  0
  6 27  1  0
  7 28  4  0
  8 11  4  0
  9 29  4  0
 10 12  4  0
 11 24  1  0
 11 26  4  0
 12 25  1  0
 13 28  1  0
 14 20  4  0
 14 23  4  0
 15 17  4  0
 15 21  4  0
 16 19  4  0
 16 23  4  0
 17 22  4  0
 18 26  4  0
 19 24  4  0
 20 24  4  0
 22 27  4  0
 28 29  4  0
M  END
$$$$

 Created by Python create_sdf_string function

 29 37  0  0  0  0  0  0  0  0999 V2000
   10.7474   -3.3710   17.6899 C   0  0  0  0  0  0  0  0  0  0  0  0
   10.1525   -3.6386   24.7710 N   0  0  0  0  0  0  0  0  0  0  0  0
   10.0855   -4.5480   17.3916 C   0  0  0  0  0  0  0  0  0  0  0  0
    6.8860   -7.9339   16.3570 C   0  0  0  0  0  0  0  0  0  0  0  0
    8.9784   -6.3865   17.8716 C   0  0  0  0  0  0  0  0  0  0  0  0
   10.6730   -3.9985   22.4762 C   0  0  0  0  0  0  0  0  0  0  0  0
   11.0530   -3.0517   19.0212 C   0  0  0  0  0  0  0  0  0  0  0  0
    5.6731   -7.7815   16.0955 O   0  0  0  0  0  0  0  0  0  0  0  0
    9.7189   -5.4811   18.4741 C   0  0  0  0  0  0  0  0  0  0  0  0
    9.5626   -5.0373   16.3257 N   0  0  0  0  0  0  0  0  0  0  0  0
    5.0052   -8.7548   16.7293 C   0  0  0  0  0  0  0  0  0  0  0  0
    8.7627   -6.0825   16.5983 C   0  0  0  0  0  0  0  0  0  0  0  0
   11.0171   -3.5547   21.2664 O   0  0  0  0  0  0  0  0  0  0  0  0
    1.4046   -8.4922   16.2575 C   0  0  0  0  0  0  0  0  0  0  0  0
    9.3214   -1.3747   25.4160 C   0  0  0  0  0  0  0  0  0  0  0  0
    1.8596  -10.3050   17.6410 N   0  0  0  0  0  0  0  0  0  0  0  0
    9.6621   -0.8869   24.0959 C   0  0  0  0  0  0  0  0  0  0  0  0
    7.0873   -8.8182   17.0654 C   0  0  0  0  0  0  0  0  0  0  0  0
    3.0961  -10.1692   17.6589 C   0  0  0  0  0  0  0  0  0  0  0  0
    2.6737   -8.3568   16.1075 C   0  0  0  0  0  0  0  0  0  0  0  0
    9.4407   -2.9269   25.5535 C   0  0  0  0  0  0  0  0  0  0  0  0
   10.1053   -1.7365   23.1049 C   0  0  0  0  0  0  0  0  0  0  0  0
    0.9592   -9.5610   17.0537 C   0  0  0  0  0  0  0  0  0  0  0  0
    3.6207   -9.1427   16.8110 C   0  0  0  0  0  0  0  0  0  0  0  0
    7.8700   -6.9313   15.7322 C   0  0  0  0  0  0  0  0  0  0  0  0
    5.9240   -9.5452   17.2399 N   0  0  0  0  0  0  0  0  0  0  0  0
   10.1801   -2.9856   23.3227 C   0  0  0  0  0  0  0  0  0  0  0  0
   10.8221   -3.8923   19.9091 C   0  0  0  0  0  0  0  0  0  0  0  0
   10.1821   -5.0366   19.6624 C   0  0  0  0  0  0  0  0  0  0  0  0
  1  3  4  0
  1  7  4  0
  2 21  4  0
  2 27  4  0
  3  9  4  0
  3 10  4  0
  3 18  2  0
  4  8  4  0
  4 25  1  0
  5  9  4  0
  5 12  4  0
  6 13  1  0
  6 27  1  0
  7 14  2  0
  7 28  4  0
  8 11  4  0
  9 28  3  0
  9 29  4  0
 10 12  4  0
 11 24  1  0
 11 26  4  0
 12 25  1  0
 13 28  1  0
 14 23  4  0
 15 16  1  0
 15 17  4  0
 15 21  4  0
 16 18  3  0
 16 19  4  0
 16 23  4  0
 16 29  2  0
 17 22  4  0
 18 26  4  0
 19 24  4  0
 20 24  4  0
 22 27  4  0
 28 29  4  0
M  END
$$$$

 Created by Python create_sdf_string function

 29 33  0  0  0  0  0  0  0  0999 V2000
   10.7524   -3.3742   17.6719 C   0  0  0  0  0  0  0  0  0  0  0  0
   10.0306   -3.5946   24.6616 N   0  0  0  0  0  0  0  0  0  0  0  0
   10.0582   -4.5255   17.4285 C   0  0  0  0  0  0  0  0  0  0  0  0
    6.9125   -7.8506   16.3212 C   0  0  0  0  0  0  0  0  0  0  0  0
    8.9998   -6.3808   17.9076 C   0  0  0  0  0  0  0  0  0  0  0  0
   10.6847   -3.9954   22.4276 C   0  0  0  0  0  0  0  0  0  0  0  0
   11.0794   -3.0517   18.9532 C   0  0  0  0  0  0  0  0  0  0  0  0
    5.6401   -7.8061   16.0840 O   0  0  0  0  0  0  0  0  0  0  0  0
    9.7467   -5.3929   18.4524 C   0  0  0  0  0  0  0  0  0  0  0  0
    9.5252   -5.0185   16.3025 N   0  0  0  0  0  0  0  0  0  0  0  0
    4.9853   -8.8314   16.7260 C   0  0  0  0  0  0  0  0  0  0  0  0
    8.7840   -6.1379   16.6120 C   0  0  0  0  0  0  0  0  0  0  0  0
   11.0266   -3.5259   21.2330 O   0  0  0  0  0  0  0  0  0  0  0  0
    1.3906   -8.5574   16.2588 C   0  0  0  0  0  0  0  0  0  0  0  0
    9.3061   -1.4262   25.3959 C   0  0  0  0  0  0  0  0  0  0  0  0
    1.8262  -10.3374   17.7071 N   0  0  0  0  0  0  0  0  0  0  0  0
    9.6252   -0.8482   24.1370 C   0  0  0  0  0  0  0  0  0  0  0  0
    7.0566   -8.9174   17.0719 C   0  0  0  0  0  0  0  0  0  0  0  0
    3.1201  -10.1317   17.6072 C   0  0  0  0  0  0  0  0  0  0  0  0
    2.7039   -8.3378   16.1436 C   0  0  0  0  0  0  0  0  0  0  0  0
    9.4802   -2.8067   25.6265 C   0  0  0  0  0  0  0  0  0  0  0  0
   10.1026   -1.7001   23.1191 C   0  0  0  0  0  0  0  0  0  0  0  0
    0.9561   -9.5763   17.0521 C   0  0  0  0  0  0  0  0  0  0  0  0
    3.6074   -9.0980   16.8203 C   0  0  0  0  0  0  0  0  0  0  0  0
    7.8570   -6.9138   15.7793 C   0  0  0  0  0  0  0  0  0  0  0  0
    5.9202   -9.5288   17.2953 N   0  0  0  0  0  0  0  0  0  0  0  0
   10.2679   -3.0495   23.4404 C   0  0  0  0  0  0  0  0  0  0  0  0
   10.7742   -3.9074   19.9617 C   0  0  0  0  0  0  0  0  0  0  0  0
   10.1778   -5.0806   19.7181 C   0  0  0  0  0  0  0  0  0  0  0  0
  1  3  4  0
  1  7  4  0
  2 21  4  0
  2 27  4  0
  3  9  4  0
  3 10  4  0
  4  8  4  0
  4 18  4  0
  4 25  1  0
  5  9  4  0
  5 12  4  0
  6 13  1  0
  6 27  1  0
  7 28  4  0
  8 11  4  0
  9 29  4  0
 10 12  4  0
 11 24  1  0
 11 26  4  0
 12 25  1  0
 13 28  1  0
 14 20  4  0
 14 23  4  0
 15 17  4  0
 15 21  4  0
 16 19  4  0
 16 23  4  0
 17 22  4  0
 18 26  4  0
 19 24  4  0
 20 24  4  0
 22 27  4  0
 28 29  4  0
M  END
$$$$

 Created by Python create_sdf_string function

 29 39  0  0  0  0  0  0  0  0999 V2000
   10.7122   -3.3604   17.6996 C   0  0  0  0  0  0  0  0  0  0  0  0
   10.0673   -3.5603   24.7212 N   0  0  0  0  0  0  0  0  0  0  0  0
   10.0514   -4.4625   17.3834 C   0  0  0  0  0  0  0  0  0  0  0  0
    6.9982   -7.8760   16.3282 C   0  0  0  0  0  0  0  0  0  0  0  0
   10.5924   -3.9176   22.4138 C   0  0  0  0  0  0  0  0  0  0  0  0
   11.0733   -3.0557   18.9133 C   0  0  0  0  0  0  0  0  0  0  0  0
    5.6422   -7.8372   16.1402 O   0  0  0  0  0  0  0  0  0  0  0  0
    9.6652   -5.4781   18.3884 C   0  0  0  0  0  0  0  0  0  0  0  0
    9.5250   -4.9772   16.2953 N   0  0  0  0  0  0  0  0  0  0  0  0
    4.9608   -8.8147   16.7633 C   0  0  0  0  0  0  0  0  0  0  0  0
    8.7973   -6.1675   16.5944 C   0  0  0  0  0  0  0  0  0  0  0  0
   10.9579   -3.5339   21.2447 O   0  0  0  0  0  0  0  0  0  0  0  0
    1.3588   -8.5797   16.2477 C   0  0  0  0  0  0  0  0  0  0  0  0
    9.3044   -1.3641   25.4679 C   0  0  0  0  0  0  0  0  0  0  0  0
    1.8219  -10.3554   17.7006 N   0  0  0  0  0  0  0  0  0  0  0  0
    9.6502   -0.9182   24.1382 C   0  0  0  0  0  0  0  0  0  0  0  0
    7.0539   -8.9442   17.0343 C   0  0  0  0  0  0  0  0  0  0  0  0
    3.1506  -10.1786   17.6639 C   0  0  0  0  0  0  0  0  0  0  0  0
    2.6950   -8.3061   16.2062 C   0  0  0  0  0  0  0  0  0  0  0  0
    9.4401   -2.7452   25.6453 C   0  0  0  0  0  0  0  0  0  0  0  0
   10.1006   -1.6700   23.1875 C   0  0  0  0  0  0  0  0  0  0  0  0
    0.9697   -9.5840   17.0852 C   0  0  0  0  0  0  0  0  0  0  0  0
    3.7207   -9.0911   16.7618 C   0  0  0  0  0  0  0  0  0  0  0  0
    7.8339   -6.8641   15.7480 N   0  0  0  0  0  0  0  0  0  0  0  0
    5.9599   -9.4557   17.3334 N   0  0  0  0  0  0  0  0  0  0  0  0
   10.3027   -3.1396   23.4704 C   0  0  0  0  0  0  0  0  0  0  0  0
   10.8151   -3.9048   19.9793 C   0  0  0  0  0  0  0  0  0  0  0  0
   10.1491   -5.0445   19.7055 C   0  0  0  0  0  0  0  0  0  0  0  0
    8.9715   -6.3339   17.8870 He  0  0  0  0  0  0  0  0  0  0  0  0
  1  3  4  0
  1  6  4  0
  2  3  2  0
  2 20  4  0
  2 23  4  0
  2 26  4  0
  3  8  4  0
  3  9  4  0
  4  7  4  0
  4 17  4  0
  4 24  1  0
  5 12  1  0
  5 26  1  0
  6 27  4  0
  7 10  4  0
  8 28  4  0
  9 11  4  0
  9 28  4  0
 10 23  1  0
 10 25  4  0
 10 27  2  0
 11 14  3  0
 11 24  1  0
 12 27  1  0
 13 16  2  0
 13 19  4  0
 13 22  4  0
 14 16  4  0
 14 20  4  0
 15 18  4  0
 15 22  4  0
 15 25  4  0
 16 21  4  0
 17 25  4  0
 17 27  3  0
 18 23  4  0
 19 23  4  0
 21 26  4  0
 27 28  4  0
M  END
$$$$

 Created by Python create_sdf_string function

 29 33  0  0  0  0  0  0  0  0999 V2000
   10.7317   -3.3558   17.6731 C   0  0  0  0  0  0  0  0  0  0  0  0
   10.0128   -3.5614   24.7083 N   0  0  0  0  0  0  0  0  0  0  0  0
   10.0272   -4.5055   17.4323 C   0  0  0  0  0  0  0  0  0  0  0  0
    6.9335   -7.8412   16.3220 C   0  0  0  0  0  0  0  0  0  0  0  0
    8.9781   -6.3851   17.8970 N   0  0  0  0  0  0  0  0  0  0  0  0
   10.6366   -3.9556   22.4386 C   0  0  0  0  0  0  0  0  0  0  0  0
   11.0799   -3.0526   18.9510 C   0  0  0  0  0  0  0  0  0  0  0  0
    5.6653   -7.8206   16.1098 O   0  0  0  0  0  0  0  0  0  0  0  0
    9.7227   -5.3604   18.4445 C   0  0  0  0  0  0  0  0  0  0  0  0
    9.4801   -5.0196   16.2897 N   0  0  0  0  0  0  0  0  0  0  0  0
    5.0029   -8.8196   16.7561 C   0  0  0  0  0  0  0  0  0  0  0  0
    8.7610   -6.1378   16.6080 C   0  0  0  0  0  0  0  0  0  0  0  0
   10.9837   -3.5152   21.2432 O   0  0  0  0  0  0  0  0  0  0  0  0
    1.3829   -8.5755   16.2740 C   0  0  0  0  0  0  0  0  0  0  0  0
    9.3049   -1.3912   25.4349 C   0  0  0  0  0  0  0  0  0  0  0  0
    1.8355  -10.3713   17.7275 N   0  0  0  0  0  0  0  0  0  0  0  0
    9.6332   -0.8443   24.1683 C   0  0  0  0  0  0  0  0  0  0  0  0
    7.0946   -8.9310   17.0609 C   0  0  0  0  0  0  0  0  0  0  0  0
    3.1390  -10.1373   17.6213 C   0  0  0  0  0  0  0  0  0  0  0  0
    2.7073   -8.3205   16.1743 C   0  0  0  0  0  0  0  0  0  0  0  0
    9.4812   -2.7555   25.6803 C   0  0  0  0  0  0  0  0  0  0  0  0
   10.1229   -1.6894   23.1735 C   0  0  0  0  0  0  0  0  0  0  0  0
    0.9528   -9.6040   17.0652 C   0  0  0  0  0  0  0  0  0  0  0  0
    3.6214   -9.0894   16.8539 C   0  0  0  0  0  0  0  0  0  0  0  0
    7.8475   -6.8948   15.8073 C   0  0  0  0  0  0  0  0  0  0  0  0
    5.9660   -9.5237   17.3395 N   0  0  0  0  0  0  0  0  0  0  0  0
   10.2570   -3.0293   23.4834 C   0  0  0  0  0  0  0  0  0  0  0  0
   10.7603   -3.8984   19.9705 C   0  0  0  0  0  0  0  0  0  0  0  0
   10.1445   -5.0663   19.7252 C   0  0  0  0  0  0  0  0  0  0  0  0
  1  3  4  0
  1  7  4  0
  2 21  4  0
  2 27  4  0
  3  9  4  0
  3 10  4  0
  4  8  4  0
  4 18  4  0
  4 25  1  0
  5  9  4  0
  5 12  4  0
  6 13  1  0
  6 27  1  0
  7 28  4  0
  8 11  4  0
  9 29  4  0
 10 12  4  0
 11 24  1  0
 11 26  4  0
 12 25  1  0
 13 28  1  0
 14 20  4  0
 14 23  4  0
 15 17  4  0
 15 21  4  0
 16 19  4  0
 16 23  4  0
 17 22  4  0
 18 26  4  0
 19 24  4  0
 20 24  4  0
 22 27  4  0
 28 29  4  0
M  END
$$$$

 Created by Python create_sdf_string function

 29 38  0  0  0  0  0  0  0  0999 V2000
   10.7032   -3.2920   17.6637 C   0  0  0  0  0  0  0  0  0  0  0  0
   10.0041   -3.5525   24.6870 N   0  0  0  0  0  0  0  0  0  0  0  0
   10.0562   -4.4945   17.3907 C   0  0  0  0  0  0  0  0  0  0  0  0
    6.9557   -7.7611   16.3801 C   0  0  0  0  0  0  0  0  0  0  0  0
    9.0030   -6.3641   17.8862 N   0  0  0  0  0  0  0  0  0  0  0  0
   10.5964   -4.0686   22.4488 C   0  0  0  0  0  0  0  0  0  0  0  0
   11.0862   -3.0624   18.9272 C   0  0  0  0  0  0  0  0  0  0  0  0
    5.6200   -7.7563   16.0921 O   0  0  0  0  0  0  0  0  0  0  0  0
    9.6958   -5.3742   18.4481 C   0  0  0  0  0  0  0  0  0  0  0  0
    9.4482   -5.0466   16.2864 N   0  0  0  0  0  0  0  0  0  0  0  0
    4.9877   -8.7575   16.8090 C   0  0  0  0  0  0  0  0  0  0  0  0
    8.7049   -6.1354   16.5955 C   0  0  0  0  0  0  0  0  0  0  0  0
   10.9993   -3.5409   21.2282 O   0  0  0  0  0  0  0  0  0  0  0  0
    1.4316   -8.5873   16.2337 C   0  0  0  0  0  0  0  0  0  0  0  0
    9.2772   -1.3669   25.4495 C   0  0  0  0  0  0  0  0  0  0  0  0
    1.8950  -10.3464   17.7582 N   0  0  0  0  0  0  0  0  0  0  0  0
    9.5763   -0.8527   24.1675 C   0  0  0  0  0  0  0  0  0  0  0  0
    7.1791   -8.9501   17.0842 C   0  0  0  0  0  0  0  0  0  0  0  0
    3.1382  -10.1154   17.7077 B   0  0  0  0  0  0  0  0  0  0  0  0
    2.7241   -8.3030   16.1730 C   0  0  0  0  0  0  0  0  0  0  0  0
    9.5487   -2.6919   25.6774 C   0  0  0  0  0  0  0  0  0  0  0  0
   10.1276   -1.6524   23.1737 C   0  0  0  0  0  0  0  0  0  0  0  0
    0.9647   -9.5849   16.9724 C   0  0  0  0  0  0  0  0  0  0  0  0
    3.6243   -9.0937   16.8492 C   0  0  0  0  0  0  0  0  0  0  0  0
    7.8680   -6.9616   15.8407 C   0  0  0  0  0  0  0  0  0  0  0  0
    5.9852   -9.5442   17.3093 N   0  0  0  0  0  0  0  0  0  0  0  0
   10.2864   -3.0358   23.4026 C   0  0  0  0  0  0  0  0  0  0  0  0
   10.7429   -3.8808   20.0093 C   0  0  0  0  0  0  0  0  0  0  0  0
   10.1833   -5.0918   19.7169 C   0  0  0  0  0  0  0  0  0  0  0  0
  1  3  4  0
  1  7  4  0
  1 21  4  0
  2 21  4  0
  3  8  4  0
  3  9  4  0
  3 27  3  0
  4  8  4  0
  4 18  4  0
  4 25  1  0
  5  9  4  0
  5 12  4  0
  6 13  1  0
  6 27  1  0
  7 10  3  0
  7 28  4  0
  8 11  4  0
  9 29  4  0
 10 12  4  0
 11 24  1  0
 11 26  4  0
 12 21  4  0
 12 25  1  0
 13 28  1  0
 14 20  4  0
 14 21  3  0
 14 23  4  0
 15 17  4  0
 15 21  4  0
 16 19  4  0
 16 23  4  0
 17 22  4  0
 18 26  4  0
 19 23  1  0
 19 24  4  0
 20 24  4  0
 22 27  4  0
 28 29  4  0
M  END
$$$$

 Created by Python create_sdf_string function

 29 33  0  0  0  0  0  0  0  0999 V2000
   10.7154   -3.3370   17.6663 C   0  0  0  0  0  0  0  0  0  0  0  0
   10.0073   -3.5314   24.6868 N   0  0  0  0  0  0  0  0  0  0  0  0
   10.0112   -4.4989   17.4184 C   0  0  0  0  0  0  0  0  0  0  0  0
    6.9304   -7.8352   16.3607 C   0  0  0  0  0  0  0  0  0  0  0  0
    8.9916   -6.3718   17.9214 N   0  0  0  0  0  0  0  0  0  0  0  0
   10.6152   -4.0058   22.4308 C   0  0  0  0  0  0  0  0  0  0  0  0
   11.0731   -3.0416   18.9284 C   0  0  0  0  0  0  0  0  0  0  0  0
    5.6407   -7.7821   16.1307 O   0  0  0  0  0  0  0  0  0  0  0  0
    9.7295   -5.3581   18.4350 C   0  0  0  0  0  0  0  0  0  0  0  0
    9.4532   -5.0064   16.2928 N   0  0  0  0  0  0  0  0  0  0  0  0
    5.0273   -8.8099   16.7751 C   0  0  0  0  0  0  0  0  0  0  0  0
    8.7638   -6.1270   16.6402 C   0  0  0  0  0  0  0  0  0  0  0  0
   11.0004   -3.5172   21.2317 O   0  0  0  0  0  0  0  0  0  0  0  0
    1.4231   -8.5883   16.2305 C   0  0  0  0  0  0  0  0  0  0  0  0
    9.2947   -1.3552   25.4299 C   0  0  0  0  0  0  0  0  0  0  0  0
    1.8809  -10.3400   17.7394 N   0  0  0  0  0  0  0  0  0  0  0  0
    9.5893   -0.8029   24.1517 C   0  0  0  0  0  0  0  0  0  0  0  0
    7.1227   -8.9535   17.0966 C   0  0  0  0  0  0  0  0  0  0  0  0
    3.1552  -10.0809   17.6569 C   0  0  0  0  0  0  0  0  0  0  0  0
    2.7420   -8.2997   16.1581 C   0  0  0  0  0  0  0  0  0  0  0  0
    9.5381   -2.7140   25.6833 C   0  0  0  0  0  0  0  0  0  0  0  0
   10.1098   -1.6618   23.1692 C   0  0  0  0  0  0  0  0  0  0  0  0
    1.0195   -9.6192   17.0203 C   0  0  0  0  0  0  0  0  0  0  0  0
    3.6396   -9.0663   16.8685 C   0  0  0  0  0  0  0  0  0  0  0  0
    7.8685   -6.9328   15.8275 C   0  0  0  0  0  0  0  0  0  0  0  0
    5.9832   -9.5412   17.3317 N   0  0  0  0  0  0  0  0  0  0  0  0
   10.2526   -3.0148   23.4630 C   0  0  0  0  0  0  0  0  0  0  0  0
   10.7565   -3.8896   19.9717 C   0  0  0  0  0  0  0  0  0  0  0  0
   10.1482   -5.0747   19.6994 C   0  0  0  0  0  0  0  0  0  0  0  0
  1  3  4  0
  1  7  4  0
  2 21  4  0
  2 27  4  0
  3  9  4  0
  3 10  4  0
  4  8  4  0
  4 18  4  0
  4 25  1  0
  5  9  4  0
  5 12  4  0
  6 13  1  0
  6 27  1  0
  7 28  4  0
  8 11  4  0
  9 29  4  0
 10 12  4  0
 11 24  1  0
 11 26  4  0
 12 25  1  0
 13 28  1  0
 14 20  4  0
 14 23  4  0
 15 17  4  0
 15 21  4  0
 16 19  4  0
 16 23  4  0
 17 22  4  0
 18 26  4  0
 19 24  4  0
 20 24  4  0
 22 27  4  0
 28 29  4  0
M  END
$$$$

 Created by Python create_sdf_string function

 29 37  0  0  0  0  0  0  0  0999 V2000
   10.6996   -3.3722   17.6055 C   0  0  0  0  0  0  0  0  0  0  0  0
   10.0273   -3.5072   24.6687 P   0  0  0  0  0  0  0  0  0  0  0  0
    9.9367   -4.5591   17.4049 C   0  0  0  0  0  0  0  0  0  0  0  0
    6.9477   -7.8208   16.3092 C   0  0  0  0  0  0  0  0  0  0  0  0
    8.9948   -6.4144   17.9822 N   0  0  0  0  0  0  0  0  0  0  0  0
   10.5682   -4.0067   22.4304 C   0  0  0  0  0  0  0  0  0  0  0  0
   11.0997   -3.0401   18.9229 C   0  0  0  0  0  0  0  0  0  0  0  0
    5.6381   -7.8049   16.2199 O   0  0  0  0  0  0  0  0  0  0  0  0
    9.7878   -5.3867   18.3903 C   0  0  0  0  0  0  0  0  0  0  0  0
    9.4870   -5.0556   16.3137 N   0  0  0  0  0  0  0  0  0  0  0  0
    5.0564   -8.7870   16.7925 C   0  0  0  0  0  0  0  0  0  0  0  0
    8.7637   -6.2033   16.6435 C   0  0  0  0  0  0  0  0  0  0  0  0
   10.9716   -3.5370   21.2066 O   0  0  0  0  0  0  0  0  0  0  0  0
    1.4210   -8.5505   16.2417 C   0  0  0  0  0  0  0  0  0  0  0  0
    9.2882   -1.3991   25.4224 C   0  0  0  0  0  0  0  0  0  0  0  0
    1.9411  -10.3434   17.6738 N   0  0  0  0  0  0  0  0  0  0  0  0
    9.5544   -0.8441   24.1173 C   0  0  0  0  0  0  0  0  0  0  0  0
    7.1247   -8.9621   17.1170 C   0  0  0  0  0  0  0  0  0  0  0  0
    3.1600  -10.0569   17.6460 C   0  0  0  0  0  0  0  0  0  0  0  0
    2.7339   -8.2667   16.1374 C   0  0  0  0  0  0  0  0  0  0  0  0
    9.5062   -2.7068   25.7176 C   0  0  0  0  0  0  0  0  0  0  0  0
   10.1046   -1.7053   23.0941 C   0  0  0  0  0  0  0  0  0  0  0  0
    0.9992   -9.6252   17.0173 C   0  0  0  0  0  0  0  0  0  0  0  0
    3.6055   -9.0516   16.8506 C   0  0  0  0  0  0  0  0  0  0  0  0
    7.8773   -6.8999   15.7435 C   0  0  0  0  0  0  0  0  0  0  0  0
    5.9844   -9.5301   17.2922 N   0  0  0  0  0  0  0  0  0  0  0  0
   10.2071   -2.9689   23.4782 C   0  0  0  0  0  0  0  0  0  0  0  0
   10.7908   -3.9269   19.9049 C   0  0  0  0  0  0  0  0  0  0  0  0
   10.1351   -5.0237   19.6711 C   0  0  0  0  0  0  0  0  0  0  0  0
  1  3  4  0
  1  7  4  0
  1 21  4  0
  2 16  4  0
  2 21  4  0
  3  9  4  0
  3 10  4  0
  4  8  4  0
  4 18  4  0
  4 25  1  0
  5  9  4  0
  5 12  4  0
  5 29  3  0
  6 13  1  0
  6 27  1  0
  7 28  4  0
  8 11  4  0
  9 29  4  0
 10 12  4  0
 11 24  1  0
 11 26  4  0
 12 25  1  0
 13 28  1  0
 14 20  4  0
 14 23  4  0
 14 25  3  0
 15 17  4  0
 15 21  4  0
 15 24  3  0
 16 19  4  0
 16 23  4  0
 17 22  4  0
 18 26  4  0
 19 24  4  0
 20 24  4  0
 22 27  4  0
 28 29  4  0
M  END
$$$$

 Created by Python create_sdf_string function

 29 33  0  0  0  0  0  0  0  0999 V2000
   10.7128   -3.3582   17.6224 C   0  0  0  0  0  0  0  0  0  0  0  0
   10.0020   -3.5232   24.7142 N   0  0  0  0  0  0  0  0  0  0  0  0
   10.0097   -4.5192   17.3914 C   0  0  0  0  0  0  0  0  0  0  0  0
    6.9340   -7.8561   16.3544 C   0  0  0  0  0  0  0  0  0  0  0  0
    9.0105   -6.4079   17.9424 N   0  0  0  0  0  0  0  0  0  0  0  0
   10.5987   -3.9678   22.4197 C   0  0  0  0  0  0  0  0  0  0  0  0
   11.0805   -3.0524   18.8781 C   0  0  0  0  0  0  0  0  0  0  0  0
    5.6495   -7.7934   16.1704 O   0  0  0  0  0  0  0  0  0  0  0  0
    9.7376   -5.3656   18.4285 C   0  0  0  0  0  0  0  0  0  0  0  0
    9.4514   -5.0542   16.2916 N   0  0  0  0  0  0  0  0  0  0  0  0
    5.0226   -8.8136   16.7842 C   0  0  0  0  0  0  0  0  0  0  0  0
    8.7775   -6.1665   16.6488 C   0  0  0  0  0  0  0  0  0  0  0  0
   10.9771   -3.5235   21.2065 O   0  0  0  0  0  0  0  0  0  0  0  0
    1.4195   -8.5643   16.2408 C   0  0  0  0  0  0  0  0  0  0  0  0
    9.2871   -1.3604   25.4110 C   0  0  0  0  0  0  0  0  0  0  0  0
    1.8918  -10.3394   17.6954 N   0  0  0  0  0  0  0  0  0  0  0  0
    9.5603   -0.8010   24.1226 C   0  0  0  0  0  0  0  0  0  0  0  0
    7.1130   -8.9484   17.0958 C   0  0  0  0  0  0  0  0  0  0  0  0
    3.1646  -10.0759   17.6314 C   0  0  0  0  0  0  0  0  0  0  0  0
    2.7337   -8.2855   16.1653 C   0  0  0  0  0  0  0  0  0  0  0  0
    9.5154   -2.7012   25.6993 C   0  0  0  0  0  0  0  0  0  0  0  0
   10.0739   -1.6738   23.1255 C   0  0  0  0  0  0  0  0  0  0  0  0
    1.0080   -9.6080   17.0058 C   0  0  0  0  0  0  0  0  0  0  0  0
    3.6398   -9.0597   16.8622 C   0  0  0  0  0  0  0  0  0  0  0  0
    7.8653   -6.9298   15.8105 C   0  0  0  0  0  0  0  0  0  0  0  0
    5.9844   -9.5514   17.3300 N   0  0  0  0  0  0  0  0  0  0  0  0
   10.2233   -3.0109   23.4615 C   0  0  0  0  0  0  0  0  0  0  0  0
   10.7656   -3.8978   19.9180 C   0  0  0  0  0  0  0  0  0  0  0  0
   10.1505   -5.0662   19.6815 C   0  0  0  0  0  0  0  0  0  0  0  0
  1  3  4  0
  1  7  4  0
  2 21  4  0
  2 27  4  0
  3  9  4  0
  3 10  4  0
  4  8  4  0
  4 18  4  0
  4 25  1  0
  5  9  4  0
  5 12  4  0
  6 13  1  0
  6 27  1  0
  7 28  4  0
  8 11  4  0
  9 29  4  0
 10 12  4  0
 11 24  1  0
 11 26  4  0
 12 25  1  0
 13 28  1  0
 14 20  4  0
 14 23  4  0
 15 17  4  0
 15 21  4  0
 16 19  4  0
 16 23  4  0
 17 22  4  0
 18 26  4  0
 19 24  4  0
 20 24  4  0
 22 27  4  0
 28 29  4  0
M  END
$$$$

 Created by Python create_sdf_string function

 29 35  0  0  0  0  0  0  0  0999 V2000
   10.6749   -3.3582   17.5577 C   0  0  0  0  0  0  0  0  0  0  0  0
   10.0176   -3.4960   24.7478 N   0  0  0  0  0  0  0  0  0  0  0  0
   10.0195   -4.5429   17.3637 C   0  0  0  0  0  0  0  0  0  0  0  0
    6.9025   -7.8326   16.3617 C   0  0  0  0  0  0  0  0  0  0  0  0
    9.0719   -6.3790   17.9423 N   0  0  0  0  0  0  0  0  0  0  0  0
   10.6256   -3.9257   22.4684 C   0  0  0  0  0  0  0  0  0  0  0  0
   11.0553   -3.0964   18.8847 C   0  0  0  0  0  0  0  0  0  0  0  0
    5.6477   -7.7899   16.1801 O   0  0  0  0  0  0  0  0  0  0  0  0
    9.7930   -5.3451   18.3994 C   0  0  0  0  0  0  0  0  0  0  0  0
    9.4475   -5.0939   16.2982 N   0  0  0  0  0  0  0  0  0  0  0  0
    4.9814   -8.7899   16.7924 C   0  0  0  0  0  0  0  0  0  0  0  0
    8.7466   -6.1551   16.6302 C   0  0  0  0  0  0  0  0  0  0  0  0
   11.0262   -3.5517   21.2001 O   0  0  0  0  0  0  0  0  0  0  0  0
    1.4353   -8.5885   16.2555 C   0  0  0  0  0  0  0  0  0  0  0  0
    9.2455   -1.3678   25.3482 C   0  0  0  0  0  0  0  0  0  0  0  0
    1.8920  -10.3297   17.6654 N   0  0  0  0  0  0  0  0  0  0  0  0
    9.5630   -0.7965   24.1856 C   0  0  0  0  0  0  0  0  0  0  0  0
    7.1732   -8.9423   17.1001 C   0  0  0  0  0  0  0  0  0  0  0  0
    3.1926  -10.1004   17.6183 C   0  0  0  0  0  0  0  0  0  0  0  0
    2.7339   -8.2741   16.1565 C   0  0  0  0  0  0  0  0  0  0  0  0
    9.5063   -2.6612   25.6504 C   0  0  0  0  0  0  0  0  0  0  0  0
   10.1229   -1.6560   23.1112 C   0  0  0  0  0  0  0  0  0  0  0  0
    1.0163   -9.6691   17.0078 C   0  0  0  0  0  0  0  0  0  0  0  0
    3.6338   -9.0771   16.8680 C   0  0  0  0  0  0  0  0  0  0  0  0
    7.8169   -6.9610   15.8152 C   0  0  0  0  0  0  0  0  0  0  0  0
    5.9725   -9.5755   17.3319 N   0  0  0  0  0  0  0  0  0  0  0  0
   10.2127   -3.0370   23.4207 C   0  0  0  0  0  0  0  0  0  0  0  0
   10.7211   -3.9196   19.9320 C   0  0  0  0  0  0  0  0  0  0  0  0
   10.0937   -5.1197   19.7375 C   0  0  0  0  0  0  0  0  0  0  0  0
  1  3  4  0
  1  7  4  0
  2 21  4  0
  2 27  4  0
  3  9  4  0
  3 10  4  0
  4  8  4  0
  4 11  3  0
  4 18  4  0
  4 25  1  0
  5  9  4  0
  5 12  4  0
  5 14  2  0
  5 26  2  0
  6 13  1  0
  7 28  4  0
  8 11  4  0
 10 12  4  0
 11 24  1  0
 11 26  4  0
 12 25  1  0
 13 28  1  0
 14 20  4  0
 14 23  4  0
 15 17  4  0
 15 21  4  0
 16 19  4  0
 16 23  4  0
 17 22  4  0
 18 26  4  0
 19 24  4  0
 20 24  4  0
 22 27  4  0
 25 29  2  0
 28 29  4  0
M  END
$$$$

 Created by Python create_sdf_string function

 29 33  0  0  0  0  0  0  0  0999 V2000
   10.7062   -3.3660   17.6047 C   0  0  0  0  0  0  0  0  0  0  0  0
   10.0002   -3.4941   24.7036 N   0  0  0  0  0  0  0  0  0  0  0  0
   10.0151   -4.5255   17.3697 C   0  0  0  0  0  0  0  0  0  0  0  0
    6.9130   -7.8620   16.3778 C   0  0  0  0  0  0  0  0  0  0  0  0
    9.0445   -6.3909   17.9295 N   0  0  0  0  0  0  0  0  0  0  0  0
   10.6334   -3.9234   22.4431 C   0  0  0  0  0  0  0  0  0  0  0  0
   11.0537   -3.0737   18.8748 C   0  0  0  0  0  0  0  0  0  0  0  0
    5.6303   -7.8002   16.1648 O   0  0  0  0  0  0  0  0  0  0  0  0
    9.7452   -5.3721   18.4093 C   0  0  0  0  0  0  0  0  0  0  0  0
    9.4524   -5.0523   16.2705 N   0  0  0  0  0  0  0  0  0  0  0  0
    5.0295   -8.8216   16.7850 C   0  0  0  0  0  0  0  0  0  0  0  0
    8.7726   -6.1625   16.6439 C   0  0  0  0  0  0  0  0  0  0  0  0
   10.9943   -3.5438   21.2259 O   0  0  0  0  0  0  0  0  0  0  0  0
    1.4239   -8.5894   16.2482 C   0  0  0  0  0  0  0  0  0  0  0  0
    9.2534   -1.3377   25.3741 C   0  0  0  0  0  0  0  0  0  0  0  0
    1.8816  -10.3644   17.6872 N   0  0  0  0  0  0  0  0  0  0  0  0
    9.5790   -0.7702   24.1181 C   0  0  0  0  0  0  0  0  0  0  0  0
    7.1219   -8.9546   17.1110 C   0  0  0  0  0  0  0  0  0  0  0  0
    3.1585  -10.1051   17.6179 C   0  0  0  0  0  0  0  0  0  0  0  0
    2.7321   -8.2948   16.1759 C   0  0  0  0  0  0  0  0  0  0  0  0
    9.4970   -2.6760   25.6680 C   0  0  0  0  0  0  0  0  0  0  0  0
   10.1000   -1.6306   23.1262 C   0  0  0  0  0  0  0  0  0  0  0  0
    1.0049   -9.6390   16.9979 C   0  0  0  0  0  0  0  0  0  0  0  0
    3.6386   -9.0758   16.8605 C   0  0  0  0  0  0  0  0  0  0  0  0
    7.8387   -6.9495   15.8385 C   0  0  0  0  0  0  0  0  0  0  0  0
    5.9856   -9.5652   17.3423 N   0  0  0  0  0  0  0  0  0  0  0  0
   10.2282   -2.9785   23.4671 C   0  0  0  0  0  0  0  0  0  0  0  0
   10.7422   -3.9000   19.9250 C   0  0  0  0  0  0  0  0  0  0  0  0
   10.1266   -5.0844   19.6851 C   0  0  0  0  0  0  0  0  0  0  0  0
  1  3  4  0
  1  7  4  0
  2 21  4  0
  2 27  4  0
  3  9  4  0
  3 10  4  0
  4  8  4  0
  4 18  4  0
  4 25  1  0
  5  9  4  0
  5 12  4  0
  6 13  1  0
  6 27  1  0
  7 28  4  0
  8 11  4  0
  9 29  4  0
 10 12  4  0
 11 24  1  0
 11 26  4  0
 12 25  1  0
 13 28  1  0
 14 20  4  0
 14 23  4  0
 15 17  4  0
 15 21  4  0
 16 19  4  0
 16 23  4  0
 17 22  4  0
 18 26  4  0
 19 24  4  0
 20 24  4  0
 22 27  4  0
 28 29  4  0
M  END
$$$$

 Created by Python create_sdf_string function

 29 35  0  0  0  0  0  0  0  0999 V2000
   10.6802   -3.3513   17.6101 C   0  0  0  0  0  0  0  0  0  0  0  0
    9.9984   -3.5049   24.7245 N   0  0  0  0  0  0  0  0  0  0  0  0
    9.9956   -4.5055   17.3754 C   0  0  0  0  0  0  0  0  0  0  0  0
    6.8992   -7.8808   16.3674 C   0  0  0  0  0  0  0  0  0  0  0  0
    9.0662   -6.3196   17.9536 N   0  0  0  0  0  0  0  0  0  0  0  0
   10.6068   -3.9238   22.4235 C   0  0  0  0  0  0  0  0  0  0  0  0
   11.0721   -3.0287   18.8990 C   0  0  0  0  0  0  0  0  0  0  0  0
    5.6204   -7.8164   16.1852 O   0  0  0  0  0  0  0  0  0  0  0  0
    9.7481   -5.3708   18.4248 C   0  0  0  0  0  0  0  0  0  0  0  0
    9.4371   -5.0817   16.2976 N   0  0  0  0  0  0  0  0  0  0  0  0
    5.0186   -8.7894   16.7753 C   0  0  0  0  0  0  0  0  0  0  0  0
    8.7764   -6.1904   16.6303 C   0  0  0  0  0  0  0  0  0  0  0  0
   10.9902   -3.5489   21.2667 O   0  0  0  0  0  0  0  0  0  0  0  0
    1.4138   -8.6014   16.2363 C   0  0  0  0  0  0  0  0  0  0  0  0
    9.2705   -1.3367   25.4048 C   0  0  0  0  0  0  0  0  0  0  0  0
    1.8782  -10.3727   17.7155 N   0  0  0  0  0  0  0  0  0  0  0  0
    9.5796   -0.7425   24.1357 C   0  0  0  0  0  0  0  0  0  0  0  0
    7.1284   -8.9867   17.0973 C   0  0  0  0  0  0  0  0  0  0  0  0
    3.1787  -10.1180   17.6105 C   0  0  0  0  0  0  0  0  0  0  0  0
    2.7354   -8.2737   16.1876 C   0  0  0  0  0  0  0  0  0  0  0  0
    9.4803   -2.6778   25.6565 C   0  0  0  0  0  0  0  0  0  0  0  0
   10.1329   -1.6357   23.1584 C   0  0  0  0  0  0  0  0  0  0  0  0
    1.0397   -9.6685   17.0008 C   0  0  0  0  0  0  0  0  0  0  0  0
    3.6852   -9.0948   16.8460 C   0  0  0  0  0  0  0  0  0  0  0  0
    7.8486   -6.9428   15.8101 O   0  0  0  0  0  0  0  0  0  0  0  0
    5.9855   -9.5876   17.3262 N   0  0  0  0  0  0  0  0  0  0  0  0
   10.1856   -2.9624   23.5159 C   0  0  0  0  0  0  0  0  0  0  0  0
   10.7317   -3.9113   19.9072 C   0  0  0  0  0  0  0  0  0  0  0  0
   10.1368   -5.0621   19.6867 C   0  0  0  0  0  0  0  0  0  0  0  0
  1  3  4  0
  1  7  4  0
  2 21  4  0
  2 27  4  0
  3  9  4  0
  3 10  4  0
  4  8  4  0
  4 18  4  0
  4 25  1  0
  5 12  4  0
  6 13  1  0
  6 24  4  0
  6 27  1  0
  7 28  4  0
  8 11  4  0
  8 25  2  0
  8 27  1  0
  9 29  4  0
 10 12  4  0
 11 24  1  0
 11 26  4  0
 12 25  1  0
 13 28  1  0
 14 20  4  0
 14 23  4  0
 15 17  4  0
 15 21  4  0
 16 19  4  0
 16 23  4  0
 17 22  4  0
 18 26  4  0
 19 24  4  0
 20 24  4  0
 22 27  4  0
 28 29  4  0
M  END
$$$$

 Created by Python create_sdf_string function

 29 33  0  0  0  0  0  0  0  0999 V2000
   10.7021   -3.3400   17.6275 C   0  0  0  0  0  0  0  0  0  0  0  0
    9.9770   -3.4958   24.7076 N   0  0  0  0  0  0  0  0  0  0  0  0
   10.0109   -4.4935   17.3839 C   0  0  0  0  0  0  0  0  0  0  0  0
    6.9168   -7.8791   16.3680 C   0  0  0  0  0  0  0  0  0  0  0  0
    9.0203   -6.3674   17.9087 N   0  0  0  0  0  0  0  0  0  0  0  0
   10.6095   -3.9306   22.4488 C   0  0  0  0  0  0  0  0  0  0  0  0
   11.0614   -3.0351   18.8907 C   0  0  0  0  0  0  0  0  0  0  0  0
    5.6464   -7.8128   16.1684 O   0  0  0  0  0  0  0  0  0  0  0  0
    9.7445   -5.3223   18.4065 C   0  0  0  0  0  0  0  0  0  0  0  0
    9.4341   -5.0630   16.2617 N   0  0  0  0  0  0  0  0  0  0  0  0
    5.0287   -8.8415   16.7849 C   0  0  0  0  0  0  0  0  0  0  0  0
    8.7655   -6.1750   16.6269 C   0  0  0  0  0  0  0  0  0  0  0  0
   10.9786   -3.5180   21.2338 O   0  0  0  0  0  0  0  0  0  0  0  0
    1.4358   -8.6031   16.2476 C   0  0  0  0  0  0  0  0  0  0  0  0
    9.2751   -1.3141   25.3937 C   0  0  0  0  0  0  0  0  0  0  0  0
    1.8969  -10.3837   17.7060 N   0  0  0  0  0  0  0  0  0  0  0  0
    9.5916   -0.7394   24.1288 C   0  0  0  0  0  0  0  0  0  0  0  0
    7.1107   -8.9677   17.0922 C   0  0  0  0  0  0  0  0  0  0  0  0
    3.1757  -10.1212   17.6168 C   0  0  0  0  0  0  0  0  0  0  0  0
    2.7430   -8.3020   16.1899 C   0  0  0  0  0  0  0  0  0  0  0  0
    9.4774   -2.6683   25.6724 C   0  0  0  0  0  0  0  0  0  0  0  0
   10.1129   -1.6229   23.1551 C   0  0  0  0  0  0  0  0  0  0  0  0
    1.0360   -9.6537   17.0046 C   0  0  0  0  0  0  0  0  0  0  0  0
    3.6477   -9.0894   16.8633 C   0  0  0  0  0  0  0  0  0  0  0  0
    7.8573   -6.9615   15.8757 C   0  0  0  0  0  0  0  0  0  0  0  0
    5.9854   -9.5847   17.3339 N   0  0  0  0  0  0  0  0  0  0  0  0
   10.2200   -2.9742   23.4875 C   0  0  0  0  0  0  0  0  0  0  0  0
   10.7477   -3.8811   19.9318 C   0  0  0  0  0  0  0  0  0  0  0  0
   10.1364   -5.0569   19.6819 C   0  0  0  0  0  0  0  0  0  0  0  0
  1  3  4  0
  1  7  4  0
  2 21  4  0
  2 27  4  0
  3  9  4  0
  3 10  4  0
  4  8  4  0
  4 18  4  0
  4 25  1  0
  5  9  4  0
  5 12  4  0
  6 13  1  0
  6 27  1  0
  7 28  4  0
  8 11  4  0
  9 29  4  0
 10 12  4  0
 11 24  1  0
 11 26  4  0
 12 25  1  0
 13 28  1  0
 14 20  4  0
 14 23  4  0
 15 17  4  0
 15 21  4  0
 16 19  4  0
 16 23  4  0
 17 22  4  0
 18 26  4  0
 19 24  4  0
 20 24  4  0
 22 27  4  0
 28 29  4  0
M  END
$$$$

 Created by Python create_sdf_string function

 29 35  0  0  0  0  0  0  0  0999 V2000
   10.6910   -3.3561   17.5908 C   0  0  0  0  0  0  0  0  0  0  0  0
    9.9307   -3.4778   24.7066 N   0  0  0  0  0  0  0  0  0  0  0  0
    9.9822   -4.4993   17.3607 C   0  0  0  0  0  0  0  0  0  0  0  0
    6.9440   -7.8929   16.3916 C   0  0  0  0  0  0  0  0  0  0  0  0
    9.0225   -6.3440   17.9380 N   0  0  0  0  0  0  0  0  0  0  0  0
   10.6220   -3.9449   22.4497 C   0  0  0  0  0  0  0  0  0  0  0  0
   11.0772   -3.0101   18.8845 C   0  0  0  0  0  0  0  0  0  0  0  0
    5.6041   -7.8072   16.1442 O   0  0  0  0  0  0  0  0  0  0  0  0
    9.7650   -5.3158   18.4074 C   0  0  0  0  0  0  0  0  0  0  0  0
    9.4462   -5.0672   16.2616 N   0  0  0  0  0  0  0  0  0  0  0  0
    5.0058   -8.8533   16.7733 C   0  0  0  0  0  0  0  0  0  0  0  0
    8.7631   -6.1941   16.6222 C   0  0  0  0  0  0  0  0  0  0  0  0
   10.9756   -3.5031   21.2239 O   0  0  0  0  0  0  0  0  0  0  0  0
    1.4751   -8.6223   16.2318 C   0  0  0  0  0  0  0  0  0  0  0  0
    9.2686   -1.3368   25.3841 C   0  0  0  0  0  0  0  0  0  0  0  0
    1.8997  -10.4064   17.7083 N   0  0  0  0  0  0  0  0  0  0  0  0
    9.5625   -0.7779   24.1209 C   0  0  0  0  0  0  0  0  0  0  0  0
    7.0826   -8.9772   17.1146 C   0  0  0  0  0  0  0  0  0  0  0  0
    3.1682  -10.1034   17.6245 C   0  0  0  0  0  0  0  0  0  0  0  0
    2.7577   -8.3182   16.1736 C   0  0  0  0  0  0  0  0  0  0  0  0
    9.4666   -2.6965   25.6766 C   0  0  0  0  0  0  0  0  0  0  0  0
   10.1064   -1.6558   23.1178 C   0  0  0  0  0  0  0  0  0  0  0  0
    1.0472   -9.6508   16.9981 C   0  0  0  0  0  0  0  0  0  0  0  0
    3.7036   -9.0595   16.8785 C   0  0  0  0  0  0  0  0  0  0  0  0
    7.8675   -6.9582   15.9128 C   0  0  0  0  0  0  0  0  0  0  0  0
    6.0160   -9.5748   17.3392 N   0  0  0  0  0  0  0  0  0  0  0  0
   10.1983   -2.9825   23.5227 C   0  0  0  0  0  0  0  0  0  0  0  0
   10.7543   -3.9161   19.9517 C   0  0  0  0  0  0  0  0  0  0  0  0
   10.1031   -5.0410   19.6447 C   0  0  0  0  0  0  0  0  0  0  0  0
  1  3  4  0
  1  7  4  0
  2 21  4  0
  2 27  4  0
  3  9  4  0
  3 10  4  0
  3 28  4  0
  4  8  4  0
  4 18  4  0
  4 25  1  0
  5  9  4  0
  5 12  4  0
  6 13  1  0
  6 27  1  0
  7 28  4  0
  8 11  4  0
  9 21  1  0
  9 29  4  0
 10 12  4  0
 11 24  1  0
 11 26  4  0
 12 25  1  0
 13 28  1  0
 14 20  4  0
 14 23  4  0
 15 17  4  0
 15 21  4  0
 16 19  4  0
 16 23  4  0
 17 22  4  0
 18 26  4  0
 19 24  4  0
 20 24  4  0
 22 27  4  0
 28 29  4  0
M  END
$$$$

 Created by Python create_sdf_string function

 29 33  0  0  0  0  0  0  0  0999 V2000
   10.7052   -3.3453   17.6133 C   0  0  0  0  0  0  0  0  0  0  0  0
    9.9378   -3.4929   24.7000 N   0  0  0  0  0  0  0  0  0  0  0  0
   10.0082   -4.4944   17.3663 C   0  0  0  0  0  0  0  0  0  0  0  0
    6.9175   -7.8968   16.3873 C   0  0  0  0  0  0  0  0  0  0  0  0
    9.0189   -6.3690   17.9431 N   0  0  0  0  0  0  0  0  0  0  0  0
   10.6320   -3.9350   22.4464 C   0  0  0  0  0  0  0  0  0  0  0  0
   11.0633   -3.0332   18.8759 C   0  0  0  0  0  0  0  0  0  0  0  0
    5.6192   -7.8401   16.1519 O   0  0  0  0  0  0  0  0  0  0  0  0
    9.7322   -5.3272   18.4073 C   0  0  0  0  0  0  0  0  0  0  0  0
    9.4512   -5.0421   16.2591 N   0  0  0  0  0  0  0  0  0  0  0  0
    5.0349   -8.8596   16.7935 C   0  0  0  0  0  0  0  0  0  0  0  0
    8.7767   -6.1594   16.6510 C   0  0  0  0  0  0  0  0  0  0  0  0
   10.9624   -3.4957   21.2155 O   0  0  0  0  0  0  0  0  0  0  0  0
    1.4681   -8.6206   16.2400 C   0  0  0  0  0  0  0  0  0  0  0  0
    9.2718   -1.3202   25.3755 C   0  0  0  0  0  0  0  0  0  0  0  0
    1.9020  -10.3897   17.7090 N   0  0  0  0  0  0  0  0  0  0  0  0
    9.5765   -0.7606   24.1014 C   0  0  0  0  0  0  0  0  0  0  0  0
    7.0967   -8.9766   17.1165 C   0  0  0  0  0  0  0  0  0  0  0  0
    3.1767  -10.1178   17.6338 C   0  0  0  0  0  0  0  0  0  0  0  0
    2.7711   -8.3248   16.1780 C   0  0  0  0  0  0  0  0  0  0  0  0
    9.4599   -2.6732   25.6742 C   0  0  0  0  0  0  0  0  0  0  0  0
   10.0941   -1.6447   23.1269 C   0  0  0  0  0  0  0  0  0  0  0  0
    1.0558   -9.6527   17.0035 C   0  0  0  0  0  0  0  0  0  0  0  0
    3.6609   -9.1059   16.8697 C   0  0  0  0  0  0  0  0  0  0  0  0
    7.8769   -6.9696   15.8897 C   0  0  0  0  0  0  0  0  0  0  0  0
    5.9902   -9.5886   17.3492 N   0  0  0  0  0  0  0  0  0  0  0  0
   10.2135   -2.9883   23.4813 C   0  0  0  0  0  0  0  0  0  0  0  0
   10.7463   -3.8690   19.9283 C   0  0  0  0  0  0  0  0  0  0  0  0
   10.1264   -5.0368   19.6713 C   0  0  0  0  0  0  0  0  0  0  0  0
  1  3  4  0
  1  7  4  0
  2 21  4  0
  2 27  4  0
  3  9  4  0
  3 10  4  0
  4  8  4  0
  4 18  4  0
  4 25  1  0
  5  9  4  0
  5 12  4  0
  6 13  1  0
  6 27  1  0
  7 28  4  0
  8 11  4  0
  9 29  4  0
 10 12  4  0
 11 24  1  0
 11 26  4  0
 12 25  1  0
 13 28  1  0
 14 20  4  0
 14 23  4  0
 15 17  4  0
 15 21  4  0
 16 19  4  0
 16 23  4  0
 17 22  4  0
 18 26  4  0
 19 24  4  0
 20 24  4  0
 22 27  4  0
 28 29  4  0
M  END
$$$$

 Created by Python create_sdf_string function

 29 34  0  0  0  0  0  0  0  0999 V2000
   10.6976   -3.3355   17.6196 C   0  0  0  0  0  0  0  0  0  0  0  0
    9.9411   -3.4995   24.6908 N   0  0  0  0  0  0  0  0  0  0  0  0
   10.0172   -4.4937   17.3788 C   0  0  0  0  0  0  0  0  0  0  0  0
    6.9084   -7.8869   16.3889 C   0  0  0  0  0  0  0  0  0  0  0  0
    9.0067   -6.3450   17.9227 N   0  0  0  0  0  0  0  0  0  0  0  0
   10.6265   -3.9404   22.4216 C   0  0  0  0  0  0  0  0  0  0  0  0
   11.0539   -3.0432   18.8877 C   0  0  0  0  0  0  0  0  0  0  0  0
    5.6008   -7.8265   16.1258 O   0  0  0  0  0  0  0  0  0  0  0  0
    9.7194   -5.3190   18.3925 C   0  0  0  0  0  0  0  0  0  0  0  0
    9.4540   -5.0637   16.2643 N   0  0  0  0  0  0  0  0  0  0  0  0
    5.0500   -8.8503   16.7700 C   0  0  0  0  0  0  0  0  0  0  0  0
    8.7840   -6.1686   16.6946 C   0  0  0  0  0  0  0  0  0  0  0  0
   10.9612   -3.4984   21.2000 O   0  0  0  0  0  0  0  0  0  0  0  0
    1.4793   -8.6436   16.2685 C   0  0  0  0  0  0  0  0  0  0  0  0
    9.2459   -1.3064   25.3783 C   0  0  0  0  0  0  0  0  0  0  0  0
    1.8849  -10.3773   17.7291 N   0  0  0  0  0  0  0  0  0  0  0  0
    9.5906   -0.7413   24.1019 C   0  0  0  0  0  0  0  0  0  0  0  0
    7.0784   -8.9984   17.0994 C   0  0  0  0  0  0  0  0  0  0  0  0
    3.1979  -10.1073   17.6434 C   0  0  0  0  0  0  0  0  0  0  0  0
    2.7512   -8.3191   16.1833 C   0  0  0  0  0  0  0  0  0  0  0  0
    9.4533   -2.6810   25.7263 C   0  0  0  0  0  0  0  0  0  0  0  0
   10.1139   -1.6166   23.1561 C   0  0  0  0  0  0  0  0  0  0  0  0
    1.0630   -9.6382   17.0001 C   0  0  0  0  0  0  0  0  0  0  0  0
    3.6281   -9.1006   16.8677 C   0  0  0  0  0  0  0  0  0  0  0  0
    7.8736   -6.9829   15.8862 C   0  0  0  0  0  0  0  0  0  0  0  0
    6.0058   -9.5834   17.3546 N   0  0  0  0  0  0  0  0  0  0  0  0
   10.1932   -2.9702   23.4697 C   0  0  0  0  0  0  0  0  0  0  0  0
   10.7517   -3.8760   19.9253 C   0  0  0  0  0  0  0  0  0  0  0  0
   10.1220   -5.0464   19.6705 C   0  0  0  0  0  0  0  0  0  0  0  0
  1  3  4  0
  1  7  4  0
  2 21  4  0
  2 27  4  0
  3  9  4  0
  3 10  4  0
  4  8  4  0
  4 18  4  0
  4 25  1  0
  5  8  1  0
  5  9  4  0
  5 12  4  0
  6 13  1  0
  6 27  1  0
  7 21  3  0
  7 28  4  0
  8 11  4  0
  9 29  4  0
 10 12  4  0
 11 24  1  0
 11 26  4  0
 12 25  1  0
 13 28  1  0
 14 20  4  0
 14 23  4  0
 15 17  4  0
 15 21  4  0
 16 19  4  0
 16 23  4  0
 18 26  4  0
 19 24  4  0
 20 24  4  0
 22 27  4  0
 28 29  4  0
M  END
$$$$

 Created by Python create_sdf_string function

 29 33  0  0  0  0  0  0  0  0999 V2000
   10.7103   -3.3416   17.6282 C   0  0  0  0  0  0  0  0  0  0  0  0
    9.9381   -3.4945   24.6859 N   0  0  0  0  0  0  0  0  0  0  0  0
   10.0141   -4.4917   17.3810 C   0  0  0  0  0  0  0  0  0  0  0  0
    6.9063   -7.9081   16.3837 C   0  0  0  0  0  0  0  0  0  0  0  0
    9.0055   -6.3583   17.9501 N   0  0  0  0  0  0  0  0  0  0  0  0
   10.6318   -3.9275   22.4211 C   0  0  0  0  0  0  0  0  0  0  0  0
   11.0597   -3.0297   18.8777 C   0  0  0  0  0  0  0  0  0  0  0  0
    5.6183   -7.8533   16.1404 O   0  0  0  0  0  0  0  0  0  0  0  0
    9.7278   -5.3239   18.4191 C   0  0  0  0  0  0  0  0  0  0  0  0
    9.4585   -5.0462   16.2753 N   0  0  0  0  0  0  0  0  0  0  0  0
    5.0324   -8.8723   16.7910 C   0  0  0  0  0  0  0  0  0  0  0  0
    8.7811   -6.1562   16.6649 C   0  0  0  0  0  0  0  0  0  0  0  0
   10.9555   -3.4740   21.2086 O   0  0  0  0  0  0  0  0  0  0  0  0
    1.4730   -8.6366   16.2670 C   0  0  0  0  0  0  0  0  0  0  0  0
    9.2529   -1.2915   25.3823 C   0  0  0  0  0  0  0  0  0  0  0  0
    1.9037  -10.3807   17.7311 N   0  0  0  0  0  0  0  0  0  0  0  0
    9.5936   -0.7371   24.1123 C   0  0  0  0  0  0  0  0  0  0  0  0
    7.0892   -8.9843   17.1064 C   0  0  0  0  0  0  0  0  0  0  0  0
    3.1833  -10.1293   17.6538 C   0  0  0  0  0  0  0  0  0  0  0  0
    2.7666   -8.3345   16.1854 C   0  0  0  0  0  0  0  0  0  0  0  0
    9.4516   -2.6676   25.6964 C   0  0  0  0  0  0  0  0  0  0  0  0
   10.1046   -1.6153   23.1436 C   0  0  0  0  0  0  0  0  0  0  0  0
    1.0625   -9.6578   17.0272 C   0  0  0  0  0  0  0  0  0  0  0  0
    3.6571   -9.1139   16.8747 C   0  0  0  0  0  0  0  0  0  0  0  0
    7.8729   -6.9802   15.8901 C   0  0  0  0  0  0  0  0  0  0  0  0
    5.9803   -9.5952   17.3550 N   0  0  0  0  0  0  0  0  0  0  0  0
   10.2126   -2.9697   23.4576 C   0  0  0  0  0  0  0  0  0  0  0  0
   10.7381   -3.8636   19.9287 C   0  0  0  0  0  0  0  0  0  0  0  0
   10.1219   -5.0350   19.6735 C   0  0  0  0  0  0  0  0  0  0  0  0
  1  3  4  0
  1  7  4  0
  2 21  4  0
  2 27  4  0
  3  9  4  0
  3 10  4  0
  4  8  4  0
  4 18  4  0
  4 25  1  0
  5  9  4  0
  5 12  4  0
  6 13  1  0
  6 27  1  0
  7 28  4  0
  8 11  4  0
  9 29  4  0
 10 12  4  0
 11 24  1  0
 11 26  4  0
 12 25  1  0
 13 28  1  0
 14 20  4  0
 14 23  4  0
 15 17  4  0
 15 21  4  0
 16 19  4  0
 16 23  4  0
 17 22  4  0
 18 26  4  0
 19 24  4  0
 20 24  4  0
 22 27  4  0
 28 29  4  0
M  END
$$$$

 Created by Python create_sdf_string function

 29 31  0  0  0  0  0  0  0  0999 V2000
   10.6974   -3.3373   17.6339 C   0  0  0  0  0  0  0  0  0  0  0  0
    9.9443   -3.5082   24.6848 N   0  0  0  0  0  0  0  0  0  0  0  0
   10.0265   -4.4746   17.3866 C   0  0  0  0  0  0  0  0  0  0  0  0
    6.8934   -7.9014   16.3746 C   0  0  0  0  0  0  0  0  0  0  0  0
    8.9778   -6.3942   17.9697 N   0  0  0  0  0  0  0  0  0  0  0  0
   10.6354   -3.9469   22.4427 C   0  0  0  0  0  0  0  0  0  0  0  0
   11.0562   -3.0435   18.8927 C   0  0  0  0  0  0  0  0  0  0  0  0
    5.6131   -7.8404   16.1556 O   0  0  0  0  0  0  0  0  0  0  0  0
    9.7272   -5.3118   18.4241 C   0  0  0  0  0  0  0  0  0  0  0  0
    9.4503   -5.0453   16.2711 N   0  0  0  0  0  0  0  0  0  0  0  0
    5.0286   -8.8729   16.7846 C   0  0  0  0  0  0  0  0  0  0  0  0
    8.7897   -6.1826   16.6751 C   0  0  0  0  0  0  0  0  0  0  0  0
   10.9556   -3.4821   21.1846 O   0  0  0  0  0  0  0  0  0  0  0  0
    1.4739   -8.6167   16.2674 C   0  0  0  0  0  0  0  0  0  0  0  0
    9.2392   -1.2740   25.3723 C   0  0  0  0  0  0  0  0  0  0  0  0
    1.9179  -10.3729   17.7322 N   0  0  0  0  0  0  0  0  0  0  0  0
    9.6056   -0.7223   24.1213 C   0  0  0  0  0  0  0  0  0  0  0  0
    7.0949   -8.9801   17.0766 C   0  0  0  0  0  0  0  0  0  0  0  0
    3.1741  -10.1300   17.6154 C   0  0  0  0  0  0  0  0  0  0  0  0
    2.7659   -8.3457   16.2001 C   0  0  0  0  0  0  0  0  0  0  0  0
    9.4472   -2.6663   25.7095 C   0  0  0  0  0  0  0  0  0  0  0  0
   10.1080   -1.5928   23.1545 C   0  0  0  0  0  0  0  0  0  0  0  0
    1.0594   -9.6561   17.0467 C   0  0  0  0  0  0  0  0  0  0  0  0
    3.6388   -9.1208   16.8589 C   0  0  0  0  0  0  0  0  0  0  0  0
    7.8611   -6.9865   15.8870 C   0  0  0  0  0  0  0  0  0  0  0  0
    5.9511   -9.6127   17.3599 N   0  0  0  0  0  0  0  0  0  0  0  0
   10.2105   -2.9798   23.4520 C   0  0  0  0  0  0  0  0  0  0  0  0
   10.1326   -5.0507   19.6587 C   0  0  0  0  0  0  0  0  0  0  0  0
   10.7493   -3.8543   19.9223 He  0  0  0  0  0  0  0  0  0  0  0  0
  1  3  4  0
  1  7  4  0
  2 21  4  0
  2 27  4  0
  3  9  4  0
  3 10  4  0
  4  8  4  0
  4 18  4  0
  4 25  1  0
  5  9  4  0
  5 12  4  0
  6 13  1  0
  6 27  1  0
  8 11  4  0
  9 28  4  0
 10 12  4  0
 11 24  1  0
 11 26  4  0
 12 25  1  0
 14 15  4  0
 14 20  4  0
 14 23  4  0
 15 17  4  0
 15 21  4  0
 16 19  4  0
 16 23  4  0
 17 22  4  0
 18 26  4  0
 19 24  4  0
 20 24  4  0
 22 27  4  0
M  END
$$$$

 Created by Python create_sdf_string function

 29 33  0  0  0  0  0  0  0  0999 V2000
   10.7113   -3.3378   17.6391 C   0  0  0  0  0  0  0  0  0  0  0  0
    9.9364   -3.4803   24.6831 N   0  0  0  0  0  0  0  0  0  0  0  0
   10.0169   -4.4836   17.3944 C   0  0  0  0  0  0  0  0  0  0  0  0
    6.9049   -7.9176   16.3865 C   0  0  0  0  0  0  0  0  0  0  0  0
    8.9957   -6.3720   17.9617 N   0  0  0  0  0  0  0  0  0  0  0  0
   10.6442   -3.9166   22.4223 C   0  0  0  0  0  0  0  0  0  0  0  0
   11.0587   -3.0280   18.8932 C   0  0  0  0  0  0  0  0  0  0  0  0
    5.6101   -7.8626   16.1545 O   0  0  0  0  0  0  0  0  0  0  0  0
    9.7292   -5.3268   18.4359 C   0  0  0  0  0  0  0  0  0  0  0  0
    9.4564   -5.0396   16.2896 N   0  0  0  0  0  0  0  0  0  0  0  0
    5.0196   -8.8885   16.7946 C   0  0  0  0  0  0  0  0  0  0  0  0
    8.7737   -6.1687   16.6641 C   0  0  0  0  0  0  0  0  0  0  0  0
   10.9530   -3.4548   21.1961 O   0  0  0  0  0  0  0  0  0  0  0  0
    1.4681   -8.6266   16.2789 C   0  0  0  0  0  0  0  0  0  0  0  0
    9.2534   -1.2755   25.3760 C   0  0  0  0  0  0  0  0  0  0  0  0
    1.9096  -10.3867   17.7320 N   0  0  0  0  0  0  0  0  0  0  0  0
    9.6057   -0.7166   24.1174 C   0  0  0  0  0  0  0  0  0  0  0  0
    7.0749   -8.9993   17.0995 C   0  0  0  0  0  0  0  0  0  0  0  0
    3.1846  -10.1490   17.6355 C   0  0  0  0  0  0  0  0  0  0  0  0
    2.7690   -8.3519   16.1963 C   0  0  0  0  0  0  0  0  0  0  0  0
    9.4437   -2.6515   25.6905 C   0  0  0  0  0  0  0  0  0  0  0  0
   10.1074   -1.5932   23.1376 C   0  0  0  0  0  0  0  0  0  0  0  0
    1.0583   -9.6460   17.0450 C   0  0  0  0  0  0  0  0  0  0  0  0
    3.6534   -9.1357   16.8770 C   0  0  0  0  0  0  0  0  0  0  0  0
    7.8669   -6.9876   15.9020 C   0  0  0  0  0  0  0  0  0  0  0  0
    5.9635   -9.6190   17.3558 N   0  0  0  0  0  0  0  0  0  0  0  0
   10.2173   -2.9531   23.4535 C   0  0  0  0  0  0  0  0  0  0  0  0
   10.7346   -3.8584   19.9324 C   0  0  0  0  0  0  0  0  0  0  0  0
   10.1330   -5.0337   19.6874 C   0  0  0  0  0  0  0  0  0  0  0  0
  1  3  4  0
  1  7  4  0
  2 21  4  0
  2 27  4  0
  3  9  4  0
  3 10  4  0
  4  8  4  0
  4 18  4  0
  4 25  1  0
  5  9  4  0
  5 12  4  0
  6 13  1  0
  6 27  1  0
  7 28  4  0
  8 11  4  0
  9 29  4  0
 10 12  4  0
 11 24  1  0
 11 26  4  0
 12 25  1  0
 13 28  1  0
 14 20  4  0
 14 23  4  0
 15 17  4  0
 15 21  4  0
 16 19  4  0
 16 23  4  0
 17 22  4  0
 18 26  4  0
 19 24  4  0
 20 24  4  0
 22 27  4  0
 28 29  4  0
M  END
$$$$

 Created by Python create_sdf_string function

 29 34  0  0  0  0  0  0  0  0999 V2000
   10.7007   -3.3292   17.6417 C   0  0  0  0  0  0  0  0  0  0  0  0
    9.9336   -3.4983   24.6730 N   0  0  0  0  0  0  0  0  0  0  0  0
   10.0149   -4.4780   17.3894 C   0  0  0  0  0  0  0  0  0  0  0  0
    6.9144   -7.9129   16.3964 C   0  0  0  0  0  0  0  0  0  0  0  0
    8.9942   -6.3535   17.9645 N   0  0  0  0  0  0  0  0  0  0  0  0
   10.6520   -3.9384   22.4067 C   0  0  0  0  0  0  0  0  0  0  0  0
   11.0477   -3.0333   18.8842 C   0  0  0  0  0  0  0  0  0  0  0  0
    5.6000   -7.8553   16.1451 O   0  0  0  0  0  0  0  0  0  0  0  0
    9.7124   -5.3299   18.4362 C   0  0  0  0  0  0  0  0  0  0  0  0
    9.4514   -5.0294   16.2774 N   0  0  0  0  0  0  0  0  0  0  0  0
    5.0196   -8.8863   16.7953 C   0  0  0  0  0  0  0  0  0  0  0  0
    8.7861   -6.1731   16.6556 C   0  0  0  0  0  0  0  0  0  0  0  0
   10.9518   -3.4662   21.2112 O   0  0  0  0  0  0  0  0  0  0  0  0
    1.4594   -8.6247   16.2646 C   0  0  0  0  0  0  0  0  0  0  0  0
    9.2549   -1.2911   25.3840 C   0  0  0  0  0  0  0  0  0  0  0  0
    1.8866  -10.3727   17.7416 N   0  0  0  0  0  0  0  0  0  0  0  0
    9.6065   -0.6966   24.1294 C   0  0  0  0  0  0  0  0  0  0  0  0
    7.0909   -9.0007   17.1137 C   0  0  0  0  0  0  0  0  0  0  0  0
    3.1940  -10.1356   17.6304 C   0  0  0  0  0  0  0  0  0  0  0  0
    2.7753   -8.3656   16.2102 C   0  0  0  0  0  0  0  0  0  0  0  0
    9.4468   -2.6492   25.6947 C   0  0  0  0  0  0  0  0  0  0  0  0
   10.1268   -1.5905   23.1323 C   0  0  0  0  0  0  0  0  0  0  0  0
    1.0582   -9.6331   17.0531 C   0  0  0  0  0  0  0  0  0  0  0  0
    3.6625   -9.1356   16.8971 C   0  0  0  0  0  0  0  0  0  0  0  0
    7.8755   -6.9970   15.9146 C   0  0  0  0  0  0  0  0  0  0  0  0
    5.9608   -9.6366   17.3653 N   0  0  0  0  0  0  0  0  0  0  0  0
   10.2146   -2.9503   23.4530 C   0  0  0  0  0  0  0  0  0  0  0  0
   10.7474   -3.8812   19.9258 C   0  0  0  0  0  0  0  0  0  0  0  0
   10.1243   -5.0322   19.6844 C   0  0  0  0  0  0  0  0  0  0  0  0
  1  3  4  0
  1  7  4  0
  2 21  4  0
  2 27  4  0
  3  9  4  0
  3 10  4  0
  4  8  4  0
  4 18  4  0
  4 25  1  0
  5  9  4  0
  5 12  4  0
  6 13  1  0
  6 27  1  0
  7 28  4  0
  8 11  4  0
  9 19  4  0
  9 29  4  0
 10 12  4  0
 11 24  1  0
 11 26  4  0
 12 25  1  0
 13 28  1  0
 14 20  4  0
 14 23  4  0
 15 17  4  0
 15 21  4  0
 16 19  4  0
 16 23  4  0
 17 22  4  0
 18 26  4  0
 19 24  4  0
 20 24  4  0
 22 27  4  0
 28 29  4  0
M  END
$$$$

 Created by Python create_sdf_string function

 29 33  0  0  0  0  0  0  0  0999 V2000
   10.7061   -3.3374   17.6418 C   0  0  0  0  0  0  0  0  0  0  0  0
    9.9326   -3.4790   24.6676 N   0  0  0  0  0  0  0  0  0  0  0  0
   10.0128   -4.4813   17.4044 C   0  0  0  0  0  0  0  0  0  0  0  0
    6.9084   -7.9292   16.4038 C   0  0  0  0  0  0  0  0  0  0  0  0
    8.9962   -6.3590   17.9610 N   0  0  0  0  0  0  0  0  0  0  0  0
   10.6577   -3.9271   22.4088 C   0  0  0  0  0  0  0  0  0  0  0  0
   11.0567   -3.0228   18.8881 C   0  0  0  0  0  0  0  0  0  0  0  0
    5.6106   -7.8802   16.1577 O   0  0  0  0  0  0  0  0  0  0  0  0
    9.7233   -5.3185   18.4353 C   0  0  0  0  0  0  0  0  0  0  0  0
    9.4591   -5.0264   16.2953 N   0  0  0  0  0  0  0  0  0  0  0  0
    5.0276   -8.9031   16.8052 C   0  0  0  0  0  0  0  0  0  0  0  0
    8.7746   -6.1606   16.6673 C   0  0  0  0  0  0  0  0  0  0  0  0
   10.9490   -3.4420   21.2083 O   0  0  0  0  0  0  0  0  0  0  0  0
    1.4739   -8.6233   16.2749 C   0  0  0  0  0  0  0  0  0  0  0  0
    9.2655   -1.2773   25.3780 C   0  0  0  0  0  0  0  0  0  0  0  0
    1.8989  -10.3800   17.7437 N   0  0  0  0  0  0  0  0  0  0  0  0
    9.6148   -0.7012   24.1147 C   0  0  0  0  0  0  0  0  0  0  0  0
    7.0763   -9.0086   17.1240 C   0  0  0  0  0  0  0  0  0  0  0  0
    3.1783  -10.1587   17.6542 C   0  0  0  0  0  0  0  0  0  0  0  0
    2.7807   -8.3682   16.2076 C   0  0  0  0  0  0  0  0  0  0  0  0
    9.4481   -2.6542   25.6731 C   0  0  0  0  0  0  0  0  0  0  0  0
   10.1221   -1.5813   23.1299 C   0  0  0  0  0  0  0  0  0  0  0  0
    1.0619   -9.6351   17.0549 C   0  0  0  0  0  0  0  0  0  0  0  0
    3.6598   -9.1505   16.8917 C   0  0  0  0  0  0  0  0  0  0  0  0
    7.8755   -6.9985   15.9184 C   0  0  0  0  0  0  0  0  0  0  0  0
    5.9721   -9.6357   17.3675 N   0  0  0  0  0  0  0  0  0  0  0  0
   10.2260   -2.9488   23.4400 C   0  0  0  0  0  0  0  0  0  0  0  0
   10.7361   -3.8510   19.9422 C   0  0  0  0  0  0  0  0  0  0  0  0
   10.1218   -5.0294   19.6883 C   0  0  0  0  0  0  0  0  0  0  0  0
  1  3  4  0
  1  7  4  0
  2 21  4  0
  2 27  4  0
  3  9  4  0
  3 10  4  0
  4  8  4  0
  4 18  4  0
  4 25  1  0
  5  9  4  0
  5 12  4  0
  6 13  1  0
  6 27  1  0
  7 28  4  0
  8 11  4  0
  9 29  4  0
 10 12  4  0
 11 24  1  0
 11 26  4  0
 12 25  1  0
 13 28  1  0
 14 20  4  0
 14 23  4  0
 15 17  4  0
 15 21  4  0
 16 19  4  0
 16 23  4  0
 17 22  4  0
 18 26  4  0
 19 24  4  0
 20 24  4  0
 22 27  4  0
 28 29  4  0
M  END
$$$$

 Created by Python create_sdf_string function

 29 33  0  0  0  0  0  0  0  0999 V2000
   10.7125   -3.3325   17.6372 C   0  0  0  0  0  0  0  0  0  0  0  0
    9.9382   -3.4739   24.6652 N   0  0  0  0  0  0  0  0  0  0  0  0
   10.0101   -4.4909   17.3999 C   0  0  0  0  0  0  0  0  0  0  0  0
    6.9076   -7.9344   16.3967 C   0  0  0  0  0  0  0  0  0  0  0  0
    9.0036   -6.3502   17.9598 N   0  0  0  0  0  0  0  0  0  0  0  0
   10.6559   -3.9237   22.4015 C   0  0  0  0  0  0  0  0  0  0  0  0
   11.0534   -3.0251   18.8937 C   0  0  0  0  0  0  0  0  0  0  0  0
    5.6092   -7.8874   16.1695 O   0  0  0  0  0  0  0  0  0  0  0  0
    9.7104   -5.3120   18.4443 C   0  0  0  0  0  0  0  0  0  0  0  0
    9.4652   -5.0258   16.2852 N   0  0  0  0  0  0  0  0  0  0  0  0
    5.0200   -8.8970   16.8030 C   0  0  0  0  0  0  0  0  0  0  0  0
    8.7652   -6.1547   16.6744 C   0  0  0  0  0  0  0  0  0  0  0  0
   10.9451   -3.4303   21.2052 O   0  0  0  0  0  0  0  0  0  0  0  0
    1.4637   -8.6217   16.2798 C   0  0  0  0  0  0  0  0  0  0  0  0
    9.2634   -1.2807   25.3668 C   0  0  0  0  0  0  0  0  0  0  0  0
    1.8871  -10.3837   17.7449 N   0  0  0  0  0  0  0  0  0  0  0  0
    9.6178   -0.7018   24.1218 Se  0  0  0  0  0  0  0  0  0  0  0  0
    7.0748   -9.0105   17.1326 C   0  0  0  0  0  0  0  0  0  0  0  0
    3.1664  -10.1603   17.6492 C   0  0  0  0  0  0  0  0  0  0  0  0
    2.7840   -8.3661   16.2123 C   0  0  0  0  0  0  0  0  0  0  0  0
    9.4600   -2.6500   25.6750 C   0  0  0  0  0  0  0  0  0  0  0  0
   10.1111   -1.5907   23.1275 C   0  0  0  0  0  0  0  0  0  0  0  0
    1.0472   -9.6343   17.0657 C   0  0  0  0  0  0  0  0  0  0  0  0
    3.6585   -9.1674   16.8844 C   0  0  0  0  0  0  0  0  0  0  0  0
    7.8667   -6.9981   15.9195 C   0  0  0  0  0  0  0  0  0  0  0  0
    5.9779   -9.6407   17.3692 N   0  0  0  0  0  0  0  0  0  0  0  0
   10.2342   -2.9447   23.4562 C   0  0  0  0  0  0  0  0  0  0  0  0
   10.7362   -3.8470   19.9409 C   0  0  0  0  0  0  0  0  0  0  0  0
   10.1207   -5.0333   19.6868 C   0  0  0  0  0  0  0  0  0  0  0  0
  1  3  4  0
  2 21  4  0
  2 27  4  0
  3  9  4  0
  3 10  4  0
  4  8  4  0
  4 18  4  0
  4 25  1  0
  5  9  4  0
  5 12  4  0
  6  8  3  0
  6 13  1  0
  6 27  1  0
  7 28  4  0
  8 11  4  0
  9 29  4  0
 10 12  4  0
 11 24  1  0
 11 26  4  0
 12 25  1  0
 13 28  1  0
 14 20  4  0
 14 23  4  0
 15 17  4  0
 15 21  4  0
 16 19  4  0
 16 23  4  0
 17 22  4  0
 18 26  4  0
 19 24  4  0
 20 24  4  0
 22 27  4  0
 28 29  4  0
M  END
$$$$

 Created by Python create_sdf_string function

 29 33  0  0  0  0  0  0  0  0999 V2000
   10.7176   -3.3350   17.6402 C   0  0  0  0  0  0  0  0  0  0  0  0
    9.9448   -3.4761   24.6625 N   0  0  0  0  0  0  0  0  0  0  0  0
   10.0152   -4.4806   17.4040 C   0  0  0  0  0  0  0  0  0  0  0  0
    6.9018   -7.9461   16.4108 C   0  0  0  0  0  0  0  0  0  0  0  0
    8.9955   -6.3553   17.9646 N   0  0  0  0  0  0  0  0  0  0  0  0
   10.6614   -3.9124   22.4086 C   0  0  0  0  0  0  0  0  0  0  0  0
   11.0622   -3.0111   18.8906 C   0  0  0  0  0  0  0  0  0  0  0  0
    5.6160   -7.9036   16.1691 O   0  0  0  0  0  0  0  0  0  0  0  0
    9.7222   -5.3149   18.4446 C   0  0  0  0  0  0  0  0  0  0  0  0
    9.4599   -5.0259   16.2987 N   0  0  0  0  0  0  0  0  0  0  0  0
    5.0268   -8.9236   16.8141 C   0  0  0  0  0  0  0  0  0  0  0  0
    8.7719   -6.1522   16.6735 C   0  0  0  0  0  0  0  0  0  0  0  0
   10.9400   -3.4167   21.2049 O   0  0  0  0  0  0  0  0  0  0  0  0
    1.4718   -8.6240   16.2872 C   0  0  0  0  0  0  0  0  0  0  0  0
    9.2761   -1.2772   25.3632 C   0  0  0  0  0  0  0  0  0  0  0  0
    1.8883  -10.3921   17.7491 N   0  0  0  0  0  0  0  0  0  0  0  0
    9.6220   -0.7130   24.1100 C   0  0  0  0  0  0  0  0  0  0  0  0
    7.0769   -9.0122   17.1345 C   0  0  0  0  0  0  0  0  0  0  0  0
    3.1691  -10.1740   17.6588 C   0  0  0  0  0  0  0  0  0  0  0  0
    2.7828   -8.3777   16.2121 C   0  0  0  0  0  0  0  0  0  0  0  0
    9.4610   -2.6549   25.6583 C   0  0  0  0  0  0  0  0  0  0  0  0
   10.1129   -1.5790   23.1279 C   0  0  0  0  0  0  0  0  0  0  0  0
    1.0504   -9.6345   17.0643 C   0  0  0  0  0  0  0  0  0  0  0  0
    3.6536   -9.1671   16.8987 C   0  0  0  0  0  0  0  0  0  0  0  0
    7.8666   -7.0013   15.9297 C   0  0  0  0  0  0  0  0  0  0  0  0
    5.9733   -9.6457   17.3761 N   0  0  0  0  0  0  0  0  0  0  0  0
   10.2353   -2.9463   23.4384 C   0  0  0  0  0  0  0  0  0  0  0  0
   10.7288   -3.8361   19.9538 C   0  0  0  0  0  0  0  0  0  0  0  0
   10.1170   -5.0204   19.6961 C   0  0  0  0  0  0  0  0  0  0  0  0
  1  3  4  0
  1  7  4  0
  2 21  4  0
  2 27  4  0
  3  9  4  0
  3 10  4  0
  4  8  4  0
  4 18  4  0
  4 25  1  0
  5  9  4  0
  5 12  4  0
  6 13  1  0
  6 27  1  0
  7 28  4  0
  8 11  4  0
  9 29  4  0
 10 12  4  0
 11 24  1  0
 11 26  4  0
 12 25  1  0
 13 28  1  0
 14 20  4  0
 14 23  4  0
 15 17  4  0
 15 21  4  0
 16 19  4  0
 16 23  4  0
 17 22  4  0
 18 26  4  0
 19 24  4  0
 20 24  4  0
 22 27  4  0
 28 29  4  0
M  END
$$$$

 Created by Python create_sdf_string function

 29 34  0  0  0  0  0  0  0  0999 V2000
   10.7184   -3.3359   17.6410 C   0  0  0  0  0  0  0  0  0  0  0  0
    9.9435   -3.4789   24.6608 N   0  0  0  0  0  0  0  0  0  0  0  0
   10.0083   -4.4757   17.4004 C   0  0  0  0  0  0  0  0  0  0  0  0
    6.9041   -7.9451   16.4115 C   0  0  0  0  0  0  0  0  0  0  0  0
    8.9937   -6.3606   17.9643 N   0  0  0  0  0  0  0  0  0  0  0  0
   10.6634   -3.9151   22.4096 C   0  0  0  0  0  0  0  0  0  0  0  0
   11.0624   -3.0057   18.8908 C   0  0  0  0  0  0  0  0  0  0  0  0
    5.6176   -7.8971   16.1711 O   0  0  0  0  0  0  0  0  0  0  0  0
    9.7232   -5.3117   18.4426 C   0  0  0  0  0  0  0  0  0  0  0  0
    9.4585   -5.0208   16.2954 N   0  0  0  0  0  0  0  0  0  0  0  0
    5.0276   -8.9316   16.8105 C   0  0  0  0  0  0  0  0  0  0  0  0
    8.7739   -6.1530   16.6788 C   0  0  0  0  0  0  0  0  0  0  0  0
   10.9442   -3.4170   21.2056 O   0  0  0  0  0  0  0  0  0  0  0  0
    1.4710   -8.6229   16.2899 C   0  0  0  0  0  0  0  0  0  0  0  0
    9.2804   -1.2827   25.3592 C   0  0  0  0  0  0  0  0  0  0  0  0
    1.8873  -10.3945   17.7486 N   0  0  0  0  0  0  0  0  0  0  0  0
    9.6171   -0.7073   24.1094 C   0  0  0  0  0  0  0  0  0  0  0  0
    7.0777   -9.0148   17.1387 C   0  0  0  0  0  0  0  0  0  0  0  0
    3.1626  -10.1736   17.6567 C   0  0  0  0  0  0  0  0  0  0  0  0
    2.7815   -8.3703   16.2067 C   0  0  0  0  0  0  0  0  0  0  0  0
    9.4602   -2.6572   25.6565 C   0  0  0  0  0  0  0  0  0  0  0  0
   10.1135   -1.5761   23.1284 C   0  0  0  0  0  0  0  0  0  0  0  0
    1.0483   -9.6350   17.0633 C   0  0  0  0  0  0  0  0  0  0  0  0
    3.6559   -9.1690   16.9034 C   0  0  0  0  0  0  0  0  0  0  0  0
    7.8657   -7.0045   15.9339 C   0  0  0  0  0  0  0  0  0  0  0  0
    5.9726   -9.6462   17.3748 N   0  0  0  0  0  0  0  0  0  0  0  0
   10.2390   -2.9412   23.4410 C   0  0  0  0  0  0  0  0  0  0  0  0
   10.7272   -3.8318   19.9538 C   0  0  0  0  0  0  0  0  0  0  0  0
   10.1189   -5.0199   19.6927 C   0  0  0  0  0  0  0  0  0  0  0  0
  1  3  4  0
  1  7  4  0
  2 21  4  0
  2 24  1  0
  2 27  4  0
  3  9  4  0
  3 10  4  0
  4  8  4  0
  4 18  4  0
  4 25  1  0
  5  9  4  0
  5 12  4  0
  6 13  1  0
  6 27  1  0
  7 28  4  0
  8 11  4  0
  9 29  4  0
 10 12  4  0
 11 24  1  0
 11 26  4  0
 12 25  1  0
 13 28  1  0
 14 20  4  0
 14 23  4  0
 15 17  4  0
 15 21  4  0
 16 19  4  0
 16 23  4  0
 17 22  4  0
 18 26  4  0
 19 24  4  0
 20 24  4  0
 22 27  4  0
 28 29  4  0
M  END
$$$$

 Created by Python create_sdf_string function

 29 33  0  0  0  0  0  0  0  0999 V2000
   10.7215   -3.3326   17.6437 C   0  0  0  0  0  0  0  0  0  0  0  0
    9.9489   -3.4675   24.6487 N   0  0  0  0  0  0  0  0  0  0  0  0
   10.0172   -4.4740   17.4101 C   0  0  0  0  0  0  0  0  0  0  0  0
    6.9051   -7.9575   16.4222 C   0  0  0  0  0  0  0  0  0  0  0  0
    8.9969   -6.3552   17.9668 N   0  0  0  0  0  0  0  0  0  0  0  0
   10.6702   -3.9051   22.4070 C   0  0  0  0  0  0  0  0  0  0  0  0
   11.0625   -3.0028   18.8894 C   0  0  0  0  0  0  0  0  0  0  0  0
    5.6180   -7.9194   16.1754 O   0  0  0  0  0  0  0  0  0  0  0  0
    9.7259   -5.3080   18.4485 C   0  0  0  0  0  0  0  0  0  0  0  0
    9.4578   -5.0200   16.3036 N   0  0  0  0  0  0  0  0  0  0  0  0
    5.0287   -8.9365   16.8223 C   0  0  0  0  0  0  0  0  0  0  0  0
    8.7742   -6.1498   16.6764 C   0  0  0  0  0  0  0  0  0  0  0  0
   10.9418   -3.4032   21.2053 O   0  0  0  0  0  0  0  0  0  0  0  0
    1.4797   -8.6258   16.2950 C   0  0  0  0  0  0  0  0  0  0  0  0
    9.2861   -1.2743   25.3585 C   0  0  0  0  0  0  0  0  0  0  0  0
    1.8892  -10.3985   17.7511 N   0  0  0  0  0  0  0  0  0  0  0  0
    9.6210   -0.6952   24.0976 C   0  0  0  0  0  0  0  0  0  0  0  0
    7.0792   -9.0217   17.1429 C   0  0  0  0  0  0  0  0  0  0  0  0
    3.1713  -10.1816   17.6634 C   0  0  0  0  0  0  0  0  0  0  0  0
    2.7878   -8.3822   16.2137 C   0  0  0  0  0  0  0  0  0  0  0  0
    9.4601   -2.6590   25.6528 C   0  0  0  0  0  0  0  0  0  0  0  0
   10.1182   -1.5672   23.1165 C   0  0  0  0  0  0  0  0  0  0  0  0
    1.0552   -9.6360   17.0650 C   0  0  0  0  0  0  0  0  0  0  0  0
    3.6519   -9.1783   16.9039 C   0  0  0  0  0  0  0  0  0  0  0  0
    7.8675   -7.0096   15.9415 C   0  0  0  0  0  0  0  0  0  0  0  0
    5.9733   -9.6553   17.3832 N   0  0  0  0  0  0  0  0  0  0  0  0
   10.2411   -2.9363   23.4301 C   0  0  0  0  0  0  0  0  0  0  0  0
   10.7288   -3.8197   19.9525 C   0  0  0  0  0  0  0  0  0  0  0  0
   10.1189   -5.0054   19.6987 C   0  0  0  0  0  0  0  0  0  0  0  0
  1  3  4  0
  1  7  4  0
  2 21  4  0
  2 27  4  0
  3  9  4  0
  3 10  4  0
  4  8  4  0
  4 18  4  0
  4 25  1  0
  5  9  4  0
  5 12  4  0
  6 13  1  0
  6 27  1  0
  7 28  4  0
  8 11  4  0
  9 29  4  0
 10 12  4  0
 11 24  1  0
 11 26  4  0
 12 25  1  0
 13 28  1  0
 14 20  4  0
 14 23  4  0
 15 17  4  0
 15 21  4  0
 16 19  4  0
 16 23  4  0
 17 22  4  0
 18 26  4  0
 19 24  4  0
 20 24  4  0
 22 27  4  0
 28 29  4  0
M  END
$$$$

 Created by Python create_sdf_string function

 29 33  0  0  0  0  0  0  0  0999 V2000
   10.7215   -3.3326   17.6437 C   0  0  0  0  0  0  0  0  0  0  0  0
    9.9489   -3.4675   24.6487 N   0  0  0  0  0  0  0  0  0  0  0  0
   10.0172   -4.4740   17.4101 C   0  0  0  0  0  0  0  0  0  0  0  0
    6.9051   -7.9575   16.4222 C   0  0  0  0  0  0  0  0  0  0  0  0
    8.9969   -6.3552   17.9668 N   0  0  0  0  0  0  0  0  0  0  0  0
   10.6702   -3.9051   22.4070 C   0  0  0  0  0  0  0  0  0  0  0  0
   11.0625   -3.0028   18.8894 C   0  0  0  0  0  0  0  0  0  0  0  0
    5.6180   -7.9194   16.1754 O   0  0  0  0  0  0  0  0  0  0  0  0
    9.7259   -5.3080   18.4485 C   0  0  0  0  0  0  0  0  0  0  0  0
    9.4578   -5.0200   16.3036 N   0  0  0  0  0  0  0  0  0  0  0  0
    5.0287   -8.9365   16.8223 C   0  0  0  0  0  0  0  0  0  0  0  0
    8.7742   -6.1498   16.6764 C   0  0  0  0  0  0  0  0  0  0  0  0
   10.9418   -3.4032   21.2053 O   0  0  0  0  0  0  0  0  0  0  0  0
    1.4797   -8.6258   16.2950 C   0  0  0  0  0  0  0  0  0  0  0  0
    9.2861   -1.2743   25.3585 C   0  0  0  0  0  0  0  0  0  0  0  0
    1.8892  -10.3985   17.7511 N   0  0  0  0  0  0  0  0  0  0  0  0
    9.6210   -0.6952   24.0976 C   0  0  0  0  0  0  0  0  0  0  0  0
    7.0792   -9.0217   17.1429 C   0  0  0  0  0  0  0  0  0  0  0  0
    3.1713  -10.1816   17.6634 C   0  0  0  0  0  0  0  0  0  0  0  0
    2.7878   -8.3822   16.2137 C   0  0  0  0  0  0  0  0  0  0  0  0
    9.4601   -2.6590   25.6528 C   0  0  0  0  0  0  0  0  0  0  0  0
   10.1182   -1.5672   23.1165 C   0  0  0  0  0  0  0  0  0  0  0  0
    1.0552   -9.6360   17.0650 C   0  0  0  0  0  0  0  0  0  0  0  0
    3.6519   -9.1783   16.9039 C   0  0  0  0  0  0  0  0  0  0  0  0
    7.8675   -7.0096   15.9415 C   0  0  0  0  0  0  0  0  0  0  0  0
    5.9733   -9.6553   17.3832 N   0  0  0  0  0  0  0  0  0  0  0  0
   10.2411   -2.9363   23.4301 C   0  0  0  0  0  0  0  0  0  0  0  0
   10.7288   -3.8197   19.9525 C   0  0  0  0  0  0  0  0  0  0  0  0
   10.1189   -5.0054   19.6987 C   0  0  0  0  0  0  0  0  0  0  0  0
  1  3  4  0
  1  7  4  0
  2 21  4  0
  2 27  4  0
  3  9  4  0
  3 10  4  0
  4  8  4  0
  4 18  4  0
  4 25  1  0
  5  9  4  0
  5 12  4  0
  6 13  1  0
  6 27  1  0
  7 28  4  0
  8 11  4  0
  9 29  4  0
 10 12  4  0
 11 24  1  0
 11 26  4  0
 12 25  1  0
 13 28  1  0
 14 20  4  0
 14 23  4  0
 15 17  4  0
 15 21  4  0
 16 19  4  0
 16 23  4  0
 17 22  4  0
 18 26  4  0
 19 24  4  0
 20 24  4  0
 22 27  4  0
 28 29  4  0
M  END
$$$$

 Created by Python create_sdf_string function

 29 33  0  0  0  0  0  0  0  0999 V2000
   10.7215   -3.3326   17.6437 C   0  0  0  0  0  0  0  0  0  0  0  0
    9.9489   -3.4675   24.6487 N   0  0  0  0  0  0  0  0  0  0  0  0
   10.0172   -4.4740   17.4101 C   0  0  0  0  0  0  0  0  0  0  0  0
    6.9051   -7.9575   16.4222 C   0  0  0  0  0  0  0  0  0  0  0  0
    8.9969   -6.3552   17.9668 N   0  0  0  0  0  0  0  0  0  0  0  0
   10.6702   -3.9051   22.4070 C   0  0  0  0  0  0  0  0  0  0  0  0
   11.0625   -3.0028   18.8894 C   0  0  0  0  0  0  0  0  0  0  0  0
    5.6180   -7.9194   16.1754 O   0  0  0  0  0  0  0  0  0  0  0  0
    9.7259   -5.3080   18.4485 C   0  0  0  0  0  0  0  0  0  0  0  0
    9.4578   -5.0200   16.3036 N   0  0  0  0  0  0  0  0  0  0  0  0
    5.0287   -8.9365   16.8223 C   0  0  0  0  0  0  0  0  0  0  0  0
    8.7742   -6.1498   16.6764 C   0  0  0  0  0  0  0  0  0  0  0  0
   10.9418   -3.4032   21.2053 O   0  0  0  0  0  0  0  0  0  0  0  0
    1.4797   -8.6258   16.2950 C   0  0  0  0  0  0  0  0  0  0  0  0
    9.2861   -1.2743   25.3585 C   0  0  0  0  0  0  0  0  0  0  0  0
    1.8892  -10.3985   17.7511 N   0  0  0  0  0  0  0  0  0  0  0  0
    9.6210   -0.6952   24.0976 C   0  0  0  0  0  0  0  0  0  0  0  0
    7.0792   -9.0217   17.1429 C   0  0  0  0  0  0  0  0  0  0  0  0
    3.1713  -10.1816   17.6634 C   0  0  0  0  0  0  0  0  0  0  0  0
    2.7878   -8.3822   16.2137 C   0  0  0  0  0  0  0  0  0  0  0  0
    9.4601   -2.6590   25.6528 C   0  0  0  0  0  0  0  0  0  0  0  0
   10.1182   -1.5672   23.1165 C   0  0  0  0  0  0  0  0  0  0  0  0
    1.0552   -9.6360   17.0650 C   0  0  0  0  0  0  0  0  0  0  0  0
    3.6519   -9.1783   16.9039 C   0  0  0  0  0  0  0  0  0  0  0  0
    7.8675   -7.0096   15.9415 C   0  0  0  0  0  0  0  0  0  0  0  0
    5.9733   -9.6553   17.3832 N   0  0  0  0  0  0  0  0  0  0  0  0
   10.2411   -2.9363   23.4301 C   0  0  0  0  0  0  0  0  0  0  0  0
   10.7288   -3.8197   19.9525 C   0  0  0  0  0  0  0  0  0  0  0  0
   10.1189   -5.0054   19.6987 C   0  0  0  0  0  0  0  0  0  0  0  0
  1  3  4  0
  1  7  4  0
  2 21  4  0
  2 27  4  0
  3  9  4  0
  3 10  4  0
  4  8  4  0
  4 18  4  0
  4 25  1  0
  5  9  4  0
  5 12  4  0
  6 13  1  0
  6 27  1  0
  7 28  4  0
  8 11  4  0
  9 29  4  0
 10 12  4  0
 11 24  1  0
 11 26  4  0
 12 25  1  0
 13 28  1  0
 14 20  4  0
 14 23  4  0
 15 17  4  0
 15 21  4  0
 16 19  4  0
 16 23  4  0
 17 22  4  0
 18 26  4  0
 19 24  4  0
 20 24  4  0
 22 27  4  0
 28 29  4  0
M  END
$$$$

 Created by Python create_sdf_string function

 29 33  0  0  0  0  0  0  0  0999 V2000
   10.7215   -3.3326   17.6437 C   0  0  0  0  0  0  0  0  0  0  0  0
    9.9489   -3.4675   24.6487 N   0  0  0  0  0  0  0  0  0  0  0  0
   10.0172   -4.4740   17.4101 C   0  0  0  0  0  0  0  0  0  0  0  0
    6.9051   -7.9575   16.4222 C   0  0  0  0  0  0  0  0  0  0  0  0
    8.9969   -6.3552   17.9668 N   0  0  0  0  0  0  0  0  0  0  0  0
   10.6702   -3.9051   22.4070 C   0  0  0  0  0  0  0  0  0  0  0  0
   11.0625   -3.0028   18.8894 C   0  0  0  0  0  0  0  0  0  0  0  0
    5.6180   -7.9194   16.1754 O   0  0  0  0  0  0  0  0  0  0  0  0
    9.7259   -5.3080   18.4485 C   0  0  0  0  0  0  0  0  0  0  0  0
    9.4578   -5.0200   16.3036 N   0  0  0  0  0  0  0  0  0  0  0  0
    5.0287   -8.9365   16.8223 C   0  0  0  0  0  0  0  0  0  0  0  0
    8.7742   -6.1498   16.6764 C   0  0  0  0  0  0  0  0  0  0  0  0
   10.9418   -3.4032   21.2053 O   0  0  0  0  0  0  0  0  0  0  0  0
    1.4797   -8.6258   16.2950 C   0  0  0  0  0  0  0  0  0  0  0  0
    9.2861   -1.2743   25.3585 C   0  0  0  0  0  0  0  0  0  0  0  0
    1.8892  -10.3985   17.7511 N   0  0  0  0  0  0  0  0  0  0  0  0
    9.6210   -0.6952   24.0976 C   0  0  0  0  0  0  0  0  0  0  0  0
    7.0792   -9.0217   17.1429 C   0  0  0  0  0  0  0  0  0  0  0  0
    3.1713  -10.1816   17.6634 C   0  0  0  0  0  0  0  0  0  0  0  0
    2.7878   -8.3822   16.2137 C   0  0  0  0  0  0  0  0  0  0  0  0
    9.4601   -2.6590   25.6528 C   0  0  0  0  0  0  0  0  0  0  0  0
   10.1182   -1.5672   23.1165 C   0  0  0  0  0  0  0  0  0  0  0  0
    1.0552   -9.6360   17.0650 C   0  0  0  0  0  0  0  0  0  0  0  0
    3.6519   -9.1783   16.9039 C   0  0  0  0  0  0  0  0  0  0  0  0
    7.8675   -7.0096   15.9415 C   0  0  0  0  0  0  0  0  0  0  0  0
    5.9733   -9.6553   17.3832 N   0  0  0  0  0  0  0  0  0  0  0  0
   10.2411   -2.9363   23.4301 C   0  0  0  0  0  0  0  0  0  0  0  0
   10.7288   -3.8197   19.9525 C   0  0  0  0  0  0  0  0  0  0  0  0
   10.1189   -5.0054   19.6987 C   0  0  0  0  0  0  0  0  0  0  0  0
  1  3  4  0
  1  7  4  0
  2 21  4  0
  2 27  4  0
  3  9  4  0
  3 10  4  0
  4  8  4  0
  4 18  4  0
  4 25  1  0
  5  9  4  0
  5 12  4  0
  6 13  1  0
  6 27  1  0
  7 28  4  0
  8 11  4  0
  9 29  4  0
 10 12  4  0
 11 24  1  0
 11 26  4  0
 12 25  1  0
 13 28  1  0
 14 20  4  0
 14 23  4  0
 15 17  4  0
 15 21  4  0
 16 19  4  0
 16 23  4  0
 17 22  4  0
 18 26  4  0
 19 24  4  0
 20 24  4  0
 22 27  4  0
 28 29  4  0
M  END
$$$$

 Created by Python create_sdf_string function

 29 33  0  0  0  0  0  0  0  0999 V2000
   10.7215   -3.3326   17.6437 C   0  0  0  0  0  0  0  0  0  0  0  0
    9.9489   -3.4675   24.6487 N   0  0  0  0  0  0  0  0  0  0  0  0
   10.0172   -4.4740   17.4101 C   0  0  0  0  0  0  0  0  0  0  0  0
    6.9051   -7.9575   16.4222 C   0  0  0  0  0  0  0  0  0  0  0  0
    8.9969   -6.3552   17.9668 N   0  0  0  0  0  0  0  0  0  0  0  0
   10.6702   -3.9051   22.4070 C   0  0  0  0  0  0  0  0  0  0  0  0
   11.0625   -3.0028   18.8894 C   0  0  0  0  0  0  0  0  0  0  0  0
    5.6180   -7.9194   16.1754 O   0  0  0  0  0  0  0  0  0  0  0  0
    9.7259   -5.3080   18.4485 C   0  0  0  0  0  0  0  0  0  0  0  0
    9.4578   -5.0200   16.3036 N   0  0  0  0  0  0  0  0  0  0  0  0
    5.0287   -8.9365   16.8223 C   0  0  0  0  0  0  0  0  0  0  0  0
    8.7742   -6.1498   16.6764 C   0  0  0  0  0  0  0  0  0  0  0  0
   10.9418   -3.4032   21.2053 O   0  0  0  0  0  0  0  0  0  0  0  0
    1.4797   -8.6258   16.2950 C   0  0  0  0  0  0  0  0  0  0  0  0
    9.2861   -1.2743   25.3585 C   0  0  0  0  0  0  0  0  0  0  0  0
    1.8892  -10.3985   17.7511 N   0  0  0  0  0  0  0  0  0  0  0  0
    9.6210   -0.6952   24.0976 C   0  0  0  0  0  0  0  0  0  0  0  0
    7.0792   -9.0217   17.1429 C   0  0  0  0  0  0  0  0  0  0  0  0
    3.1713  -10.1816   17.6634 C   0  0  0  0  0  0  0  0  0  0  0  0
    2.7878   -8.3822   16.2137 C   0  0  0  0  0  0  0  0  0  0  0  0
    9.4601   -2.6590   25.6528 C   0  0  0  0  0  0  0  0  0  0  0  0
   10.1182   -1.5672   23.1165 C   0  0  0  0  0  0  0  0  0  0  0  0
    1.0552   -9.6360   17.0650 C   0  0  0  0  0  0  0  0  0  0  0  0
    3.6519   -9.1783   16.9039 C   0  0  0  0  0  0  0  0  0  0  0  0
    7.8675   -7.0096   15.9415 C   0  0  0  0  0  0  0  0  0  0  0  0
    5.9733   -9.6553   17.3832 N   0  0  0  0  0  0  0  0  0  0  0  0
   10.2411   -2.9363   23.4301 C   0  0  0  0  0  0  0  0  0  0  0  0
   10.7288   -3.8197   19.9525 C   0  0  0  0  0  0  0  0  0  0  0  0
   10.1189   -5.0054   19.6987 C   0  0  0  0  0  0  0  0  0  0  0  0
  1  3  4  0
  1  7  4  0
  2 21  4  0
  2 27  4  0
  3  9  4  0
  3 10  4  0
  4  8  4  0
  4 18  4  0
  4 25  1  0
  5  9  4  0
  5 12  4  0
  6 13  1  0
  6 27  1  0
  7 28  4  0
  8 11  4  0
  9 29  4  0
 10 12  4  0
 11 24  1  0
 11 26  4  0
 12 25  1  0
 13 28  1  0
 14 20  4  0
 14 23  4  0
 15 17  4  0
 15 21  4  0
 16 19  4  0
 16 23  4  0
 17 22  4  0
 18 26  4  0
 19 24  4  0
 20 24  4  0
 22 27  4  0
 28 29  4  0
M  END
$$$$

 Created by Python create_sdf_string function

 29 33  0  0  0  0  0  0  0  0999 V2000
   10.7215   -3.3326   17.6437 C   0  0  0  0  0  0  0  0  0  0  0  0
    9.9489   -3.4675   24.6487 N   0  0  0  0  0  0  0  0  0  0  0  0
   10.0172   -4.4740   17.4101 C   0  0  0  0  0  0  0  0  0  0  0  0
    6.9051   -7.9575   16.4222 C   0  0  0  0  0  0  0  0  0  0  0  0
    8.9969   -6.3552   17.9668 N   0  0  0  0  0  0  0  0  0  0  0  0
   10.6702   -3.9051   22.4070 C   0  0  0  0  0  0  0  0  0  0  0  0
   11.0625   -3.0028   18.8894 C   0  0  0  0  0  0  0  0  0  0  0  0
    5.6180   -7.9194   16.1754 O   0  0  0  0  0  0  0  0  0  0  0  0
    9.7259   -5.3080   18.4485 C   0  0  0  0  0  0  0  0  0  0  0  0
    9.4578   -5.0200   16.3036 N   0  0  0  0  0  0  0  0  0  0  0  0
    5.0287   -8.9365   16.8223 C   0  0  0  0  0  0  0  0  0  0  0  0
    8.7742   -6.1498   16.6764 C   0  0  0  0  0  0  0  0  0  0  0  0
   10.9418   -3.4032   21.2053 O   0  0  0  0  0  0  0  0  0  0  0  0
    1.4797   -8.6258   16.2950 C   0  0  0  0  0  0  0  0  0  0  0  0
    9.2861   -1.2743   25.3585 C   0  0  0  0  0  0  0  0  0  0  0  0
    1.8892  -10.3985   17.7511 N   0  0  0  0  0  0  0  0  0  0  0  0
    9.6210   -0.6952   24.0976 C   0  0  0  0  0  0  0  0  0  0  0  0
    7.0792   -9.0217   17.1429 C   0  0  0  0  0  0  0  0  0  0  0  0
    3.1713  -10.1816   17.6634 C   0  0  0  0  0  0  0  0  0  0  0  0
    2.7878   -8.3822   16.2137 C   0  0  0  0  0  0  0  0  0  0  0  0
    9.4601   -2.6590   25.6528 C   0  0  0  0  0  0  0  0  0  0  0  0
   10.1182   -1.5672   23.1165 C   0  0  0  0  0  0  0  0  0  0  0  0
    1.0552   -9.6360   17.0650 C   0  0  0  0  0  0  0  0  0  0  0  0
    3.6519   -9.1783   16.9039 C   0  0  0  0  0  0  0  0  0  0  0  0
    7.8675   -7.0096   15.9415 C   0  0  0  0  0  0  0  0  0  0  0  0
    5.9733   -9.6553   17.3832 N   0  0  0  0  0  0  0  0  0  0  0  0
   10.2411   -2.9363   23.4301 C   0  0  0  0  0  0  0  0  0  0  0  0
   10.7288   -3.8197   19.9525 C   0  0  0  0  0  0  0  0  0  0  0  0
   10.1189   -5.0054   19.6987 C   0  0  0  0  0  0  0  0  0  0  0  0
  1  3  4  0
  1  7  4  0
  2 21  4  0
  2 27  4  0
  3  9  4  0
  3 10  4  0
  4  8  4  0
  4 18  4  0
  4 25  1  0
  5  9  4  0
  5 12  4  0
  6 13  1  0
  6 27  1  0
  7 28  4  0
  8 11  4  0
  9 29  4  0
 10 12  4  0
 11 24  1  0
 11 26  4  0
 12 25  1  0
 13 28  1  0
 14 20  4  0
 14 23  4  0
 15 17  4  0
 15 21  4  0
 16 19  4  0
 16 23  4  0
 17 22  4  0
 18 26  4  0
 19 24  4  0
 20 24  4  0
 22 27  4  0
 28 29  4  0
M  END
$$$$

 Created by Python create_sdf_string function

 29 33  0  0  0  0  0  0  0  0999 V2000
   10.7215   -3.3326   17.6437 C   0  0  0  0  0  0  0  0  0  0  0  0
    9.9489   -3.4675   24.6487 N   0  0  0  0  0  0  0  0  0  0  0  0
   10.0172   -4.4740   17.4101 C   0  0  0  0  0  0  0  0  0  0  0  0
    6.9051   -7.9575   16.4222 C   0  0  0  0  0  0  0  0  0  0  0  0
    8.9969   -6.3552   17.9668 N   0  0  0  0  0  0  0  0  0  0  0  0
   10.6702   -3.9051   22.4070 C   0  0  0  0  0  0  0  0  0  0  0  0
   11.0625   -3.0028   18.8894 C   0  0  0  0  0  0  0  0  0  0  0  0
    5.6180   -7.9194   16.1754 O   0  0  0  0  0  0  0  0  0  0  0  0
    9.7259   -5.3080   18.4485 C   0  0  0  0  0  0  0  0  0  0  0  0
    9.4578   -5.0200   16.3036 N   0  0  0  0  0  0  0  0  0  0  0  0
    5.0287   -8.9365   16.8223 C   0  0  0  0  0  0  0  0  0  0  0  0
    8.7742   -6.1498   16.6764 C   0  0  0  0  0  0  0  0  0  0  0  0
   10.9418   -3.4032   21.2053 O   0  0  0  0  0  0  0  0  0  0  0  0
    1.4797   -8.6258   16.2950 C   0  0  0  0  0  0  0  0  0  0  0  0
    9.2861   -1.2743   25.3585 C   0  0  0  0  0  0  0  0  0  0  0  0
    1.8892  -10.3985   17.7511 N   0  0  0  0  0  0  0  0  0  0  0  0
    9.6210   -0.6952   24.0976 C   0  0  0  0  0  0  0  0  0  0  0  0
    7.0792   -9.0217   17.1429 C   0  0  0  0  0  0  0  0  0  0  0  0
    3.1713  -10.1816   17.6634 C   0  0  0  0  0  0  0  0  0  0  0  0
    2.7878   -8.3822   16.2137 C   0  0  0  0  0  0  0  0  0  0  0  0
    9.4601   -2.6590   25.6528 C   0  0  0  0  0  0  0  0  0  0  0  0
   10.1182   -1.5672   23.1165 C   0  0  0  0  0  0  0  0  0  0  0  0
    1.0552   -9.6360   17.0650 C   0  0  0  0  0  0  0  0  0  0  0  0
    3.6519   -9.1783   16.9039 C   0  0  0  0  0  0  0  0  0  0  0  0
    7.8675   -7.0096   15.9415 C   0  0  0  0  0  0  0  0  0  0  0  0
    5.9733   -9.6553   17.3832 N   0  0  0  0  0  0  0  0  0  0  0  0
   10.2411   -2.9363   23.4301 C   0  0  0  0  0  0  0  0  0  0  0  0
   10.7288   -3.8197   19.9525 C   0  0  0  0  0  0  0  0  0  0  0  0
   10.1189   -5.0054   19.6987 C   0  0  0  0  0  0  0  0  0  0  0  0
  1  3  4  0
  1  7  4  0
  2 21  4  0
  2 27  4  0
  3  9  4  0
  3 10  4  0
  4  8  4  0
  4 18  4  0
  4 25  1  0
  5  9  4  0
  5 12  4  0
  6 13  1  0
  6 27  1  0
  7 28  4  0
  8 11  4  0
  9 29  4  0
 10 12  4  0
 11 24  1  0
 11 26  4  0
 12 25  1  0
 13 28  1  0
 14 20  4  0
 14 23  4  0
 15 17  4  0
 15 21  4  0
 16 19  4  0
 16 23  4  0
 17 22  4  0
 18 26  4  0
 19 24  4  0
 20 24  4  0
 22 27  4  0
 28 29  4  0
M  END
$$$$

 Created by Python create_sdf_string function

 29 33  0  0  0  0  0  0  0  0999 V2000
   10.7215   -3.3326   17.6437 C   0  0  0  0  0  0  0  0  0  0  0  0
    9.9489   -3.4675   24.6487 N   0  0  0  0  0  0  0  0  0  0  0  0
   10.0172   -4.4740   17.4101 C   0  0  0  0  0  0  0  0  0  0  0  0
    6.9051   -7.9575   16.4222 C   0  0  0  0  0  0  0  0  0  0  0  0
    8.9969   -6.3552   17.9668 N   0  0  0  0  0  0  0  0  0  0  0  0
   10.6702   -3.9051   22.4070 C   0  0  0  0  0  0  0  0  0  0  0  0
   11.0625   -3.0028   18.8894 C   0  0  0  0  0  0  0  0  0  0  0  0
    5.6180   -7.9194   16.1754 O   0  0  0  0  0  0  0  0  0  0  0  0
    9.7259   -5.3080   18.4485 C   0  0  0  0  0  0  0  0  0  0  0  0
    9.4578   -5.0200   16.3036 N   0  0  0  0  0  0  0  0  0  0  0  0
    5.0287   -8.9365   16.8223 C   0  0  0  0  0  0  0  0  0  0  0  0
    8.7742   -6.1498   16.6764 C   0  0  0  0  0  0  0  0  0  0  0  0
   10.9418   -3.4032   21.2053 O   0  0  0  0  0  0  0  0  0  0  0  0
    1.4797   -8.6258   16.2950 C   0  0  0  0  0  0  0  0  0  0  0  0
    9.2861   -1.2743   25.3585 C   0  0  0  0  0  0  0  0  0  0  0  0
    1.8892  -10.3985   17.7511 N   0  0  0  0  0  0  0  0  0  0  0  0
    9.6210   -0.6952   24.0976 C   0  0  0  0  0  0  0  0  0  0  0  0
    7.0792   -9.0217   17.1429 C   0  0  0  0  0  0  0  0  0  0  0  0
    3.1713  -10.1816   17.6634 C   0  0  0  0  0  0  0  0  0  0  0  0
    2.7878   -8.3822   16.2137 C   0  0  0  0  0  0  0  0  0  0  0  0
    9.4601   -2.6590   25.6528 C   0  0  0  0  0  0  0  0  0  0  0  0
   10.1182   -1.5672   23.1165 C   0  0  0  0  0  0  0  0  0  0  0  0
    1.0552   -9.6360   17.0650 C   0  0  0  0  0  0  0  0  0  0  0  0
    3.6519   -9.1783   16.9039 C   0  0  0  0  0  0  0  0  0  0  0  0
    7.8675   -7.0096   15.9415 C   0  0  0  0  0  0  0  0  0  0  0  0
    5.9733   -9.6553   17.3832 N   0  0  0  0  0  0  0  0  0  0  0  0
   10.2411   -2.9363   23.4301 C   0  0  0  0  0  0  0  0  0  0  0  0
   10.7288   -3.8197   19.9525 C   0  0  0  0  0  0  0  0  0  0  0  0
   10.1189   -5.0054   19.6987 C   0  0  0  0  0  0  0  0  0  0  0  0
  1  3  4  0
  1  7  4  0
  2 21  4  0
  2 27  4  0
  3  9  4  0
  3 10  4  0
  4  8  4  0
  4 18  4  0
  4 25  1  0
  5  9  4  0
  5 12  4  0
  6 13  1  0
  6 27  1  0
  7 28  4  0
  8 11  4  0
  9 29  4  0
 10 12  4  0
 11 24  1  0
 11 26  4  0
 12 25  1  0
 13 28  1  0
 14 20  4  0
 14 23  4  0
 15 17  4  0
 15 21  4  0
 16 19  4  0
 16 23  4  0
 17 22  4  0
 18 26  4  0
 19 24  4  0
 20 24  4  0
 22 27  4  0
 28 29  4  0
M  END
$$$$

 Created by Python create_sdf_string function

 29 33  0  0  0  0  0  0  0  0999 V2000
   10.7215   -3.3326   17.6437 C   0  0  0  0  0  0  0  0  0  0  0  0
    9.9489   -3.4675   24.6487 N   0  0  0  0  0  0  0  0  0  0  0  0
   10.0172   -4.4740   17.4101 C   0  0  0  0  0  0  0  0  0  0  0  0
    6.9051   -7.9575   16.4222 C   0  0  0  0  0  0  0  0  0  0  0  0
    8.9969   -6.3552   17.9668 N   0  0  0  0  0  0  0  0  0  0  0  0
   10.6702   -3.9051   22.4070 C   0  0  0  0  0  0  0  0  0  0  0  0
   11.0625   -3.0028   18.8894 C   0  0  0  0  0  0  0  0  0  0  0  0
    5.6180   -7.9194   16.1754 O   0  0  0  0  0  0  0  0  0  0  0  0
    9.7259   -5.3080   18.4485 C   0  0  0  0  0  0  0  0  0  0  0  0
    9.4578   -5.0200   16.3036 N   0  0  0  0  0  0  0  0  0  0  0  0
    5.0287   -8.9365   16.8223 C   0  0  0  0  0  0  0  0  0  0  0  0
    8.7742   -6.1498   16.6764 C   0  0  0  0  0  0  0  0  0  0  0  0
   10.9418   -3.4032   21.2053 O   0  0  0  0  0  0  0  0  0  0  0  0
    1.4797   -8.6258   16.2950 C   0  0  0  0  0  0  0  0  0  0  0  0
    9.2861   -1.2743   25.3585 C   0  0  0  0  0  0  0  0  0  0  0  0
    1.8892  -10.3985   17.7511 N   0  0  0  0  0  0  0  0  0  0  0  0
    9.6210   -0.6952   24.0976 C   0  0  0  0  0  0  0  0  0  0  0  0
    7.0792   -9.0217   17.1429 C   0  0  0  0  0  0  0  0  0  0  0  0
    3.1713  -10.1816   17.6634 C   0  0  0  0  0  0  0  0  0  0  0  0
    2.7878   -8.3822   16.2137 C   0  0  0  0  0  0  0  0  0  0  0  0
    9.4601   -2.6590   25.6528 C   0  0  0  0  0  0  0  0  0  0  0  0
   10.1182   -1.5672   23.1165 C   0  0  0  0  0  0  0  0  0  0  0  0
    1.0552   -9.6360   17.0650 C   0  0  0  0  0  0  0  0  0  0  0  0
    3.6519   -9.1783   16.9039 C   0  0  0  0  0  0  0  0  0  0  0  0
    7.8675   -7.0096   15.9415 C   0  0  0  0  0  0  0  0  0  0  0  0
    5.9733   -9.6553   17.3832 N   0  0  0  0  0  0  0  0  0  0  0  0
   10.2411   -2.9363   23.4301 C   0  0  0  0  0  0  0  0  0  0  0  0
   10.7288   -3.8197   19.9525 C   0  0  0  0  0  0  0  0  0  0  0  0
   10.1189   -5.0054   19.6987 C   0  0  0  0  0  0  0  0  0  0  0  0
  1  3  4  0
  1  7  4  0
  2 21  4  0
  2 27  4  0
  3  9  4  0
  3 10  4  0
  4  8  4  0
  4 18  4  0
  4 25  1  0
  5  9  4  0
  5 12  4  0
  6 13  1  0
  6 27  1  0
  7 28  4  0
  8 11  4  0
  9 29  4  0
 10 12  4  0
 11 24  1  0
 11 26  4  0
 12 25  1  0
 13 28  1  0
 14 20  4  0
 14 23  4  0
 15 17  4  0
 15 21  4  0
 16 19  4  0
 16 23  4  0
 17 22  4  0
 18 26  4  0
 19 24  4  0
 20 24  4  0
 22 27  4  0
 28 29  4  0
M  END
$$$$

 Created by Python create_sdf_string function

 29 33  0  0  0  0  0  0  0  0999 V2000
   10.7215   -3.3326   17.6437 C   0  0  0  0  0  0  0  0  0  0  0  0
    9.9489   -3.4675   24.6487 N   0  0  0  0  0  0  0  0  0  0  0  0
   10.0172   -4.4740   17.4101 C   0  0  0  0  0  0  0  0  0  0  0  0
    6.9051   -7.9575   16.4222 C   0  0  0  0  0  0  0  0  0  0  0  0
    8.9969   -6.3552   17.9668 N   0  0  0  0  0  0  0  0  0  0  0  0
   10.6702   -3.9051   22.4070 C   0  0  0  0  0  0  0  0  0  0  0  0
   11.0625   -3.0028   18.8894 C   0  0  0  0  0  0  0  0  0  0  0  0
    5.6180   -7.9194   16.1754 O   0  0  0  0  0  0  0  0  0  0  0  0
    9.7259   -5.3080   18.4485 C   0  0  0  0  0  0  0  0  0  0  0  0
    9.4578   -5.0200   16.3036 N   0  0  0  0  0  0  0  0  0  0  0  0
    5.0287   -8.9365   16.8223 C   0  0  0  0  0  0  0  0  0  0  0  0
    8.7742   -6.1498   16.6764 C   0  0  0  0  0  0  0  0  0  0  0  0
   10.9418   -3.4032   21.2053 O   0  0  0  0  0  0  0  0  0  0  0  0
    1.4797   -8.6258   16.2950 C   0  0  0  0  0  0  0  0  0  0  0  0
    9.2861   -1.2743   25.3585 C   0  0  0  0  0  0  0  0  0  0  0  0
    1.8892  -10.3985   17.7511 N   0  0  0  0  0  0  0  0  0  0  0  0
    9.6210   -0.6952   24.0976 C   0  0  0  0  0  0  0  0  0  0  0  0
    7.0792   -9.0217   17.1429 C   0  0  0  0  0  0  0  0  0  0  0  0
    3.1713  -10.1816   17.6634 C   0  0  0  0  0  0  0  0  0  0  0  0
    2.7878   -8.3822   16.2137 C   0  0  0  0  0  0  0  0  0  0  0  0
    9.4601   -2.6590   25.6528 C   0  0  0  0  0  0  0  0  0  0  0  0
   10.1182   -1.5672   23.1165 C   0  0  0  0  0  0  0  0  0  0  0  0
    1.0552   -9.6360   17.0650 C   0  0  0  0  0  0  0  0  0  0  0  0
    3.6519   -9.1783   16.9039 C   0  0  0  0  0  0  0  0  0  0  0  0
    7.8675   -7.0096   15.9415 C   0  0  0  0  0  0  0  0  0  0  0  0
    5.9733   -9.6553   17.3832 N   0  0  0  0  0  0  0  0  0  0  0  0
   10.2411   -2.9363   23.4301 C   0  0  0  0  0  0  0  0  0  0  0  0
   10.7288   -3.8197   19.9525 C   0  0  0  0  0  0  0  0  0  0  0  0
   10.1189   -5.0054   19.6987 C   0  0  0  0  0  0  0  0  0  0  0  0
  1  3  4  0
  1  7  4  0
  2 21  4  0
  2 27  4  0
  3  9  4  0
  3 10  4  0
  4  8  4  0
  4 18  4  0
  4 25  1  0
  5  9  4  0
  5 12  4  0
  6 13  1  0
  6 27  1  0
  7 28  4  0
  8 11  4  0
  9 29  4  0
 10 12  4  0
 11 24  1  0
 11 26  4  0
 12 25  1  0
 13 28  1  0
 14 20  4  0
 14 23  4  0
 15 17  4  0
 15 21  4  0
 16 19  4  0
 16 23  4  0
 17 22  4  0
 18 26  4  0
 19 24  4  0
 20 24  4  0
 22 27  4  0
 28 29  4  0
M  END
$$$$

 Created by Python create_sdf_string function

 29 33  0  0  0  0  0  0  0  0999 V2000
   10.7215   -3.3326   17.6437 C   0  0  0  0  0  0  0  0  0  0  0  0
    9.9489   -3.4675   24.6487 N   0  0  0  0  0  0  0  0  0  0  0  0
   10.0172   -4.4740   17.4101 C   0  0  0  0  0  0  0  0  0  0  0  0
    6.9051   -7.9575   16.4222 C   0  0  0  0  0  0  0  0  0  0  0  0
    8.9969   -6.3552   17.9668 N   0  0  0  0  0  0  0  0  0  0  0  0
   10.6702   -3.9051   22.4070 C   0  0  0  0  0  0  0  0  0  0  0  0
   11.0625   -3.0028   18.8894 C   0  0  0  0  0  0  0  0  0  0  0  0
    5.6180   -7.9194   16.1754 O   0  0  0  0  0  0  0  0  0  0  0  0
    9.7259   -5.3080   18.4485 C   0  0  0  0  0  0  0  0  0  0  0  0
    9.4578   -5.0200   16.3036 N   0  0  0  0  0  0  0  0  0  0  0  0
    5.0287   -8.9365   16.8223 C   0  0  0  0  0  0  0  0  0  0  0  0
    8.7742   -6.1498   16.6764 C   0  0  0  0  0  0  0  0  0  0  0  0
   10.9418   -3.4032   21.2053 O   0  0  0  0  0  0  0  0  0  0  0  0
    1.4797   -8.6258   16.2950 C   0  0  0  0  0  0  0  0  0  0  0  0
    9.2861   -1.2743   25.3585 C   0  0  0  0  0  0  0  0  0  0  0  0
    1.8892  -10.3985   17.7511 N   0  0  0  0  0  0  0  0  0  0  0  0
    9.6210   -0.6952   24.0976 C   0  0  0  0  0  0  0  0  0  0  0  0
    7.0792   -9.0217   17.1429 C   0  0  0  0  0  0  0  0  0  0  0  0
    3.1713  -10.1816   17.6634 C   0  0  0  0  0  0  0  0  0  0  0  0
    2.7878   -8.3822   16.2137 C   0  0  0  0  0  0  0  0  0  0  0  0
    9.4601   -2.6590   25.6528 C   0  0  0  0  0  0  0  0  0  0  0  0
   10.1182   -1.5672   23.1165 C   0  0  0  0  0  0  0  0  0  0  0  0
    1.0552   -9.6360   17.0650 C   0  0  0  0  0  0  0  0  0  0  0  0
    3.6519   -9.1783   16.9039 C   0  0  0  0  0  0  0  0  0  0  0  0
    7.8675   -7.0096   15.9415 C   0  0  0  0  0  0  0  0  0  0  0  0
    5.9733   -9.6553   17.3832 N   0  0  0  0  0  0  0  0  0  0  0  0
   10.2411   -2.9363   23.4301 C   0  0  0  0  0  0  0  0  0  0  0  0
   10.7288   -3.8197   19.9525 C   0  0  0  0  0  0  0  0  0  0  0  0
   10.1189   -5.0054   19.6987 C   0  0  0  0  0  0  0  0  0  0  0  0
  1  3  4  0
  1  7  4  0
  2 21  4  0
  2 27  4  0
  3  9  4  0
  3 10  4  0
  4  8  4  0
  4 18  4  0
  4 25  1  0
  5  9  4  0
  5 12  4  0
  6 13  1  0
  6 27  1  0
  7 28  4  0
  8 11  4  0
  9 29  4  0
 10 12  4  0
 11 24  1  0
 11 26  4  0
 12 25  1  0
 13 28  1  0
 14 20  4  0
 14 23  4  0
 15 17  4  0
 15 21  4  0
 16 19  4  0
 16 23  4  0
 17 22  4  0
 18 26  4  0
 19 24  4  0
 20 24  4  0
 22 27  4  0
 28 29  4  0
M  END
$$$$

 Created by Python create_sdf_string function

 29 33  0  0  0  0  0  0  0  0999 V2000
   10.7215   -3.3326   17.6437 C   0  0  0  0  0  0  0  0  0  0  0  0
    9.9489   -3.4675   24.6487 N   0  0  0  0  0  0  0  0  0  0  0  0
   10.0172   -4.4740   17.4101 C   0  0  0  0  0  0  0  0  0  0  0  0
    6.9051   -7.9575   16.4222 C   0  0  0  0  0  0  0  0  0  0  0  0
    8.9969   -6.3552   17.9668 N   0  0  0  0  0  0  0  0  0  0  0  0
   10.6702   -3.9051   22.4070 C   0  0  0  0  0  0  0  0  0  0  0  0
   11.0625   -3.0028   18.8894 C   0  0  0  0  0  0  0  0  0  0  0  0
    5.6180   -7.9194   16.1754 O   0  0  0  0  0  0  0  0  0  0  0  0
    9.7259   -5.3080   18.4485 C   0  0  0  0  0  0  0  0  0  0  0  0
    9.4578   -5.0200   16.3036 N   0  0  0  0  0  0  0  0  0  0  0  0
    5.0287   -8.9365   16.8223 C   0  0  0  0  0  0  0  0  0  0  0  0
    8.7742   -6.1498   16.6764 C   0  0  0  0  0  0  0  0  0  0  0  0
   10.9418   -3.4032   21.2053 O   0  0  0  0  0  0  0  0  0  0  0  0
    1.4797   -8.6258   16.2950 C   0  0  0  0  0  0  0  0  0  0  0  0
    9.2861   -1.2743   25.3585 C   0  0  0  0  0  0  0  0  0  0  0  0
    1.8892  -10.3985   17.7511 N   0  0  0  0  0  0  0  0  0  0  0  0
    9.6210   -0.6952   24.0976 C   0  0  0  0  0  0  0  0  0  0  0  0
    7.0792   -9.0217   17.1429 C   0  0  0  0  0  0  0  0  0  0  0  0
    3.1713  -10.1816   17.6634 C   0  0  0  0  0  0  0  0  0  0  0  0
    2.7878   -8.3822   16.2137 C   0  0  0  0  0  0  0  0  0  0  0  0
    9.4601   -2.6590   25.6528 C   0  0  0  0  0  0  0  0  0  0  0  0
   10.1182   -1.5672   23.1165 C   0  0  0  0  0  0  0  0  0  0  0  0
    1.0552   -9.6360   17.0650 C   0  0  0  0  0  0  0  0  0  0  0  0
    3.6519   -9.1783   16.9039 C   0  0  0  0  0  0  0  0  0  0  0  0
    7.8675   -7.0096   15.9415 C   0  0  0  0  0  0  0  0  0  0  0  0
    5.9733   -9.6553   17.3832 N   0  0  0  0  0  0  0  0  0  0  0  0
   10.2411   -2.9363   23.4301 C   0  0  0  0  0  0  0  0  0  0  0  0
   10.7288   -3.8197   19.9525 C   0  0  0  0  0  0  0  0  0  0  0  0
   10.1189   -5.0054   19.6987 C   0  0  0  0  0  0  0  0  0  0  0  0
  1  3  4  0
  1  7  4  0
  2 21  4  0
  2 27  4  0
  3  9  4  0
  3 10  4  0
  4  8  4  0
  4 18  4  0
  4 25  1  0
  5  9  4  0
  5 12  4  0
  6 13  1  0
  6 27  1  0
  7 28  4  0
  8 11  4  0
  9 29  4  0
 10 12  4  0
 11 24  1  0
 11 26  4  0
 12 25  1  0
 13 28  1  0
 14 20  4  0
 14 23  4  0
 15 17  4  0
 15 21  4  0
 16 19  4  0
 16 23  4  0
 17 22  4  0
 18 26  4  0
 19 24  4  0
 20 24  4  0
 22 27  4  0
 28 29  4  0
M  END
$$$$

 Created by Python create_sdf_string function

 29 33  0  0  0  0  0  0  0  0999 V2000
   10.7215   -3.3326   17.6437 C   0  0  0  0  0  0  0  0  0  0  0  0
    9.9489   -3.4675   24.6487 N   0  0  0  0  0  0  0  0  0  0  0  0
   10.0172   -4.4740   17.4101 C   0  0  0  0  0  0  0  0  0  0  0  0
    6.9051   -7.9575   16.4222 C   0  0  0  0  0  0  0  0  0  0  0  0
    8.9969   -6.3552   17.9668 N   0  0  0  0  0  0  0  0  0  0  0  0
   10.6702   -3.9051   22.4070 C   0  0  0  0  0  0  0  0  0  0  0  0
   11.0625   -3.0028   18.8894 C   0  0  0  0  0  0  0  0  0  0  0  0
    5.6180   -7.9194   16.1754 O   0  0  0  0  0  0  0  0  0  0  0  0
    9.7259   -5.3080   18.4485 C   0  0  0  0  0  0  0  0  0  0  0  0
    9.4578   -5.0200   16.3036 N   0  0  0  0  0  0  0  0  0  0  0  0
    5.0287   -8.9365   16.8223 C   0  0  0  0  0  0  0  0  0  0  0  0
    8.7742   -6.1498   16.6764 C   0  0  0  0  0  0  0  0  0  0  0  0
   10.9418   -3.4032   21.2053 O   0  0  0  0  0  0  0  0  0  0  0  0
    1.4797   -8.6258   16.2950 C   0  0  0  0  0  0  0  0  0  0  0  0
    9.2861   -1.2743   25.3585 C   0  0  0  0  0  0  0  0  0  0  0  0
    1.8892  -10.3985   17.7511 N   0  0  0  0  0  0  0  0  0  0  0  0
    9.6210   -0.6952   24.0976 C   0  0  0  0  0  0  0  0  0  0  0  0
    7.0792   -9.0217   17.1429 C   0  0  0  0  0  0  0  0  0  0  0  0
    3.1713  -10.1816   17.6634 C   0  0  0  0  0  0  0  0  0  0  0  0
    2.7878   -8.3822   16.2137 C   0  0  0  0  0  0  0  0  0  0  0  0
    9.4601   -2.6590   25.6528 C   0  0  0  0  0  0  0  0  0  0  0  0
   10.1182   -1.5672   23.1165 C   0  0  0  0  0  0  0  0  0  0  0  0
    1.0552   -9.6360   17.0650 C   0  0  0  0  0  0  0  0  0  0  0  0
    3.6519   -9.1783   16.9039 C   0  0  0  0  0  0  0  0  0  0  0  0
    7.8675   -7.0096   15.9415 C   0  0  0  0  0  0  0  0  0  0  0  0
    5.9733   -9.6553   17.3832 N   0  0  0  0  0  0  0  0  0  0  0  0
   10.2411   -2.9363   23.4301 C   0  0  0  0  0  0  0  0  0  0  0  0
   10.7288   -3.8197   19.9525 C   0  0  0  0  0  0  0  0  0  0  0  0
   10.1189   -5.0054   19.6987 C   0  0  0  0  0  0  0  0  0  0  0  0
  1  3  4  0
  1  7  4  0
  2 21  4  0
  2 27  4  0
  3  9  4  0
  3 10  4  0
  4  8  4  0
  4 18  4  0
  4 25  1  0
  5  9  4  0
  5 12  4  0
  6 13  1  0
  6 27  1  0
  7 28  4  0
  8 11  4  0
  9 29  4  0
 10 12  4  0
 11 24  1  0
 11 26  4  0
 12 25  1  0
 13 28  1  0
 14 20  4  0
 14 23  4  0
 15 17  4  0
 15 21  4  0
 16 19  4  0
 16 23  4  0
 17 22  4  0
 18 26  4  0
 19 24  4  0
 20 24  4  0
 22 27  4  0
 28 29  4  0
M  END
$$$$

 Created by Python create_sdf_string function

 29 33  0  0  0  0  0  0  0  0999 V2000
   10.7215   -3.3326   17.6437 C   0  0  0  0  0  0  0  0  0  0  0  0
    9.9489   -3.4675   24.6487 N   0  0  0  0  0  0  0  0  0  0  0  0
   10.0172   -4.4740   17.4101 C   0  0  0  0  0  0  0  0  0  0  0  0
    6.9051   -7.9575   16.4222 C   0  0  0  0  0  0  0  0  0  0  0  0
    8.9969   -6.3552   17.9668 N   0  0  0  0  0  0  0  0  0  0  0  0
   10.6702   -3.9051   22.4070 C   0  0  0  0  0  0  0  0  0  0  0  0
   11.0625   -3.0028   18.8894 C   0  0  0  0  0  0  0  0  0  0  0  0
    5.6180   -7.9194   16.1754 O   0  0  0  0  0  0  0  0  0  0  0  0
    9.7259   -5.3080   18.4485 C   0  0  0  0  0  0  0  0  0  0  0  0
    9.4578   -5.0200   16.3036 N   0  0  0  0  0  0  0  0  0  0  0  0
    5.0287   -8.9365   16.8223 C   0  0  0  0  0  0  0  0  0  0  0  0
    8.7742   -6.1498   16.6764 C   0  0  0  0  0  0  0  0  0  0  0  0
   10.9418   -3.4032   21.2053 O   0  0  0  0  0  0  0  0  0  0  0  0
    1.4797   -8.6258   16.2950 C   0  0  0  0  0  0  0  0  0  0  0  0
    9.2861   -1.2743   25.3585 C   0  0  0  0  0  0  0  0  0  0  0  0
    1.8892  -10.3985   17.7511 N   0  0  0  0  0  0  0  0  0  0  0  0
    9.6210   -0.6952   24.0976 C   0  0  0  0  0  0  0  0  0  0  0  0
    7.0792   -9.0217   17.1429 C   0  0  0  0  0  0  0  0  0  0  0  0
    3.1713  -10.1816   17.6634 C   0  0  0  0  0  0  0  0  0  0  0  0
    2.7878   -8.3822   16.2137 C   0  0  0  0  0  0  0  0  0  0  0  0
    9.4601   -2.6590   25.6528 C   0  0  0  0  0  0  0  0  0  0  0  0
   10.1182   -1.5672   23.1165 C   0  0  0  0  0  0  0  0  0  0  0  0
    1.0552   -9.6360   17.0650 C   0  0  0  0  0  0  0  0  0  0  0  0
    3.6519   -9.1783   16.9039 C   0  0  0  0  0  0  0  0  0  0  0  0
    7.8675   -7.0096   15.9415 C   0  0  0  0  0  0  0  0  0  0  0  0
    5.9733   -9.6553   17.3832 N   0  0  0  0  0  0  0  0  0  0  0  0
   10.2411   -2.9363   23.4301 C   0  0  0  0  0  0  0  0  0  0  0  0
   10.7288   -3.8197   19.9525 C   0  0  0  0  0  0  0  0  0  0  0  0
   10.1189   -5.0054   19.6987 C   0  0  0  0  0  0  0  0  0  0  0  0
  1  3  4  0
  1  7  4  0
  2 21  4  0
  2 27  4  0
  3  9  4  0
  3 10  4  0
  4  8  4  0
  4 18  4  0
  4 25  1  0
  5  9  4  0
  5 12  4  0
  6 13  1  0
  6 27  1  0
  7 28  4  0
  8 11  4  0
  9 29  4  0
 10 12  4  0
 11 24  1  0
 11 26  4  0
 12 25  1  0
 13 28  1  0
 14 20  4  0
 14 23  4  0
 15 17  4  0
 15 21  4  0
 16 19  4  0
 16 23  4  0
 17 22  4  0
 18 26  4  0
 19 24  4  0
 20 24  4  0
 22 27  4  0
 28 29  4  0
M  END
$$$$

 Created by Python create_sdf_string function

 29 33  0  0  0  0  0  0  0  0999 V2000
   10.7215   -3.3326   17.6437 C   0  0  0  0  0  0  0  0  0  0  0  0
    9.9489   -3.4675   24.6487 N   0  0  0  0  0  0  0  0  0  0  0  0
   10.0172   -4.4740   17.4101 C   0  0  0  0  0  0  0  0  0  0  0  0
    6.9051   -7.9575   16.4222 C   0  0  0  0  0  0  0  0  0  0  0  0
    8.9969   -6.3552   17.9668 N   0  0  0  0  0  0  0  0  0  0  0  0
   10.6702   -3.9051   22.4070 C   0  0  0  0  0  0  0  0  0  0  0  0
   11.0625   -3.0028   18.8894 C   0  0  0  0  0  0  0  0  0  0  0  0
    5.6180   -7.9194   16.1754 O   0  0  0  0  0  0  0  0  0  0  0  0
    9.7259   -5.3080   18.4485 C   0  0  0  0  0  0  0  0  0  0  0  0
    9.4578   -5.0200   16.3036 N   0  0  0  0  0  0  0  0  0  0  0  0
    5.0287   -8.9365   16.8223 C   0  0  0  0  0  0  0  0  0  0  0  0
    8.7742   -6.1498   16.6764 C   0  0  0  0  0  0  0  0  0  0  0  0
   10.9418   -3.4032   21.2053 O   0  0  0  0  0  0  0  0  0  0  0  0
    1.4797   -8.6258   16.2950 C   0  0  0  0  0  0  0  0  0  0  0  0
    9.2861   -1.2743   25.3585 C   0  0  0  0  0  0  0  0  0  0  0  0
    1.8892  -10.3985   17.7511 N   0  0  0  0  0  0  0  0  0  0  0  0
    9.6210   -0.6952   24.0976 C   0  0  0  0  0  0  0  0  0  0  0  0
    7.0792   -9.0217   17.1429 C   0  0  0  0  0  0  0  0  0  0  0  0
    3.1713  -10.1816   17.6634 C   0  0  0  0  0  0  0  0  0  0  0  0
    2.7878   -8.3822   16.2137 C   0  0  0  0  0  0  0  0  0  0  0  0
    9.4601   -2.6590   25.6528 C   0  0  0  0  0  0  0  0  0  0  0  0
   10.1182   -1.5672   23.1165 C   0  0  0  0  0  0  0  0  0  0  0  0
    1.0552   -9.6360   17.0650 C   0  0  0  0  0  0  0  0  0  0  0  0
    3.6519   -9.1783   16.9039 C   0  0  0  0  0  0  0  0  0  0  0  0
    7.8675   -7.0096   15.9415 C   0  0  0  0  0  0  0  0  0  0  0  0
    5.9733   -9.6553   17.3832 N   0  0  0  0  0  0  0  0  0  0  0  0
   10.2411   -2.9363   23.4301 C   0  0  0  0  0  0  0  0  0  0  0  0
   10.7288   -3.8197   19.9525 C   0  0  0  0  0  0  0  0  0  0  0  0
   10.1189   -5.0054   19.6987 C   0  0  0  0  0  0  0  0  0  0  0  0
  1  3  4  0
  1  7  4  0
  2 21  4  0
  2 27  4  0
  3  9  4  0
  3 10  4  0
  4  8  4  0
  4 18  4  0
  4 25  1  0
  5  9  4  0
  5 12  4  0
  6 13  1  0
  6 27  1  0
  7 28  4  0
  8 11  4  0
  9 29  4  0
 10 12  4  0
 11 24  1  0
 11 26  4  0
 12 25  1  0
 13 28  1  0
 14 20  4  0
 14 23  4  0
 15 17  4  0
 15 21  4  0
 16 19  4  0
 16 23  4  0
 17 22  4  0
 18 26  4  0
 19 24  4  0
 20 24  4  0
 22 27  4  0
 28 29  4  0
M  END
$$$$

 Created by Python create_sdf_string function

 29 33  0  0  0  0  0  0  0  0999 V2000
   10.7215   -3.3326   17.6437 C   0  0  0  0  0  0  0  0  0  0  0  0
    9.9489   -3.4675   24.6487 N   0  0  0  0  0  0  0  0  0  0  0  0
   10.0172   -4.4740   17.4101 C   0  0  0  0  0  0  0  0  0  0  0  0
    6.9051   -7.9575   16.4222 C   0  0  0  0  0  0  0  0  0  0  0  0
    8.9969   -6.3552   17.9668 N   0  0  0  0  0  0  0  0  0  0  0  0
   10.6702   -3.9051   22.4070 C   0  0  0  0  0  0  0  0  0  0  0  0
   11.0625   -3.0028   18.8894 C   0  0  0  0  0  0  0  0  0  0  0  0
    5.6180   -7.9194   16.1754 O   0  0  0  0  0  0  0  0  0  0  0  0
    9.7259   -5.3080   18.4485 C   0  0  0  0  0  0  0  0  0  0  0  0
    9.4578   -5.0200   16.3036 N   0  0  0  0  0  0  0  0  0  0  0  0
    5.0287   -8.9365   16.8223 C   0  0  0  0  0  0  0  0  0  0  0  0
    8.7742   -6.1498   16.6764 C   0  0  0  0  0  0  0  0  0  0  0  0
   10.9418   -3.4032   21.2053 O   0  0  0  0  0  0  0  0  0  0  0  0
    1.4797   -8.6258   16.2950 C   0  0  0  0  0  0  0  0  0  0  0  0
    9.2861   -1.2743   25.3585 C   0  0  0  0  0  0  0  0  0  0  0  0
    1.8892  -10.3985   17.7511 N   0  0  0  0  0  0  0  0  0  0  0  0
    9.6210   -0.6952   24.0976 C   0  0  0  0  0  0  0  0  0  0  0  0
    7.0792   -9.0217   17.1429 C   0  0  0  0  0  0  0  0  0  0  0  0
    3.1713  -10.1816   17.6634 C   0  0  0  0  0  0  0  0  0  0  0  0
    2.7878   -8.3822   16.2137 C   0  0  0  0  0  0  0  0  0  0  0  0
    9.4601   -2.6590   25.6528 C   0  0  0  0  0  0  0  0  0  0  0  0
   10.1182   -1.5672   23.1165 C   0  0  0  0  0  0  0  0  0  0  0  0
    1.0552   -9.6360   17.0650 C   0  0  0  0  0  0  0  0  0  0  0  0
    3.6519   -9.1783   16.9039 C   0  0  0  0  0  0  0  0  0  0  0  0
    7.8675   -7.0096   15.9415 C   0  0  0  0  0  0  0  0  0  0  0  0
    5.9733   -9.6553   17.3832 N   0  0  0  0  0  0  0  0  0  0  0  0
   10.2411   -2.9363   23.4301 C   0  0  0  0  0  0  0  0  0  0  0  0
   10.7288   -3.8197   19.9525 C   0  0  0  0  0  0  0  0  0  0  0  0
   10.1189   -5.0054   19.6987 C   0  0  0  0  0  0  0  0  0  0  0  0
  1  3  4  0
  1  7  4  0
  2 21  4  0
  2 27  4  0
  3  9  4  0
  3 10  4  0
  4  8  4  0
  4 18  4  0
  4 25  1  0
  5  9  4  0
  5 12  4  0
  6 13  1  0
  6 27  1  0
  7 28  4  0
  8 11  4  0
  9 29  4  0
 10 12  4  0
 11 24  1  0
 11 26  4  0
 12 25  1  0
 13 28  1  0
 14 20  4  0
 14 23  4  0
 15 17  4  0
 15 21  4  0
 16 19  4  0
 16 23  4  0
 17 22  4  0
 18 26  4  0
 19 24  4  0
 20 24  4  0
 22 27  4  0
 28 29  4  0
M  END
$$$$

 Created by Python create_sdf_string function

 29 33  0  0  0  0  0  0  0  0999 V2000
   10.7215   -3.3326   17.6437 C   0  0  0  0  0  0  0  0  0  0  0  0
    9.9489   -3.4675   24.6487 N   0  0  0  0  0  0  0  0  0  0  0  0
   10.0172   -4.4740   17.4101 C   0  0  0  0  0  0  0  0  0  0  0  0
    6.9051   -7.9575   16.4222 C   0  0  0  0  0  0  0  0  0  0  0  0
    8.9969   -6.3552   17.9668 N   0  0  0  0  0  0  0  0  0  0  0  0
   10.6702   -3.9051   22.4070 C   0  0  0  0  0  0  0  0  0  0  0  0
   11.0625   -3.0028   18.8894 C   0  0  0  0  0  0  0  0  0  0  0  0
    5.6180   -7.9194   16.1754 O   0  0  0  0  0  0  0  0  0  0  0  0
    9.7259   -5.3080   18.4485 C   0  0  0  0  0  0  0  0  0  0  0  0
    9.4578   -5.0200   16.3036 N   0  0  0  0  0  0  0  0  0  0  0  0
    5.0287   -8.9365   16.8223 C   0  0  0  0  0  0  0  0  0  0  0  0
    8.7742   -6.1498   16.6764 C   0  0  0  0  0  0  0  0  0  0  0  0
   10.9418   -3.4032   21.2053 O   0  0  0  0  0  0  0  0  0  0  0  0
    1.4797   -8.6258   16.2950 C   0  0  0  0  0  0  0  0  0  0  0  0
    9.2861   -1.2743   25.3585 C   0  0  0  0  0  0  0  0  0  0  0  0
    1.8892  -10.3985   17.7511 N   0  0  0  0  0  0  0  0  0  0  0  0
    9.6210   -0.6952   24.0976 C   0  0  0  0  0  0  0  0  0  0  0  0
    7.0792   -9.0217   17.1429 C   0  0  0  0  0  0  0  0  0  0  0  0
    3.1713  -10.1816   17.6634 C   0  0  0  0  0  0  0  0  0  0  0  0
    2.7878   -8.3822   16.2137 C   0  0  0  0  0  0  0  0  0  0  0  0
    9.4601   -2.6590   25.6528 C   0  0  0  0  0  0  0  0  0  0  0  0
   10.1182   -1.5672   23.1165 C   0  0  0  0  0  0  0  0  0  0  0  0
    1.0552   -9.6360   17.0650 C   0  0  0  0  0  0  0  0  0  0  0  0
    3.6519   -9.1783   16.9039 C   0  0  0  0  0  0  0  0  0  0  0  0
    7.8675   -7.0096   15.9415 C   0  0  0  0  0  0  0  0  0  0  0  0
    5.9733   -9.6553   17.3832 N   0  0  0  0  0  0  0  0  0  0  0  0
   10.2411   -2.9363   23.4301 C   0  0  0  0  0  0  0  0  0  0  0  0
   10.7288   -3.8197   19.9525 C   0  0  0  0  0  0  0  0  0  0  0  0
   10.1189   -5.0054   19.6987 C   0  0  0  0  0  0  0  0  0  0  0  0
  1  3  4  0
  1  7  4  0
  2 21  4  0
  2 27  4  0
  3  9  4  0
  3 10  4  0
  4  8  4  0
  4 18  4  0
  4 25  1  0
  5  9  4  0
  5 12  4  0
  6 13  1  0
  6 27  1  0
  7 28  4  0
  8 11  4  0
  9 29  4  0
 10 12  4  0
 11 24  1  0
 11 26  4  0
 12 25  1  0
 13 28  1  0
 14 20  4  0
 14 23  4  0
 15 17  4  0
 15 21  4  0
 16 19  4  0
 16 23  4  0
 17 22  4  0
 18 26  4  0
 19 24  4  0
 20 24  4  0
 22 27  4  0
 28 29  4  0
M  END
$$$$

 Created by Python create_sdf_string function

 29 33  0  0  0  0  0  0  0  0999 V2000
   10.7215   -3.3326   17.6437 C   0  0  0  0  0  0  0  0  0  0  0  0
    9.9489   -3.4675   24.6487 N   0  0  0  0  0  0  0  0  0  0  0  0
   10.0172   -4.4740   17.4101 C   0  0  0  0  0  0  0  0  0  0  0  0
    6.9051   -7.9575   16.4222 C   0  0  0  0  0  0  0  0  0  0  0  0
    8.9969   -6.3552   17.9668 N   0  0  0  0  0  0  0  0  0  0  0  0
   10.6702   -3.9051   22.4070 C   0  0  0  0  0  0  0  0  0  0  0  0
   11.0625   -3.0028   18.8894 C   0  0  0  0  0  0  0  0  0  0  0  0
    5.6180   -7.9194   16.1754 O   0  0  0  0  0  0  0  0  0  0  0  0
    9.7259   -5.3080   18.4485 C   0  0  0  0  0  0  0  0  0  0  0  0
    9.4578   -5.0200   16.3036 N   0  0  0  0  0  0  0  0  0  0  0  0
    5.0287   -8.9365   16.8223 C   0  0  0  0  0  0  0  0  0  0  0  0
    8.7742   -6.1498   16.6764 C   0  0  0  0  0  0  0  0  0  0  0  0
   10.9418   -3.4032   21.2053 O   0  0  0  0  0  0  0  0  0  0  0  0
    1.4797   -8.6258   16.2950 C   0  0  0  0  0  0  0  0  0  0  0  0
    9.2861   -1.2743   25.3585 C   0  0  0  0  0  0  0  0  0  0  0  0
    1.8892  -10.3985   17.7511 N   0  0  0  0  0  0  0  0  0  0  0  0
    9.6210   -0.6952   24.0976 C   0  0  0  0  0  0  0  0  0  0  0  0
    7.0792   -9.0217   17.1429 C   0  0  0  0  0  0  0  0  0  0  0  0
    3.1713  -10.1816   17.6634 C   0  0  0  0  0  0  0  0  0  0  0  0
    2.7878   -8.3822   16.2137 C   0  0  0  0  0  0  0  0  0  0  0  0
    9.4601   -2.6590   25.6528 C   0  0  0  0  0  0  0  0  0  0  0  0
   10.1182   -1.5672   23.1165 C   0  0  0  0  0  0  0  0  0  0  0  0
    1.0552   -9.6360   17.0650 C   0  0  0  0  0  0  0  0  0  0  0  0
    3.6519   -9.1783   16.9039 C   0  0  0  0  0  0  0  0  0  0  0  0
    7.8675   -7.0096   15.9415 C   0  0  0  0  0  0  0  0  0  0  0  0
    5.9733   -9.6553   17.3832 N   0  0  0  0  0  0  0  0  0  0  0  0
   10.2411   -2.9363   23.4301 C   0  0  0  0  0  0  0  0  0  0  0  0
   10.7288   -3.8197   19.9525 C   0  0  0  0  0  0  0  0  0  0  0  0
   10.1189   -5.0054   19.6987 C   0  0  0  0  0  0  0  0  0  0  0  0
  1  3  4  0
  1  7  4  0
  2 21  4  0
  2 27  4  0
  3  9  4  0
  3 10  4  0
  4  8  4  0
  4 18  4  0
  4 25  1  0
  5  9  4  0
  5 12  4  0
  6 13  1  0
  6 27  1  0
  7 28  4  0
  8 11  4  0
  9 29  4  0
 10 12  4  0
 11 24  1  0
 11 26  4  0
 12 25  1  0
 13 28  1  0
 14 20  4  0
 14 23  4  0
 15 17  4  0
 15 21  4  0
 16 19  4  0
 16 23  4  0
 17 22  4  0
 18 26  4  0
 19 24  4  0
 20 24  4  0
 22 27  4  0
 28 29  4  0
M  END
$$$$

 Created by Python create_sdf_string function

 29 33  0  0  0  0  0  0  0  0999 V2000
   10.7215   -3.3326   17.6437 C   0  0  0  0  0  0  0  0  0  0  0  0
    9.9489   -3.4675   24.6487 N   0  0  0  0  0  0  0  0  0  0  0  0
   10.0172   -4.4740   17.4101 C   0  0  0  0  0  0  0  0  0  0  0  0
    6.9051   -7.9575   16.4222 C   0  0  0  0  0  0  0  0  0  0  0  0
    8.9969   -6.3552   17.9668 N   0  0  0  0  0  0  0  0  0  0  0  0
   10.6702   -3.9051   22.4070 C   0  0  0  0  0  0  0  0  0  0  0  0
   11.0625   -3.0028   18.8894 C   0  0  0  0  0  0  0  0  0  0  0  0
    5.6180   -7.9194   16.1754 O   0  0  0  0  0  0  0  0  0  0  0  0
    9.7259   -5.3080   18.4485 C   0  0  0  0  0  0  0  0  0  0  0  0
    9.4578   -5.0200   16.3036 N   0  0  0  0  0  0  0  0  0  0  0  0
    5.0287   -8.9365   16.8223 C   0  0  0  0  0  0  0  0  0  0  0  0
    8.7742   -6.1498   16.6764 C   0  0  0  0  0  0  0  0  0  0  0  0
   10.9418   -3.4032   21.2053 O   0  0  0  0  0  0  0  0  0  0  0  0
    1.4797   -8.6258   16.2950 C   0  0  0  0  0  0  0  0  0  0  0  0
    9.2861   -1.2743   25.3585 C   0  0  0  0  0  0  0  0  0  0  0  0
    1.8892  -10.3985   17.7511 N   0  0  0  0  0  0  0  0  0  0  0  0
    9.6210   -0.6952   24.0976 C   0  0  0  0  0  0  0  0  0  0  0  0
    7.0792   -9.0217   17.1429 C   0  0  0  0  0  0  0  0  0  0  0  0
    3.1713  -10.1816   17.6634 C   0  0  0  0  0  0  0  0  0  0  0  0
    2.7878   -8.3822   16.2137 C   0  0  0  0  0  0  0  0  0  0  0  0
    9.4601   -2.6590   25.6528 C   0  0  0  0  0  0  0  0  0  0  0  0
   10.1182   -1.5672   23.1165 C   0  0  0  0  0  0  0  0  0  0  0  0
    1.0552   -9.6360   17.0650 C   0  0  0  0  0  0  0  0  0  0  0  0
    3.6519   -9.1783   16.9039 C   0  0  0  0  0  0  0  0  0  0  0  0
    7.8675   -7.0096   15.9415 C   0  0  0  0  0  0  0  0  0  0  0  0
    5.9733   -9.6553   17.3832 N   0  0  0  0  0  0  0  0  0  0  0  0
   10.2411   -2.9363   23.4301 C   0  0  0  0  0  0  0  0  0  0  0  0
   10.7288   -3.8197   19.9525 C   0  0  0  0  0  0  0  0  0  0  0  0
   10.1189   -5.0054   19.6987 C   0  0  0  0  0  0  0  0  0  0  0  0
  1  3  4  0
  1  7  4  0
  2 21  4  0
  2 27  4  0
  3  9  4  0
  3 10  4  0
  4  8  4  0
  4 18  4  0
  4 25  1  0
  5  9  4  0
  5 12  4  0
  6 13  1  0
  6 27  1  0
  7 28  4  0
  8 11  4  0
  9 29  4  0
 10 12  4  0
 11 24  1  0
 11 26  4  0
 12 25  1  0
 13 28  1  0
 14 20  4  0
 14 23  4  0
 15 17  4  0
 15 21  4  0
 16 19  4  0
 16 23  4  0
 17 22  4  0
 18 26  4  0
 19 24  4  0
 20 24  4  0
 22 27  4  0
 28 29  4  0
M  END
$$$$

 Created by Python create_sdf_string function

 29 33  0  0  0  0  0  0  0  0999 V2000
   10.7215   -3.3326   17.6437 C   0  0  0  0  0  0  0  0  0  0  0  0
    9.9489   -3.4675   24.6487 N   0  0  0  0  0  0  0  0  0  0  0  0
   10.0172   -4.4740   17.4101 C   0  0  0  0  0  0  0  0  0  0  0  0
    6.9051   -7.9575   16.4222 C   0  0  0  0  0  0  0  0  0  0  0  0
    8.9969   -6.3552   17.9668 N   0  0  0  0  0  0  0  0  0  0  0  0
   10.6702   -3.9051   22.4070 C   0  0  0  0  0  0  0  0  0  0  0  0
   11.0625   -3.0028   18.8894 C   0  0  0  0  0  0  0  0  0  0  0  0
    5.6180   -7.9194   16.1754 O   0  0  0  0  0  0  0  0  0  0  0  0
    9.7259   -5.3080   18.4485 C   0  0  0  0  0  0  0  0  0  0  0  0
    9.4578   -5.0200   16.3036 N   0  0  0  0  0  0  0  0  0  0  0  0
    5.0287   -8.9365   16.8223 C   0  0  0  0  0  0  0  0  0  0  0  0
    8.7742   -6.1498   16.6764 C   0  0  0  0  0  0  0  0  0  0  0  0
   10.9418   -3.4032   21.2053 O   0  0  0  0  0  0  0  0  0  0  0  0
    1.4797   -8.6258   16.2950 C   0  0  0  0  0  0  0  0  0  0  0  0
    9.2861   -1.2743   25.3585 C   0  0  0  0  0  0  0  0  0  0  0  0
    1.8892  -10.3985   17.7511 N   0  0  0  0  0  0  0  0  0  0  0  0
    9.6210   -0.6952   24.0976 C   0  0  0  0  0  0  0  0  0  0  0  0
    7.0792   -9.0217   17.1429 C   0  0  0  0  0  0  0  0  0  0  0  0
    3.1713  -10.1816   17.6634 C   0  0  0  0  0  0  0  0  0  0  0  0
    2.7878   -8.3822   16.2137 C   0  0  0  0  0  0  0  0  0  0  0  0
    9.4601   -2.6590   25.6528 C   0  0  0  0  0  0  0  0  0  0  0  0
   10.1182   -1.5672   23.1165 C   0  0  0  0  0  0  0  0  0  0  0  0
    1.0552   -9.6360   17.0650 C   0  0  0  0  0  0  0  0  0  0  0  0
    3.6519   -9.1783   16.9039 C   0  0  0  0  0  0  0  0  0  0  0  0
    7.8675   -7.0096   15.9415 C   0  0  0  0  0  0  0  0  0  0  0  0
    5.9733   -9.6553   17.3832 N   0  0  0  0  0  0  0  0  0  0  0  0
   10.2411   -2.9363   23.4301 C   0  0  0  0  0  0  0  0  0  0  0  0
   10.7288   -3.8197   19.9525 C   0  0  0  0  0  0  0  0  0  0  0  0
   10.1189   -5.0054   19.6987 C   0  0  0  0  0  0  0  0  0  0  0  0
  1  3  4  0
  1  7  4  0
  2 21  4  0
  2 27  4  0
  3  9  4  0
  3 10  4  0
  4  8  4  0
  4 18  4  0
  4 25  1  0
  5  9  4  0
  5 12  4  0
  6 13  1  0
  6 27  1  0
  7 28  4  0
  8 11  4  0
  9 29  4  0
 10 12  4  0
 11 24  1  0
 11 26  4  0
 12 25  1  0
 13 28  1  0
 14 20  4  0
 14 23  4  0
 15 17  4  0
 15 21  4  0
 16 19  4  0
 16 23  4  0
 17 22  4  0
 18 26  4  0
 19 24  4  0
 20 24  4  0
 22 27  4  0
 28 29  4  0
M  END
$$$$

 Created by Python create_sdf_string function

 29 33  0  0  0  0  0  0  0  0999 V2000
   10.7215   -3.3326   17.6437 C   0  0  0  0  0  0  0  0  0  0  0  0
    9.9489   -3.4675   24.6487 N   0  0  0  0  0  0  0  0  0  0  0  0
   10.0172   -4.4740   17.4101 C   0  0  0  0  0  0  0  0  0  0  0  0
    6.9051   -7.9575   16.4222 C   0  0  0  0  0  0  0  0  0  0  0  0
    8.9969   -6.3552   17.9668 N   0  0  0  0  0  0  0  0  0  0  0  0
   10.6702   -3.9051   22.4070 C   0  0  0  0  0  0  0  0  0  0  0  0
   11.0625   -3.0028   18.8894 C   0  0  0  0  0  0  0  0  0  0  0  0
    5.6180   -7.9194   16.1754 O   0  0  0  0  0  0  0  0  0  0  0  0
    9.7259   -5.3080   18.4485 C   0  0  0  0  0  0  0  0  0  0  0  0
    9.4578   -5.0200   16.3036 N   0  0  0  0  0  0  0  0  0  0  0  0
    5.0287   -8.9365   16.8223 C   0  0  0  0  0  0  0  0  0  0  0  0
    8.7742   -6.1498   16.6764 C   0  0  0  0  0  0  0  0  0  0  0  0
   10.9418   -3.4032   21.2053 O   0  0  0  0  0  0  0  0  0  0  0  0
    1.4797   -8.6258   16.2950 C   0  0  0  0  0  0  0  0  0  0  0  0
    9.2861   -1.2743   25.3585 C   0  0  0  0  0  0  0  0  0  0  0  0
    1.8892  -10.3985   17.7511 N   0  0  0  0  0  0  0  0  0  0  0  0
    9.6210   -0.6952   24.0976 C   0  0  0  0  0  0  0  0  0  0  0  0
    7.0792   -9.0217   17.1429 C   0  0  0  0  0  0  0  0  0  0  0  0
    3.1713  -10.1816   17.6634 C   0  0  0  0  0  0  0  0  0  0  0  0
    2.7878   -8.3822   16.2137 C   0  0  0  0  0  0  0  0  0  0  0  0
    9.4601   -2.6590   25.6528 C   0  0  0  0  0  0  0  0  0  0  0  0
   10.1182   -1.5672   23.1165 C   0  0  0  0  0  0  0  0  0  0  0  0
    1.0552   -9.6360   17.0650 C   0  0  0  0  0  0  0  0  0  0  0  0
    3.6519   -9.1783   16.9039 C   0  0  0  0  0  0  0  0  0  0  0  0
    7.8675   -7.0096   15.9415 C   0  0  0  0  0  0  0  0  0  0  0  0
    5.9733   -9.6553   17.3832 N   0  0  0  0  0  0  0  0  0  0  0  0
   10.2411   -2.9363   23.4301 C   0  0  0  0  0  0  0  0  0  0  0  0
   10.7288   -3.8197   19.9525 C   0  0  0  0  0  0  0  0  0  0  0  0
   10.1189   -5.0054   19.6987 C   0  0  0  0  0  0  0  0  0  0  0  0
  1  3  4  0
  1  7  4  0
  2 21  4  0
  2 27  4  0
  3  9  4  0
  3 10  4  0
  4  8  4  0
  4 18  4  0
  4 25  1  0
  5  9  4  0
  5 12  4  0
  6 13  1  0
  6 27  1  0
  7 28  4  0
  8 11  4  0
  9 29  4  0
 10 12  4  0
 11 24  1  0
 11 26  4  0
 12 25  1  0
 13 28  1  0
 14 20  4  0
 14 23  4  0
 15 17  4  0
 15 21  4  0
 16 19  4  0
 16 23  4  0
 17 22  4  0
 18 26  4  0
 19 24  4  0
 20 24  4  0
 22 27  4  0
 28 29  4  0
M  END
$$$$

 Created by Python create_sdf_string function

 29 33  0  0  0  0  0  0  0  0999 V2000
   10.7215   -3.3326   17.6437 C   0  0  0  0  0  0  0  0  0  0  0  0
    9.9489   -3.4675   24.6487 N   0  0  0  0  0  0  0  0  0  0  0  0
   10.0172   -4.4740   17.4101 C   0  0  0  0  0  0  0  0  0  0  0  0
    6.9051   -7.9575   16.4222 C   0  0  0  0  0  0  0  0  0  0  0  0
    8.9969   -6.3552   17.9668 N   0  0  0  0  0  0  0  0  0  0  0  0
   10.6702   -3.9051   22.4070 C   0  0  0  0  0  0  0  0  0  0  0  0
   11.0625   -3.0028   18.8894 C   0  0  0  0  0  0  0  0  0  0  0  0
    5.6180   -7.9194   16.1754 O   0  0  0  0  0  0  0  0  0  0  0  0
    9.7259   -5.3080   18.4485 C   0  0  0  0  0  0  0  0  0  0  0  0
    9.4578   -5.0200   16.3036 N   0  0  0  0  0  0  0  0  0  0  0  0
    5.0287   -8.9365   16.8223 C   0  0  0  0  0  0  0  0  0  0  0  0
    8.7742   -6.1498   16.6764 C   0  0  0  0  0  0  0  0  0  0  0  0
   10.9418   -3.4032   21.2053 O   0  0  0  0  0  0  0  0  0  0  0  0
    1.4797   -8.6258   16.2950 C   0  0  0  0  0  0  0  0  0  0  0  0
    9.2861   -1.2743   25.3585 C   0  0  0  0  0  0  0  0  0  0  0  0
    1.8892  -10.3985   17.7511 N   0  0  0  0  0  0  0  0  0  0  0  0
    9.6210   -0.6952   24.0976 C   0  0  0  0  0  0  0  0  0  0  0  0
    7.0792   -9.0217   17.1429 C   0  0  0  0  0  0  0  0  0  0  0  0
    3.1713  -10.1816   17.6634 C   0  0  0  0  0  0  0  0  0  0  0  0
    2.7878   -8.3822   16.2137 C   0  0  0  0  0  0  0  0  0  0  0  0
    9.4601   -2.6590   25.6528 C   0  0  0  0  0  0  0  0  0  0  0  0
   10.1182   -1.5672   23.1165 C   0  0  0  0  0  0  0  0  0  0  0  0
    1.0552   -9.6360   17.0650 C   0  0  0  0  0  0  0  0  0  0  0  0
    3.6519   -9.1783   16.9039 C   0  0  0  0  0  0  0  0  0  0  0  0
    7.8675   -7.0096   15.9415 C   0  0  0  0  0  0  0  0  0  0  0  0
    5.9733   -9.6553   17.3832 N   0  0  0  0  0  0  0  0  0  0  0  0
   10.2411   -2.9363   23.4301 C   0  0  0  0  0  0  0  0  0  0  0  0
   10.7288   -3.8197   19.9525 C   0  0  0  0  0  0  0  0  0  0  0  0
   10.1189   -5.0054   19.6987 C   0  0  0  0  0  0  0  0  0  0  0  0
  1  3  4  0
  1  7  4  0
  2 21  4  0
  2 27  4  0
  3  9  4  0
  3 10  4  0
  4  8  4  0
  4 18  4  0
  4 25  1  0
  5  9  4  0
  5 12  4  0
  6 13  1  0
  6 27  1  0
  7 28  4  0
  8 11  4  0
  9 29  4  0
 10 12  4  0
 11 24  1  0
 11 26  4  0
 12 25  1  0
 13 28  1  0
 14 20  4  0
 14 23  4  0
 15 17  4  0
 15 21  4  0
 16 19  4  0
 16 23  4  0
 17 22  4  0
 18 26  4  0
 19 24  4  0
 20 24  4  0
 22 27  4  0
 28 29  4  0
M  END
$$$$

 Created by Python create_sdf_string function

 29 33  0  0  0  0  0  0  0  0999 V2000
   10.7215   -3.3326   17.6437 C   0  0  0  0  0  0  0  0  0  0  0  0
    9.9489   -3.4675   24.6487 N   0  0  0  0  0  0  0  0  0  0  0  0
   10.0172   -4.4740   17.4101 C   0  0  0  0  0  0  0  0  0  0  0  0
    6.9051   -7.9575   16.4222 C   0  0  0  0  0  0  0  0  0  0  0  0
    8.9969   -6.3552   17.9668 N   0  0  0  0  0  0  0  0  0  0  0  0
   10.6702   -3.9051   22.4070 C   0  0  0  0  0  0  0  0  0  0  0  0
   11.0625   -3.0028   18.8894 C   0  0  0  0  0  0  0  0  0  0  0  0
    5.6180   -7.9194   16.1754 O   0  0  0  0  0  0  0  0  0  0  0  0
    9.7259   -5.3080   18.4485 C   0  0  0  0  0  0  0  0  0  0  0  0
    9.4578   -5.0200   16.3036 N   0  0  0  0  0  0  0  0  0  0  0  0
    5.0287   -8.9365   16.8223 C   0  0  0  0  0  0  0  0  0  0  0  0
    8.7742   -6.1498   16.6764 C   0  0  0  0  0  0  0  0  0  0  0  0
   10.9418   -3.4032   21.2053 O   0  0  0  0  0  0  0  0  0  0  0  0
    1.4797   -8.6258   16.2950 C   0  0  0  0  0  0  0  0  0  0  0  0
    9.2861   -1.2743   25.3585 C   0  0  0  0  0  0  0  0  0  0  0  0
    1.8892  -10.3985   17.7511 N   0  0  0  0  0  0  0  0  0  0  0  0
    9.6210   -0.6952   24.0976 C   0  0  0  0  0  0  0  0  0  0  0  0
    7.0792   -9.0217   17.1429 C   0  0  0  0  0  0  0  0  0  0  0  0
    3.1713  -10.1816   17.6634 C   0  0  0  0  0  0  0  0  0  0  0  0
    2.7878   -8.3822   16.2137 C   0  0  0  0  0  0  0  0  0  0  0  0
    9.4601   -2.6590   25.6528 C   0  0  0  0  0  0  0  0  0  0  0  0
   10.1182   -1.5672   23.1165 C   0  0  0  0  0  0  0  0  0  0  0  0
    1.0552   -9.6360   17.0650 C   0  0  0  0  0  0  0  0  0  0  0  0
    3.6519   -9.1783   16.9039 C   0  0  0  0  0  0  0  0  0  0  0  0
    7.8675   -7.0096   15.9415 C   0  0  0  0  0  0  0  0  0  0  0  0
    5.9733   -9.6553   17.3832 N   0  0  0  0  0  0  0  0  0  0  0  0
   10.2411   -2.9363   23.4301 C   0  0  0  0  0  0  0  0  0  0  0  0
   10.7288   -3.8197   19.9525 C   0  0  0  0  0  0  0  0  0  0  0  0
   10.1189   -5.0054   19.6987 C   0  0  0  0  0  0  0  0  0  0  0  0
  1  3  4  0
  1  7  4  0
  2 21  4  0
  2 27  4  0
  3  9  4  0
  3 10  4  0
  4  8  4  0
  4 18  4  0
  4 25  1  0
  5  9  4  0
  5 12  4  0
  6 13  1  0
  6 27  1  0
  7 28  4  0
  8 11  4  0
  9 29  4  0
 10 12  4  0
 11 24  1  0
 11 26  4  0
 12 25  1  0
 13 28  1  0
 14 20  4  0
 14 23  4  0
 15 17  4  0
 15 21  4  0
 16 19  4  0
 16 23  4  0
 17 22  4  0
 18 26  4  0
 19 24  4  0
 20 24  4  0
 22 27  4  0
 28 29  4  0
M  END
$$$$

 Created by Python create_sdf_string function

 29 33  0  0  0  0  0  0  0  0999 V2000
   10.7215   -3.3326   17.6437 C   0  0  0  0  0  0  0  0  0  0  0  0
    9.9489   -3.4675   24.6487 N   0  0  0  0  0  0  0  0  0  0  0  0
   10.0172   -4.4740   17.4101 C   0  0  0  0  0  0  0  0  0  0  0  0
    6.9051   -7.9575   16.4222 C   0  0  0  0  0  0  0  0  0  0  0  0
    8.9969   -6.3552   17.9668 N   0  0  0  0  0  0  0  0  0  0  0  0
   10.6702   -3.9051   22.4070 C   0  0  0  0  0  0  0  0  0  0  0  0
   11.0625   -3.0028   18.8894 C   0  0  0  0  0  0  0  0  0  0  0  0
    5.6180   -7.9194   16.1754 O   0  0  0  0  0  0  0  0  0  0  0  0
    9.7259   -5.3080   18.4485 C   0  0  0  0  0  0  0  0  0  0  0  0
    9.4578   -5.0200   16.3036 N   0  0  0  0  0  0  0  0  0  0  0  0
    5.0287   -8.9365   16.8223 C   0  0  0  0  0  0  0  0  0  0  0  0
    8.7742   -6.1498   16.6764 C   0  0  0  0  0  0  0  0  0  0  0  0
   10.9418   -3.4032   21.2053 O   0  0  0  0  0  0  0  0  0  0  0  0
    1.4797   -8.6258   16.2950 C   0  0  0  0  0  0  0  0  0  0  0  0
    9.2861   -1.2743   25.3585 C   0  0  0  0  0  0  0  0  0  0  0  0
    1.8892  -10.3985   17.7511 N   0  0  0  0  0  0  0  0  0  0  0  0
    9.6210   -0.6952   24.0976 C   0  0  0  0  0  0  0  0  0  0  0  0
    7.0792   -9.0217   17.1429 C   0  0  0  0  0  0  0  0  0  0  0  0
    3.1713  -10.1816   17.6634 C   0  0  0  0  0  0  0  0  0  0  0  0
    2.7878   -8.3822   16.2137 C   0  0  0  0  0  0  0  0  0  0  0  0
    9.4601   -2.6590   25.6528 C   0  0  0  0  0  0  0  0  0  0  0  0
   10.1182   -1.5672   23.1165 C   0  0  0  0  0  0  0  0  0  0  0  0
    1.0552   -9.6360   17.0650 C   0  0  0  0  0  0  0  0  0  0  0  0
    3.6519   -9.1783   16.9039 C   0  0  0  0  0  0  0  0  0  0  0  0
    7.8675   -7.0096   15.9415 C   0  0  0  0  0  0  0  0  0  0  0  0
    5.9733   -9.6553   17.3832 N   0  0  0  0  0  0  0  0  0  0  0  0
   10.2411   -2.9363   23.4301 C   0  0  0  0  0  0  0  0  0  0  0  0
   10.7288   -3.8197   19.9525 C   0  0  0  0  0  0  0  0  0  0  0  0
   10.1189   -5.0054   19.6987 C   0  0  0  0  0  0  0  0  0  0  0  0
  1  3  4  0
  1  7  4  0
  2 21  4  0
  2 27  4  0
  3  9  4  0
  3 10  4  0
  4  8  4  0
  4 18  4  0
  4 25  1  0
  5  9  4  0
  5 12  4  0
  6 13  1  0
  6 27  1  0
  7 28  4  0
  8 11  4  0
  9 29  4  0
 10 12  4  0
 11 24  1  0
 11 26  4  0
 12 25  1  0
 13 28  1  0
 14 20  4  0
 14 23  4  0
 15 17  4  0
 15 21  4  0
 16 19  4  0
 16 23  4  0
 17 22  4  0
 18 26  4  0
 19 24  4  0
 20 24  4  0
 22 27  4  0
 28 29  4  0
M  END
$$$$

 Created by Python create_sdf_string function

 29 33  0  0  0  0  0  0  0  0999 V2000
   10.7215   -3.3326   17.6437 C   0  0  0  0  0  0  0  0  0  0  0  0
    9.9489   -3.4675   24.6487 N   0  0  0  0  0  0  0  0  0  0  0  0
   10.0172   -4.4740   17.4101 C   0  0  0  0  0  0  0  0  0  0  0  0
    6.9051   -7.9575   16.4222 C   0  0  0  0  0  0  0  0  0  0  0  0
    8.9969   -6.3552   17.9668 N   0  0  0  0  0  0  0  0  0  0  0  0
   10.6702   -3.9051   22.4070 C   0  0  0  0  0  0  0  0  0  0  0  0
   11.0625   -3.0028   18.8894 C   0  0  0  0  0  0  0  0  0  0  0  0
    5.6180   -7.9194   16.1754 O   0  0  0  0  0  0  0  0  0  0  0  0
    9.7259   -5.3080   18.4485 C   0  0  0  0  0  0  0  0  0  0  0  0
    9.4578   -5.0200   16.3036 N   0  0  0  0  0  0  0  0  0  0  0  0
    5.0287   -8.9365   16.8223 C   0  0  0  0  0  0  0  0  0  0  0  0
    8.7742   -6.1498   16.6764 C   0  0  0  0  0  0  0  0  0  0  0  0
   10.9418   -3.4032   21.2053 O   0  0  0  0  0  0  0  0  0  0  0  0
    1.4797   -8.6258   16.2950 C   0  0  0  0  0  0  0  0  0  0  0  0
    9.2861   -1.2743   25.3585 C   0  0  0  0  0  0  0  0  0  0  0  0
    1.8892  -10.3985   17.7511 N   0  0  0  0  0  0  0  0  0  0  0  0
    9.6210   -0.6952   24.0976 C   0  0  0  0  0  0  0  0  0  0  0  0
    7.0792   -9.0217   17.1429 C   0  0  0  0  0  0  0  0  0  0  0  0
    3.1713  -10.1816   17.6634 C   0  0  0  0  0  0  0  0  0  0  0  0
    2.7878   -8.3822   16.2137 C   0  0  0  0  0  0  0  0  0  0  0  0
    9.4601   -2.6590   25.6528 C   0  0  0  0  0  0  0  0  0  0  0  0
   10.1182   -1.5672   23.1165 C   0  0  0  0  0  0  0  0  0  0  0  0
    1.0552   -9.6360   17.0650 C   0  0  0  0  0  0  0  0  0  0  0  0
    3.6519   -9.1783   16.9039 C   0  0  0  0  0  0  0  0  0  0  0  0
    7.8675   -7.0096   15.9415 C   0  0  0  0  0  0  0  0  0  0  0  0
    5.9733   -9.6553   17.3832 N   0  0  0  0  0  0  0  0  0  0  0  0
   10.2411   -2.9363   23.4301 C   0  0  0  0  0  0  0  0  0  0  0  0
   10.7288   -3.8197   19.9525 C   0  0  0  0  0  0  0  0  0  0  0  0
   10.1189   -5.0054   19.6987 C   0  0  0  0  0  0  0  0  0  0  0  0
  1  3  4  0
  1  7  4  0
  2 21  4  0
  2 27  4  0
  3  9  4  0
  3 10  4  0
  4  8  4  0
  4 18  4  0
  4 25  1  0
  5  9  4  0
  5 12  4  0
  6 13  1  0
  6 27  1  0
  7 28  4  0
  8 11  4  0
  9 29  4  0
 10 12  4  0
 11 24  1  0
 11 26  4  0
 12 25  1  0
 13 28  1  0
 14 20  4  0
 14 23  4  0
 15 17  4  0
 15 21  4  0
 16 19  4  0
 16 23  4  0
 17 22  4  0
 18 26  4  0
 19 24  4  0
 20 24  4  0
 22 27  4  0
 28 29  4  0
M  END
$$$$

 Created by Python create_sdf_string function

 29 33  0  0  0  0  0  0  0  0999 V2000
   10.7215   -3.3326   17.6437 C   0  0  0  0  0  0  0  0  0  0  0  0
    9.9489   -3.4675   24.6487 N   0  0  0  0  0  0  0  0  0  0  0  0
   10.0172   -4.4740   17.4101 C   0  0  0  0  0  0  0  0  0  0  0  0
    6.9051   -7.9575   16.4222 C   0  0  0  0  0  0  0  0  0  0  0  0
    8.9969   -6.3552   17.9668 N   0  0  0  0  0  0  0  0  0  0  0  0
   10.6702   -3.9051   22.4070 C   0  0  0  0  0  0  0  0  0  0  0  0
   11.0625   -3.0028   18.8894 C   0  0  0  0  0  0  0  0  0  0  0  0
    5.6180   -7.9194   16.1754 O   0  0  0  0  0  0  0  0  0  0  0  0
    9.7259   -5.3080   18.4485 C   0  0  0  0  0  0  0  0  0  0  0  0
    9.4578   -5.0200   16.3036 N   0  0  0  0  0  0  0  0  0  0  0  0
    5.0287   -8.9365   16.8223 C   0  0  0  0  0  0  0  0  0  0  0  0
    8.7742   -6.1498   16.6764 C   0  0  0  0  0  0  0  0  0  0  0  0
   10.9418   -3.4032   21.2053 O   0  0  0  0  0  0  0  0  0  0  0  0
    1.4797   -8.6258   16.2950 C   0  0  0  0  0  0  0  0  0  0  0  0
    9.2861   -1.2743   25.3585 C   0  0  0  0  0  0  0  0  0  0  0  0
    1.8892  -10.3985   17.7511 N   0  0  0  0  0  0  0  0  0  0  0  0
    9.6210   -0.6952   24.0976 C   0  0  0  0  0  0  0  0  0  0  0  0
    7.0792   -9.0217   17.1429 C   0  0  0  0  0  0  0  0  0  0  0  0
    3.1713  -10.1816   17.6634 C   0  0  0  0  0  0  0  0  0  0  0  0
    2.7878   -8.3822   16.2137 C   0  0  0  0  0  0  0  0  0  0  0  0
    9.4601   -2.6590   25.6528 C   0  0  0  0  0  0  0  0  0  0  0  0
   10.1182   -1.5672   23.1165 C   0  0  0  0  0  0  0  0  0  0  0  0
    1.0552   -9.6360   17.0650 C   0  0  0  0  0  0  0  0  0  0  0  0
    3.6519   -9.1783   16.9039 C   0  0  0  0  0  0  0  0  0  0  0  0
    7.8675   -7.0096   15.9415 C   0  0  0  0  0  0  0  0  0  0  0  0
    5.9733   -9.6553   17.3832 N   0  0  0  0  0  0  0  0  0  0  0  0
   10.2411   -2.9363   23.4301 C   0  0  0  0  0  0  0  0  0  0  0  0
   10.7288   -3.8197   19.9525 C   0  0  0  0  0  0  0  0  0  0  0  0
   10.1189   -5.0054   19.6987 C   0  0  0  0  0  0  0  0  0  0  0  0
  1  3  4  0
  1  7  4  0
  2 21  4  0
  2 27  4  0
  3  9  4  0
  3 10  4  0
  4  8  4  0
  4 18  4  0
  4 25  1  0
  5  9  4  0
  5 12  4  0
  6 13  1  0
  6 27  1  0
  7 28  4  0
  8 11  4  0
  9 29  4  0
 10 12  4  0
 11 24  1  0
 11 26  4  0
 12 25  1  0
 13 28  1  0
 14 20  4  0
 14 23  4  0
 15 17  4  0
 15 21  4  0
 16 19  4  0
 16 23  4  0
 17 22  4  0
 18 26  4  0
 19 24  4  0
 20 24  4  0
 22 27  4  0
 28 29  4  0
M  END
$$$$

 Created by Python create_sdf_string function

 29 33  0  0  0  0  0  0  0  0999 V2000
   10.7215   -3.3326   17.6437 C   0  0  0  0  0  0  0  0  0  0  0  0
    9.9489   -3.4675   24.6487 N   0  0  0  0  0  0  0  0  0  0  0  0
   10.0172   -4.4740   17.4101 C   0  0  0  0  0  0  0  0  0  0  0  0
    6.9051   -7.9575   16.4222 C   0  0  0  0  0  0  0  0  0  0  0  0
    8.9969   -6.3552   17.9668 N   0  0  0  0  0  0  0  0  0  0  0  0
   10.6702   -3.9051   22.4070 C   0  0  0  0  0  0  0  0  0  0  0  0
   11.0625   -3.0028   18.8894 C   0  0  0  0  0  0  0  0  0  0  0  0
    5.6180   -7.9194   16.1754 O   0  0  0  0  0  0  0  0  0  0  0  0
    9.7259   -5.3080   18.4485 C   0  0  0  0  0  0  0  0  0  0  0  0
    9.4578   -5.0200   16.3036 N   0  0  0  0  0  0  0  0  0  0  0  0
    5.0287   -8.9365   16.8223 C   0  0  0  0  0  0  0  0  0  0  0  0
    8.7742   -6.1498   16.6764 C   0  0  0  0  0  0  0  0  0  0  0  0
   10.9418   -3.4032   21.2053 O   0  0  0  0  0  0  0  0  0  0  0  0
    1.4797   -8.6258   16.2950 C   0  0  0  0  0  0  0  0  0  0  0  0
    9.2861   -1.2743   25.3585 C   0  0  0  0  0  0  0  0  0  0  0  0
    1.8892  -10.3985   17.7511 N   0  0  0  0  0  0  0  0  0  0  0  0
    9.6210   -0.6952   24.0976 C   0  0  0  0  0  0  0  0  0  0  0  0
    7.0792   -9.0217   17.1429 C   0  0  0  0  0  0  0  0  0  0  0  0
    3.1713  -10.1816   17.6634 C   0  0  0  0  0  0  0  0  0  0  0  0
    2.7878   -8.3822   16.2137 C   0  0  0  0  0  0  0  0  0  0  0  0
    9.4601   -2.6590   25.6528 C   0  0  0  0  0  0  0  0  0  0  0  0
   10.1182   -1.5672   23.1165 C   0  0  0  0  0  0  0  0  0  0  0  0
    1.0552   -9.6360   17.0650 C   0  0  0  0  0  0  0  0  0  0  0  0
    3.6519   -9.1783   16.9039 C   0  0  0  0  0  0  0  0  0  0  0  0
    7.8675   -7.0096   15.9415 C   0  0  0  0  0  0  0  0  0  0  0  0
    5.9733   -9.6553   17.3832 N   0  0  0  0  0  0  0  0  0  0  0  0
   10.2411   -2.9363   23.4301 C   0  0  0  0  0  0  0  0  0  0  0  0
   10.7288   -3.8197   19.9525 C   0  0  0  0  0  0  0  0  0  0  0  0
   10.1189   -5.0054   19.6987 C   0  0  0  0  0  0  0  0  0  0  0  0
  1  3  4  0
  1  7  4  0
  2 21  4  0
  2 27  4  0
  3  9  4  0
  3 10  4  0
  4  8  4  0
  4 18  4  0
  4 25  1  0
  5  9  4  0
  5 12  4  0
  6 13  1  0
  6 27  1  0
  7 28  4  0
  8 11  4  0
  9 29  4  0
 10 12  4  0
 11 24  1  0
 11 26  4  0
 12 25  1  0
 13 28  1  0
 14 20  4  0
 14 23  4  0
 15 17  4  0
 15 21  4  0
 16 19  4  0
 16 23  4  0
 17 22  4  0
 18 26  4  0
 19 24  4  0
 20 24  4  0
 22 27  4  0
 28 29  4  0
M  END
$$$$

 Created by Python create_sdf_string function

 29 33  0  0  0  0  0  0  0  0999 V2000
   10.7215   -3.3326   17.6437 C   0  0  0  0  0  0  0  0  0  0  0  0
    9.9489   -3.4675   24.6487 N   0  0  0  0  0  0  0  0  0  0  0  0
   10.0172   -4.4740   17.4101 C   0  0  0  0  0  0  0  0  0  0  0  0
    6.9051   -7.9575   16.4222 C   0  0  0  0  0  0  0  0  0  0  0  0
    8.9969   -6.3552   17.9668 N   0  0  0  0  0  0  0  0  0  0  0  0
   10.6702   -3.9051   22.4070 C   0  0  0  0  0  0  0  0  0  0  0  0
   11.0625   -3.0028   18.8894 C   0  0  0  0  0  0  0  0  0  0  0  0
    5.6180   -7.9194   16.1754 O   0  0  0  0  0  0  0  0  0  0  0  0
    9.7259   -5.3080   18.4485 C   0  0  0  0  0  0  0  0  0  0  0  0
    9.4578   -5.0200   16.3036 N   0  0  0  0  0  0  0  0  0  0  0  0
    5.0287   -8.9365   16.8223 C   0  0  0  0  0  0  0  0  0  0  0  0
    8.7742   -6.1498   16.6764 C   0  0  0  0  0  0  0  0  0  0  0  0
   10.9418   -3.4032   21.2053 O   0  0  0  0  0  0  0  0  0  0  0  0
    1.4797   -8.6258   16.2950 C   0  0  0  0  0  0  0  0  0  0  0  0
    9.2861   -1.2743   25.3585 C   0  0  0  0  0  0  0  0  0  0  0  0
    1.8892  -10.3985   17.7511 N   0  0  0  0  0  0  0  0  0  0  0  0
    9.6210   -0.6952   24.0976 C   0  0  0  0  0  0  0  0  0  0  0  0
    7.0792   -9.0217   17.1429 C   0  0  0  0  0  0  0  0  0  0  0  0
    3.1713  -10.1816   17.6634 C   0  0  0  0  0  0  0  0  0  0  0  0
    2.7878   -8.3822   16.2137 C   0  0  0  0  0  0  0  0  0  0  0  0
    9.4601   -2.6590   25.6528 C   0  0  0  0  0  0  0  0  0  0  0  0
   10.1182   -1.5672   23.1165 C   0  0  0  0  0  0  0  0  0  0  0  0
    1.0552   -9.6360   17.0650 C   0  0  0  0  0  0  0  0  0  0  0  0
    3.6519   -9.1783   16.9039 C   0  0  0  0  0  0  0  0  0  0  0  0
    7.8675   -7.0096   15.9415 C   0  0  0  0  0  0  0  0  0  0  0  0
    5.9733   -9.6553   17.3832 N   0  0  0  0  0  0  0  0  0  0  0  0
   10.2411   -2.9363   23.4301 C   0  0  0  0  0  0  0  0  0  0  0  0
   10.7288   -3.8197   19.9525 C   0  0  0  0  0  0  0  0  0  0  0  0
   10.1189   -5.0054   19.6987 C   0  0  0  0  0  0  0  0  0  0  0  0
  1  3  4  0
  1  7  4  0
  2 21  4  0
  2 27  4  0
  3  9  4  0
  3 10  4  0
  4  8  4  0
  4 18  4  0
  4 25  1  0
  5  9  4  0
  5 12  4  0
  6 13  1  0
  6 27  1  0
  7 28  4  0
  8 11  4  0
  9 29  4  0
 10 12  4  0
 11 24  1  0
 11 26  4  0
 12 25  1  0
 13 28  1  0
 14 20  4  0
 14 23  4  0
 15 17  4  0
 15 21  4  0
 16 19  4  0
 16 23  4  0
 17 22  4  0
 18 26  4  0
 19 24  4  0
 20 24  4  0
 22 27  4  0
 28 29  4  0
M  END
$$$$

 Created by Python create_sdf_string function

 29 33  0  0  0  0  0  0  0  0999 V2000
   10.7215   -3.3326   17.6437 C   0  0  0  0  0  0  0  0  0  0  0  0
    9.9489   -3.4675   24.6487 N   0  0  0  0  0  0  0  0  0  0  0  0
   10.0172   -4.4740   17.4101 C   0  0  0  0  0  0  0  0  0  0  0  0
    6.9051   -7.9575   16.4222 C   0  0  0  0  0  0  0  0  0  0  0  0
    8.9969   -6.3552   17.9668 N   0  0  0  0  0  0  0  0  0  0  0  0
   10.6702   -3.9051   22.4070 C   0  0  0  0  0  0  0  0  0  0  0  0
   11.0625   -3.0028   18.8894 C   0  0  0  0  0  0  0  0  0  0  0  0
    5.6180   -7.9194   16.1754 O   0  0  0  0  0  0  0  0  0  0  0  0
    9.7259   -5.3080   18.4485 C   0  0  0  0  0  0  0  0  0  0  0  0
    9.4578   -5.0200   16.3036 N   0  0  0  0  0  0  0  0  0  0  0  0
    5.0287   -8.9365   16.8223 C   0  0  0  0  0  0  0  0  0  0  0  0
    8.7742   -6.1498   16.6764 C   0  0  0  0  0  0  0  0  0  0  0  0
   10.9418   -3.4032   21.2053 O   0  0  0  0  0  0  0  0  0  0  0  0
    1.4797   -8.6258   16.2950 C   0  0  0  0  0  0  0  0  0  0  0  0
    9.2861   -1.2743   25.3585 C   0  0  0  0  0  0  0  0  0  0  0  0
    1.8892  -10.3985   17.7511 N   0  0  0  0  0  0  0  0  0  0  0  0
    9.6210   -0.6952   24.0976 C   0  0  0  0  0  0  0  0  0  0  0  0
    7.0792   -9.0217   17.1429 C   0  0  0  0  0  0  0  0  0  0  0  0
    3.1713  -10.1816   17.6634 C   0  0  0  0  0  0  0  0  0  0  0  0
    2.7878   -8.3822   16.2137 C   0  0  0  0  0  0  0  0  0  0  0  0
    9.4601   -2.6590   25.6528 C   0  0  0  0  0  0  0  0  0  0  0  0
   10.1182   -1.5672   23.1165 C   0  0  0  0  0  0  0  0  0  0  0  0
    1.0552   -9.6360   17.0650 C   0  0  0  0  0  0  0  0  0  0  0  0
    3.6519   -9.1783   16.9039 C   0  0  0  0  0  0  0  0  0  0  0  0
    7.8675   -7.0096   15.9415 C   0  0  0  0  0  0  0  0  0  0  0  0
    5.9733   -9.6553   17.3832 N   0  0  0  0  0  0  0  0  0  0  0  0
   10.2411   -2.9363   23.4301 C   0  0  0  0  0  0  0  0  0  0  0  0
   10.7288   -3.8197   19.9525 C   0  0  0  0  0  0  0  0  0  0  0  0
   10.1189   -5.0054   19.6987 C   0  0  0  0  0  0  0  0  0  0  0  0
  1  3  4  0
  1  7  4  0
  2 21  4  0
  2 27  4  0
  3  9  4  0
  3 10  4  0
  4  8  4  0
  4 18  4  0
  4 25  1  0
  5  9  4  0
  5 12  4  0
  6 13  1  0
  6 27  1  0
  7 28  4  0
  8 11  4  0
  9 29  4  0
 10 12  4  0
 11 24  1  0
 11 26  4  0
 12 25  1  0
 13 28  1  0
 14 20  4  0
 14 23  4  0
 15 17  4  0
 15 21  4  0
 16 19  4  0
 16 23  4  0
 17 22  4  0
 18 26  4  0
 19 24  4  0
 20 24  4  0
 22 27  4  0
 28 29  4  0
M  END
$$$$

 Created by Python create_sdf_string function

 29 33  0  0  0  0  0  0  0  0999 V2000
   10.7215   -3.3326   17.6437 C   0  0  0  0  0  0  0  0  0  0  0  0
    9.9489   -3.4675   24.6487 N   0  0  0  0  0  0  0  0  0  0  0  0
   10.0172   -4.4740   17.4101 C   0  0  0  0  0  0  0  0  0  0  0  0
    6.9051   -7.9575   16.4222 C   0  0  0  0  0  0  0  0  0  0  0  0
    8.9969   -6.3552   17.9668 N   0  0  0  0  0  0  0  0  0  0  0  0
   10.6702   -3.9051   22.4070 C   0  0  0  0  0  0  0  0  0  0  0  0
   11.0625   -3.0028   18.8894 C   0  0  0  0  0  0  0  0  0  0  0  0
    5.6180   -7.9194   16.1754 O   0  0  0  0  0  0  0  0  0  0  0  0
    9.7259   -5.3080   18.4485 C   0  0  0  0  0  0  0  0  0  0  0  0
    9.4578   -5.0200   16.3036 N   0  0  0  0  0  0  0  0  0  0  0  0
    5.0287   -8.9365   16.8223 C   0  0  0  0  0  0  0  0  0  0  0  0
    8.7742   -6.1498   16.6764 C   0  0  0  0  0  0  0  0  0  0  0  0
   10.9418   -3.4032   21.2053 O   0  0  0  0  0  0  0  0  0  0  0  0
    1.4797   -8.6258   16.2950 C   0  0  0  0  0  0  0  0  0  0  0  0
    9.2861   -1.2743   25.3585 C   0  0  0  0  0  0  0  0  0  0  0  0
    1.8892  -10.3985   17.7511 N   0  0  0  0  0  0  0  0  0  0  0  0
    9.6210   -0.6952   24.0976 C   0  0  0  0  0  0  0  0  0  0  0  0
    7.0792   -9.0217   17.1429 C   0  0  0  0  0  0  0  0  0  0  0  0
    3.1713  -10.1816   17.6634 C   0  0  0  0  0  0  0  0  0  0  0  0
    2.7878   -8.3822   16.2137 C   0  0  0  0  0  0  0  0  0  0  0  0
    9.4601   -2.6590   25.6528 C   0  0  0  0  0  0  0  0  0  0  0  0
   10.1182   -1.5672   23.1165 C   0  0  0  0  0  0  0  0  0  0  0  0
    1.0552   -9.6360   17.0650 C   0  0  0  0  0  0  0  0  0  0  0  0
    3.6519   -9.1783   16.9039 C   0  0  0  0  0  0  0  0  0  0  0  0
    7.8675   -7.0096   15.9415 C   0  0  0  0  0  0  0  0  0  0  0  0
    5.9733   -9.6553   17.3832 N   0  0  0  0  0  0  0  0  0  0  0  0
   10.2411   -2.9363   23.4301 C   0  0  0  0  0  0  0  0  0  0  0  0
   10.7288   -3.8197   19.9525 C   0  0  0  0  0  0  0  0  0  0  0  0
   10.1189   -5.0054   19.6987 C   0  0  0  0  0  0  0  0  0  0  0  0
  1  3  4  0
  1  7  4  0
  2 21  4  0
  2 27  4  0
  3  9  4  0
  3 10  4  0
  4  8  4  0
  4 18  4  0
  4 25  1  0
  5  9  4  0
  5 12  4  0
  6 13  1  0
  6 27  1  0
  7 28  4  0
  8 11  4  0
  9 29  4  0
 10 12  4  0
 11 24  1  0
 11 26  4  0
 12 25  1  0
 13 28  1  0
 14 20  4  0
 14 23  4  0
 15 17  4  0
 15 21  4  0
 16 19  4  0
 16 23  4  0
 17 22  4  0
 18 26  4  0
 19 24  4  0
 20 24  4  0
 22 27  4  0
 28 29  4  0
M  END
$$$$

 Created by Python create_sdf_string function

 29 33  0  0  0  0  0  0  0  0999 V2000
   10.7215   -3.3326   17.6437 C   0  0  0  0  0  0  0  0  0  0  0  0
    9.9489   -3.4675   24.6487 N   0  0  0  0  0  0  0  0  0  0  0  0
   10.0172   -4.4740   17.4101 C   0  0  0  0  0  0  0  0  0  0  0  0
    6.9051   -7.9575   16.4222 C   0  0  0  0  0  0  0  0  0  0  0  0
    8.9969   -6.3552   17.9668 N   0  0  0  0  0  0  0  0  0  0  0  0
   10.6702   -3.9051   22.4070 C   0  0  0  0  0  0  0  0  0  0  0  0
   11.0625   -3.0028   18.8894 C   0  0  0  0  0  0  0  0  0  0  0  0
    5.6180   -7.9194   16.1754 O   0  0  0  0  0  0  0  0  0  0  0  0
    9.7259   -5.3080   18.4485 C   0  0  0  0  0  0  0  0  0  0  0  0
    9.4578   -5.0200   16.3036 N   0  0  0  0  0  0  0  0  0  0  0  0
    5.0287   -8.9365   16.8223 C   0  0  0  0  0  0  0  0  0  0  0  0
    8.7742   -6.1498   16.6764 C   0  0  0  0  0  0  0  0  0  0  0  0
   10.9418   -3.4032   21.2053 O   0  0  0  0  0  0  0  0  0  0  0  0
    1.4797   -8.6258   16.2950 C   0  0  0  0  0  0  0  0  0  0  0  0
    9.2861   -1.2743   25.3585 C   0  0  0  0  0  0  0  0  0  0  0  0
    1.8892  -10.3985   17.7511 N   0  0  0  0  0  0  0  0  0  0  0  0
    9.6210   -0.6952   24.0976 C   0  0  0  0  0  0  0  0  0  0  0  0
    7.0792   -9.0217   17.1429 C   0  0  0  0  0  0  0  0  0  0  0  0
    3.1713  -10.1816   17.6634 C   0  0  0  0  0  0  0  0  0  0  0  0
    2.7878   -8.3822   16.2137 C   0  0  0  0  0  0  0  0  0  0  0  0
    9.4601   -2.6590   25.6528 C   0  0  0  0  0  0  0  0  0  0  0  0
   10.1182   -1.5672   23.1165 C   0  0  0  0  0  0  0  0  0  0  0  0
    1.0552   -9.6360   17.0650 C   0  0  0  0  0  0  0  0  0  0  0  0
    3.6519   -9.1783   16.9039 C   0  0  0  0  0  0  0  0  0  0  0  0
    7.8675   -7.0096   15.9415 C   0  0  0  0  0  0  0  0  0  0  0  0
    5.9733   -9.6553   17.3832 N   0  0  0  0  0  0  0  0  0  0  0  0
   10.2411   -2.9363   23.4301 C   0  0  0  0  0  0  0  0  0  0  0  0
   10.7288   -3.8197   19.9525 C   0  0  0  0  0  0  0  0  0  0  0  0
   10.1189   -5.0054   19.6987 C   0  0  0  0  0  0  0  0  0  0  0  0
  1  3  4  0
  1  7  4  0
  2 21  4  0
  2 27  4  0
  3  9  4  0
  3 10  4  0
  4  8  4  0
  4 18  4  0
  4 25  1  0
  5  9  4  0
  5 12  4  0
  6 13  1  0
  6 27  1  0
  7 28  4  0
  8 11  4  0
  9 29  4  0
 10 12  4  0
 11 24  1  0
 11 26  4  0
 12 25  1  0
 13 28  1  0
 14 20  4  0
 14 23  4  0
 15 17  4  0
 15 21  4  0
 16 19  4  0
 16 23  4  0
 17 22  4  0
 18 26  4  0
 19 24  4  0
 20 24  4  0
 22 27  4  0
 28 29  4  0
M  END
$$$$

 Created by Python create_sdf_string function

 29 33  0  0  0  0  0  0  0  0999 V2000
   10.7215   -3.3326   17.6437 C   0  0  0  0  0  0  0  0  0  0  0  0
    9.9489   -3.4675   24.6487 N   0  0  0  0  0  0  0  0  0  0  0  0
   10.0172   -4.4740   17.4101 C   0  0  0  0  0  0  0  0  0  0  0  0
    6.9051   -7.9575   16.4222 C   0  0  0  0  0  0  0  0  0  0  0  0
    8.9969   -6.3552   17.9668 N   0  0  0  0  0  0  0  0  0  0  0  0
   10.6702   -3.9051   22.4070 C   0  0  0  0  0  0  0  0  0  0  0  0
   11.0625   -3.0028   18.8894 C   0  0  0  0  0  0  0  0  0  0  0  0
    5.6180   -7.9194   16.1754 O   0  0  0  0  0  0  0  0  0  0  0  0
    9.7259   -5.3080   18.4485 C   0  0  0  0  0  0  0  0  0  0  0  0
    9.4578   -5.0200   16.3036 N   0  0  0  0  0  0  0  0  0  0  0  0
    5.0287   -8.9365   16.8223 C   0  0  0  0  0  0  0  0  0  0  0  0
    8.7742   -6.1498   16.6764 C   0  0  0  0  0  0  0  0  0  0  0  0
   10.9418   -3.4032   21.2053 O   0  0  0  0  0  0  0  0  0  0  0  0
    1.4797   -8.6258   16.2950 C   0  0  0  0  0  0  0  0  0  0  0  0
    9.2861   -1.2743   25.3585 C   0  0  0  0  0  0  0  0  0  0  0  0
    1.8892  -10.3985   17.7511 N   0  0  0  0  0  0  0  0  0  0  0  0
    9.6210   -0.6952   24.0976 C   0  0  0  0  0  0  0  0  0  0  0  0
    7.0792   -9.0217   17.1429 C   0  0  0  0  0  0  0  0  0  0  0  0
    3.1713  -10.1816   17.6634 C   0  0  0  0  0  0  0  0  0  0  0  0
    2.7878   -8.3822   16.2137 C   0  0  0  0  0  0  0  0  0  0  0  0
    9.4601   -2.6590   25.6528 C   0  0  0  0  0  0  0  0  0  0  0  0
   10.1182   -1.5672   23.1165 C   0  0  0  0  0  0  0  0  0  0  0  0
    1.0552   -9.6360   17.0650 C   0  0  0  0  0  0  0  0  0  0  0  0
    3.6519   -9.1783   16.9039 C   0  0  0  0  0  0  0  0  0  0  0  0
    7.8675   -7.0096   15.9415 C   0  0  0  0  0  0  0  0  0  0  0  0
    5.9733   -9.6553   17.3832 N   0  0  0  0  0  0  0  0  0  0  0  0
   10.2411   -2.9363   23.4301 C   0  0  0  0  0  0  0  0  0  0  0  0
   10.7288   -3.8197   19.9525 C   0  0  0  0  0  0  0  0  0  0  0  0
   10.1189   -5.0054   19.6987 C   0  0  0  0  0  0  0  0  0  0  0  0
  1  3  4  0
  1  7  4  0
  2 21  4  0
  2 27  4  0
  3  9  4  0
  3 10  4  0
  4  8  4  0
  4 18  4  0
  4 25  1  0
  5  9  4  0
  5 12  4  0
  6 13  1  0
  6 27  1  0
  7 28  4  0
  8 11  4  0
  9 29  4  0
 10 12  4  0
 11 24  1  0
 11 26  4  0
 12 25  1  0
 13 28  1  0
 14 20  4  0
 14 23  4  0
 15 17  4  0
 15 21  4  0
 16 19  4  0
 16 23  4  0
 17 22  4  0
 18 26  4  0
 19 24  4  0
 20 24  4  0
 22 27  4  0
 28 29  4  0
M  END
$$$$

 Created by Python create_sdf_string function

 29 33  0  0  0  0  0  0  0  0999 V2000
   10.7215   -3.3326   17.6437 C   0  0  0  0  0  0  0  0  0  0  0  0
    9.9489   -3.4675   24.6487 N   0  0  0  0  0  0  0  0  0  0  0  0
   10.0172   -4.4740   17.4101 C   0  0  0  0  0  0  0  0  0  0  0  0
    6.9051   -7.9575   16.4222 C   0  0  0  0  0  0  0  0  0  0  0  0
    8.9969   -6.3552   17.9668 N   0  0  0  0  0  0  0  0  0  0  0  0
   10.6702   -3.9051   22.4070 C   0  0  0  0  0  0  0  0  0  0  0  0
   11.0625   -3.0028   18.8894 C   0  0  0  0  0  0  0  0  0  0  0  0
    5.6180   -7.9194   16.1754 O   0  0  0  0  0  0  0  0  0  0  0  0
    9.7259   -5.3080   18.4485 C   0  0  0  0  0  0  0  0  0  0  0  0
    9.4578   -5.0200   16.3036 N   0  0  0  0  0  0  0  0  0  0  0  0
    5.0287   -8.9365   16.8223 C   0  0  0  0  0  0  0  0  0  0  0  0
    8.7742   -6.1498   16.6764 C   0  0  0  0  0  0  0  0  0  0  0  0
   10.9418   -3.4032   21.2053 O   0  0  0  0  0  0  0  0  0  0  0  0
    1.4797   -8.6258   16.2950 C   0  0  0  0  0  0  0  0  0  0  0  0
    9.2861   -1.2743   25.3585 C   0  0  0  0  0  0  0  0  0  0  0  0
    1.8892  -10.3985   17.7511 N   0  0  0  0  0  0  0  0  0  0  0  0
    9.6210   -0.6952   24.0976 C   0  0  0  0  0  0  0  0  0  0  0  0
    7.0792   -9.0217   17.1429 C   0  0  0  0  0  0  0  0  0  0  0  0
    3.1713  -10.1816   17.6634 C   0  0  0  0  0  0  0  0  0  0  0  0
    2.7878   -8.3822   16.2137 C   0  0  0  0  0  0  0  0  0  0  0  0
    9.4601   -2.6590   25.6528 C   0  0  0  0  0  0  0  0  0  0  0  0
   10.1182   -1.5672   23.1165 C   0  0  0  0  0  0  0  0  0  0  0  0
    1.0552   -9.6360   17.0650 C   0  0  0  0  0  0  0  0  0  0  0  0
    3.6519   -9.1783   16.9039 C   0  0  0  0  0  0  0  0  0  0  0  0
    7.8675   -7.0096   15.9415 C   0  0  0  0  0  0  0  0  0  0  0  0
    5.9733   -9.6553   17.3832 N   0  0  0  0  0  0  0  0  0  0  0  0
   10.2411   -2.9363   23.4301 C   0  0  0  0  0  0  0  0  0  0  0  0
   10.7288   -3.8197   19.9525 C   0  0  0  0  0  0  0  0  0  0  0  0
   10.1189   -5.0054   19.6987 C   0  0  0  0  0  0  0  0  0  0  0  0
  1  3  4  0
  1  7  4  0
  2 21  4  0
  2 27  4  0
  3  9  4  0
  3 10  4  0
  4  8  4  0
  4 18  4  0
  4 25  1  0
  5  9  4  0
  5 12  4  0
  6 13  1  0
  6 27  1  0
  7 28  4  0
  8 11  4  0
  9 29  4  0
 10 12  4  0
 11 24  1  0
 11 26  4  0
 12 25  1  0
 13 28  1  0
 14 20  4  0
 14 23  4  0
 15 17  4  0
 15 21  4  0
 16 19  4  0
 16 23  4  0
 17 22  4  0
 18 26  4  0
 19 24  4  0
 20 24  4  0
 22 27  4  0
 28 29  4  0
M  END
$$$$

 Created by Python create_sdf_string function

 29 33  0  0  0  0  0  0  0  0999 V2000
   10.7215   -3.3326   17.6437 C   0  0  0  0  0  0  0  0  0  0  0  0
    9.9489   -3.4675   24.6487 N   0  0  0  0  0  0  0  0  0  0  0  0
   10.0172   -4.4740   17.4101 C   0  0  0  0  0  0  0  0  0  0  0  0
    6.9051   -7.9575   16.4222 C   0  0  0  0  0  0  0  0  0  0  0  0
    8.9969   -6.3552   17.9668 N   0  0  0  0  0  0  0  0  0  0  0  0
   10.6702   -3.9051   22.4070 C   0  0  0  0  0  0  0  0  0  0  0  0
   11.0625   -3.0028   18.8894 C   0  0  0  0  0  0  0  0  0  0  0  0
    5.6180   -7.9194   16.1754 O   0  0  0  0  0  0  0  0  0  0  0  0
    9.7259   -5.3080   18.4485 C   0  0  0  0  0  0  0  0  0  0  0  0
    9.4578   -5.0200   16.3036 N   0  0  0  0  0  0  0  0  0  0  0  0
    5.0287   -8.9365   16.8223 C   0  0  0  0  0  0  0  0  0  0  0  0
    8.7742   -6.1498   16.6764 C   0  0  0  0  0  0  0  0  0  0  0  0
   10.9418   -3.4032   21.2053 O   0  0  0  0  0  0  0  0  0  0  0  0
    1.4797   -8.6258   16.2950 C   0  0  0  0  0  0  0  0  0  0  0  0
    9.2861   -1.2743   25.3585 C   0  0  0  0  0  0  0  0  0  0  0  0
    1.8892  -10.3985   17.7511 N   0  0  0  0  0  0  0  0  0  0  0  0
    9.6210   -0.6952   24.0976 C   0  0  0  0  0  0  0  0  0  0  0  0
    7.0792   -9.0217   17.1429 C   0  0  0  0  0  0  0  0  0  0  0  0
    3.1713  -10.1816   17.6634 C   0  0  0  0  0  0  0  0  0  0  0  0
    2.7878   -8.3822   16.2137 C   0  0  0  0  0  0  0  0  0  0  0  0
    9.4601   -2.6590   25.6528 C   0  0  0  0  0  0  0  0  0  0  0  0
   10.1182   -1.5672   23.1165 C   0  0  0  0  0  0  0  0  0  0  0  0
    1.0552   -9.6360   17.0650 C   0  0  0  0  0  0  0  0  0  0  0  0
    3.6519   -9.1783   16.9039 C   0  0  0  0  0  0  0  0  0  0  0  0
    7.8675   -7.0096   15.9415 C   0  0  0  0  0  0  0  0  0  0  0  0
    5.9733   -9.6553   17.3832 N   0  0  0  0  0  0  0  0  0  0  0  0
   10.2411   -2.9363   23.4301 C   0  0  0  0  0  0  0  0  0  0  0  0
   10.7288   -3.8197   19.9525 C   0  0  0  0  0  0  0  0  0  0  0  0
   10.1189   -5.0054   19.6987 C   0  0  0  0  0  0  0  0  0  0  0  0
  1  3  4  0
  1  7  4  0
  2 21  4  0
  2 27  4  0
  3  9  4  0
  3 10  4  0
  4  8  4  0
  4 18  4  0
  4 25  1  0
  5  9  4  0
  5 12  4  0
  6 13  1  0
  6 27  1  0
  7 28  4  0
  8 11  4  0
  9 29  4  0
 10 12  4  0
 11 24  1  0
 11 26  4  0
 12 25  1  0
 13 28  1  0
 14 20  4  0
 14 23  4  0
 15 17  4  0
 15 21  4  0
 16 19  4  0
 16 23  4  0
 17 22  4  0
 18 26  4  0
 19 24  4  0
 20 24  4  0
 22 27  4  0
 28 29  4  0
M  END
$$$$

 Created by Python create_sdf_string function

 29 33  0  0  0  0  0  0  0  0999 V2000
   10.7215   -3.3326   17.6437 C   0  0  0  0  0  0  0  0  0  0  0  0
    9.9489   -3.4675   24.6487 N   0  0  0  0  0  0  0  0  0  0  0  0
   10.0172   -4.4740   17.4101 C   0  0  0  0  0  0  0  0  0  0  0  0
    6.9051   -7.9575   16.4222 C   0  0  0  0  0  0  0  0  0  0  0  0
    8.9969   -6.3552   17.9668 N   0  0  0  0  0  0  0  0  0  0  0  0
   10.6702   -3.9051   22.4070 C   0  0  0  0  0  0  0  0  0  0  0  0
   11.0625   -3.0028   18.8894 C   0  0  0  0  0  0  0  0  0  0  0  0
    5.6180   -7.9194   16.1754 O   0  0  0  0  0  0  0  0  0  0  0  0
    9.7259   -5.3080   18.4485 C   0  0  0  0  0  0  0  0  0  0  0  0
    9.4578   -5.0200   16.3036 N   0  0  0  0  0  0  0  0  0  0  0  0
    5.0287   -8.9365   16.8223 C   0  0  0  0  0  0  0  0  0  0  0  0
    8.7742   -6.1498   16.6764 C   0  0  0  0  0  0  0  0  0  0  0  0
   10.9418   -3.4032   21.2053 O   0  0  0  0  0  0  0  0  0  0  0  0
    1.4797   -8.6258   16.2950 C   0  0  0  0  0  0  0  0  0  0  0  0
    9.2861   -1.2743   25.3585 C   0  0  0  0  0  0  0  0  0  0  0  0
    1.8892  -10.3985   17.7511 N   0  0  0  0  0  0  0  0  0  0  0  0
    9.6210   -0.6952   24.0976 C   0  0  0  0  0  0  0  0  0  0  0  0
    7.0792   -9.0217   17.1429 C   0  0  0  0  0  0  0  0  0  0  0  0
    3.1713  -10.1816   17.6634 C   0  0  0  0  0  0  0  0  0  0  0  0
    2.7878   -8.3822   16.2137 C   0  0  0  0  0  0  0  0  0  0  0  0
    9.4601   -2.6590   25.6528 C   0  0  0  0  0  0  0  0  0  0  0  0
   10.1182   -1.5672   23.1165 C   0  0  0  0  0  0  0  0  0  0  0  0
    1.0552   -9.6360   17.0650 C   0  0  0  0  0  0  0  0  0  0  0  0
    3.6519   -9.1783   16.9039 C   0  0  0  0  0  0  0  0  0  0  0  0
    7.8675   -7.0096   15.9415 C   0  0  0  0  0  0  0  0  0  0  0  0
    5.9733   -9.6553   17.3832 N   0  0  0  0  0  0  0  0  0  0  0  0
   10.2411   -2.9363   23.4301 C   0  0  0  0  0  0  0  0  0  0  0  0
   10.7288   -3.8197   19.9525 C   0  0  0  0  0  0  0  0  0  0  0  0
   10.1189   -5.0054   19.6987 C   0  0  0  0  0  0  0  0  0  0  0  0
  1  3  4  0
  1  7  4  0
  2 21  4  0
  2 27  4  0
  3  9  4  0
  3 10  4  0
  4  8  4  0
  4 18  4  0
  4 25  1  0
  5  9  4  0
  5 12  4  0
  6 13  1  0
  6 27  1  0
  7 28  4  0
  8 11  4  0
  9 29  4  0
 10 12  4  0
 11 24  1  0
 11 26  4  0
 12 25  1  0
 13 28  1  0
 14 20  4  0
 14 23  4  0
 15 17  4  0
 15 21  4  0
 16 19  4  0
 16 23  4  0
 17 22  4  0
 18 26  4  0
 19 24  4  0
 20 24  4  0
 22 27  4  0
 28 29  4  0
M  END
$$$$

 Created by Python create_sdf_string function

 29 33  0  0  0  0  0  0  0  0999 V2000
   10.7215   -3.3326   17.6437 C   0  0  0  0  0  0  0  0  0  0  0  0
    9.9489   -3.4675   24.6487 N   0  0  0  0  0  0  0  0  0  0  0  0
   10.0172   -4.4740   17.4101 C   0  0  0  0  0  0  0  0  0  0  0  0
    6.9051   -7.9575   16.4222 C   0  0  0  0  0  0  0  0  0  0  0  0
    8.9969   -6.3552   17.9668 N   0  0  0  0  0  0  0  0  0  0  0  0
   10.6702   -3.9051   22.4070 C   0  0  0  0  0  0  0  0  0  0  0  0
   11.0625   -3.0028   18.8894 C   0  0  0  0  0  0  0  0  0  0  0  0
    5.6180   -7.9194   16.1754 O   0  0  0  0  0  0  0  0  0  0  0  0
    9.7259   -5.3080   18.4485 C   0  0  0  0  0  0  0  0  0  0  0  0
    9.4578   -5.0200   16.3036 N   0  0  0  0  0  0  0  0  0  0  0  0
    5.0287   -8.9365   16.8223 C   0  0  0  0  0  0  0  0  0  0  0  0
    8.7742   -6.1498   16.6764 C   0  0  0  0  0  0  0  0  0  0  0  0
   10.9418   -3.4032   21.2053 O   0  0  0  0  0  0  0  0  0  0  0  0
    1.4797   -8.6258   16.2950 C   0  0  0  0  0  0  0  0  0  0  0  0
    9.2861   -1.2743   25.3585 C   0  0  0  0  0  0  0  0  0  0  0  0
    1.8892  -10.3985   17.7511 N   0  0  0  0  0  0  0  0  0  0  0  0
    9.6210   -0.6952   24.0976 C   0  0  0  0  0  0  0  0  0  0  0  0
    7.0792   -9.0217   17.1429 C   0  0  0  0  0  0  0  0  0  0  0  0
    3.1713  -10.1816   17.6634 C   0  0  0  0  0  0  0  0  0  0  0  0
    2.7878   -8.3822   16.2137 C   0  0  0  0  0  0  0  0  0  0  0  0
    9.4601   -2.6590   25.6528 C   0  0  0  0  0  0  0  0  0  0  0  0
   10.1182   -1.5672   23.1165 C   0  0  0  0  0  0  0  0  0  0  0  0
    1.0552   -9.6360   17.0650 C   0  0  0  0  0  0  0  0  0  0  0  0
    3.6519   -9.1783   16.9039 C   0  0  0  0  0  0  0  0  0  0  0  0
    7.8675   -7.0096   15.9415 C   0  0  0  0  0  0  0  0  0  0  0  0
    5.9733   -9.6553   17.3832 N   0  0  0  0  0  0  0  0  0  0  0  0
   10.2411   -2.9363   23.4301 C   0  0  0  0  0  0  0  0  0  0  0  0
   10.7288   -3.8197   19.9525 C   0  0  0  0  0  0  0  0  0  0  0  0
   10.1189   -5.0054   19.6987 C   0  0  0  0  0  0  0  0  0  0  0  0
  1  3  4  0
  1  7  4  0
  2 21  4  0
  2 27  4  0
  3  9  4  0
  3 10  4  0
  4  8  4  0
  4 18  4  0
  4 25  1  0
  5  9  4  0
  5 12  4  0
  6 13  1  0
  6 27  1  0
  7 28  4  0
  8 11  4  0
  9 29  4  0
 10 12  4  0
 11 24  1  0
 11 26  4  0
 12 25  1  0
 13 28  1  0
 14 20  4  0
 14 23  4  0
 15 17  4  0
 15 21  4  0
 16 19  4  0
 16 23  4  0
 17 22  4  0
 18 26  4  0
 19 24  4  0
 20 24  4  0
 22 27  4  0
 28 29  4  0
M  END
$$$$

 Created by Python create_sdf_string function

 29 33  0  0  0  0  0  0  0  0999 V2000
   10.7215   -3.3326   17.6437 C   0  0  0  0  0  0  0  0  0  0  0  0
    9.9489   -3.4675   24.6487 N   0  0  0  0  0  0  0  0  0  0  0  0
   10.0172   -4.4740   17.4101 C   0  0  0  0  0  0  0  0  0  0  0  0
    6.9051   -7.9575   16.4222 C   0  0  0  0  0  0  0  0  0  0  0  0
    8.9969   -6.3552   17.9668 N   0  0  0  0  0  0  0  0  0  0  0  0
   10.6702   -3.9051   22.4070 C   0  0  0  0  0  0  0  0  0  0  0  0
   11.0625   -3.0028   18.8894 C   0  0  0  0  0  0  0  0  0  0  0  0
    5.6180   -7.9194   16.1754 O   0  0  0  0  0  0  0  0  0  0  0  0
    9.7259   -5.3080   18.4485 C   0  0  0  0  0  0  0  0  0  0  0  0
    9.4578   -5.0200   16.3036 N   0  0  0  0  0  0  0  0  0  0  0  0
    5.0287   -8.9365   16.8223 C   0  0  0  0  0  0  0  0  0  0  0  0
    8.7742   -6.1498   16.6764 C   0  0  0  0  0  0  0  0  0  0  0  0
   10.9418   -3.4032   21.2053 O   0  0  0  0  0  0  0  0  0  0  0  0
    1.4797   -8.6258   16.2950 C   0  0  0  0  0  0  0  0  0  0  0  0
    9.2861   -1.2743   25.3585 C   0  0  0  0  0  0  0  0  0  0  0  0
    1.8892  -10.3985   17.7511 N   0  0  0  0  0  0  0  0  0  0  0  0
    9.6210   -0.6952   24.0976 C   0  0  0  0  0  0  0  0  0  0  0  0
    7.0792   -9.0217   17.1429 C   0  0  0  0  0  0  0  0  0  0  0  0
    3.1713  -10.1816   17.6634 C   0  0  0  0  0  0  0  0  0  0  0  0
    2.7878   -8.3822   16.2137 C   0  0  0  0  0  0  0  0  0  0  0  0
    9.4601   -2.6590   25.6528 C   0  0  0  0  0  0  0  0  0  0  0  0
   10.1182   -1.5672   23.1165 C   0  0  0  0  0  0  0  0  0  0  0  0
    1.0552   -9.6360   17.0650 C   0  0  0  0  0  0  0  0  0  0  0  0
    3.6519   -9.1783   16.9039 C   0  0  0  0  0  0  0  0  0  0  0  0
    7.8675   -7.0096   15.9415 C   0  0  0  0  0  0  0  0  0  0  0  0
    5.9733   -9.6553   17.3832 N   0  0  0  0  0  0  0  0  0  0  0  0
   10.2411   -2.9363   23.4301 C   0  0  0  0  0  0  0  0  0  0  0  0
   10.7288   -3.8197   19.9525 C   0  0  0  0  0  0  0  0  0  0  0  0
   10.1189   -5.0054   19.6987 C   0  0  0  0  0  0  0  0  0  0  0  0
  1  3  4  0
  1  7  4  0
  2 21  4  0
  2 27  4  0
  3  9  4  0
  3 10  4  0
  4  8  4  0
  4 18  4  0
  4 25  1  0
  5  9  4  0
  5 12  4  0
  6 13  1  0
  6 27  1  0
  7 28  4  0
  8 11  4  0
  9 29  4  0
 10 12  4  0
 11 24  1  0
 11 26  4  0
 12 25  1  0
 13 28  1  0
 14 20  4  0
 14 23  4  0
 15 17  4  0
 15 21  4  0
 16 19  4  0
 16 23  4  0
 17 22  4  0
 18 26  4  0
 19 24  4  0
 20 24  4  0
 22 27  4  0
 28 29  4  0
M  END
$$$$

 Created by Python create_sdf_string function

 29 33  0  0  0  0  0  0  0  0999 V2000
   10.7215   -3.3326   17.6437 C   0  0  0  0  0  0  0  0  0  0  0  0
    9.9489   -3.4675   24.6487 N   0  0  0  0  0  0  0  0  0  0  0  0
   10.0172   -4.4740   17.4101 C   0  0  0  0  0  0  0  0  0  0  0  0
    6.9051   -7.9575   16.4222 C   0  0  0  0  0  0  0  0  0  0  0  0
    8.9969   -6.3552   17.9668 N   0  0  0  0  0  0  0  0  0  0  0  0
   10.6702   -3.9051   22.4070 C   0  0  0  0  0  0  0  0  0  0  0  0
   11.0625   -3.0028   18.8894 C   0  0  0  0  0  0  0  0  0  0  0  0
    5.6180   -7.9194   16.1754 O   0  0  0  0  0  0  0  0  0  0  0  0
    9.7259   -5.3080   18.4485 C   0  0  0  0  0  0  0  0  0  0  0  0
    9.4578   -5.0200   16.3036 N   0  0  0  0  0  0  0  0  0  0  0  0
    5.0287   -8.9365   16.8223 C   0  0  0  0  0  0  0  0  0  0  0  0
    8.7742   -6.1498   16.6764 C   0  0  0  0  0  0  0  0  0  0  0  0
   10.9418   -3.4032   21.2053 O   0  0  0  0  0  0  0  0  0  0  0  0
    1.4797   -8.6258   16.2950 C   0  0  0  0  0  0  0  0  0  0  0  0
    9.2861   -1.2743   25.3585 C   0  0  0  0  0  0  0  0  0  0  0  0
    1.8892  -10.3985   17.7511 N   0  0  0  0  0  0  0  0  0  0  0  0
    9.6210   -0.6952   24.0976 C   0  0  0  0  0  0  0  0  0  0  0  0
    7.0792   -9.0217   17.1429 C   0  0  0  0  0  0  0  0  0  0  0  0
    3.1713  -10.1816   17.6634 C   0  0  0  0  0  0  0  0  0  0  0  0
    2.7878   -8.3822   16.2137 C   0  0  0  0  0  0  0  0  0  0  0  0
    9.4601   -2.6590   25.6528 C   0  0  0  0  0  0  0  0  0  0  0  0
   10.1182   -1.5672   23.1165 C   0  0  0  0  0  0  0  0  0  0  0  0
    1.0552   -9.6360   17.0650 C   0  0  0  0  0  0  0  0  0  0  0  0
    3.6519   -9.1783   16.9039 C   0  0  0  0  0  0  0  0  0  0  0  0
    7.8675   -7.0096   15.9415 C   0  0  0  0  0  0  0  0  0  0  0  0
    5.9733   -9.6553   17.3832 N   0  0  0  0  0  0  0  0  0  0  0  0
   10.2411   -2.9363   23.4301 C   0  0  0  0  0  0  0  0  0  0  0  0
   10.7288   -3.8197   19.9525 C   0  0  0  0  0  0  0  0  0  0  0  0
   10.1189   -5.0054   19.6987 C   0  0  0  0  0  0  0  0  0  0  0  0
  1  3  4  0
  1  7  4  0
  2 21  4  0
  2 27  4  0
  3  9  4  0
  3 10  4  0
  4  8  4  0
  4 18  4  0
  4 25  1  0
  5  9  4  0
  5 12  4  0
  6 13  1  0
  6 27  1  0
  7 28  4  0
  8 11  4  0
  9 29  4  0
 10 12  4  0
 11 24  1  0
 11 26  4  0
 12 25  1  0
 13 28  1  0
 14 20  4  0
 14 23  4  0
 15 17  4  0
 15 21  4  0
 16 19  4  0
 16 23  4  0
 17 22  4  0
 18 26  4  0
 19 24  4  0
 20 24  4  0
 22 27  4  0
 28 29  4  0
M  END
$$$$

 Created by Python create_sdf_string function

 29 33  0  0  0  0  0  0  0  0999 V2000
   10.7215   -3.3326   17.6437 C   0  0  0  0  0  0  0  0  0  0  0  0
    9.9489   -3.4675   24.6487 N   0  0  0  0  0  0  0  0  0  0  0  0
   10.0172   -4.4740   17.4101 C   0  0  0  0  0  0  0  0  0  0  0  0
    6.9051   -7.9575   16.4222 C   0  0  0  0  0  0  0  0  0  0  0  0
    8.9969   -6.3552   17.9668 N   0  0  0  0  0  0  0  0  0  0  0  0
   10.6702   -3.9051   22.4070 C   0  0  0  0  0  0  0  0  0  0  0  0
   11.0625   -3.0028   18.8894 C   0  0  0  0  0  0  0  0  0  0  0  0
    5.6180   -7.9194   16.1754 O   0  0  0  0  0  0  0  0  0  0  0  0
    9.7259   -5.3080   18.4485 C   0  0  0  0  0  0  0  0  0  0  0  0
    9.4578   -5.0200   16.3036 N   0  0  0  0  0  0  0  0  0  0  0  0
    5.0287   -8.9365   16.8223 C   0  0  0  0  0  0  0  0  0  0  0  0
    8.7742   -6.1498   16.6764 C   0  0  0  0  0  0  0  0  0  0  0  0
   10.9418   -3.4032   21.2053 O   0  0  0  0  0  0  0  0  0  0  0  0
    1.4797   -8.6258   16.2950 C   0  0  0  0  0  0  0  0  0  0  0  0
    9.2861   -1.2743   25.3585 C   0  0  0  0  0  0  0  0  0  0  0  0
    1.8892  -10.3985   17.7511 N   0  0  0  0  0  0  0  0  0  0  0  0
    9.6210   -0.6952   24.0976 C   0  0  0  0  0  0  0  0  0  0  0  0
    7.0792   -9.0217   17.1429 C   0  0  0  0  0  0  0  0  0  0  0  0
    3.1713  -10.1816   17.6634 C   0  0  0  0  0  0  0  0  0  0  0  0
    2.7878   -8.3822   16.2137 C   0  0  0  0  0  0  0  0  0  0  0  0
    9.4601   -2.6590   25.6528 C   0  0  0  0  0  0  0  0  0  0  0  0
   10.1182   -1.5672   23.1165 C   0  0  0  0  0  0  0  0  0  0  0  0
    1.0552   -9.6360   17.0650 C   0  0  0  0  0  0  0  0  0  0  0  0
    3.6519   -9.1783   16.9039 C   0  0  0  0  0  0  0  0  0  0  0  0
    7.8675   -7.0096   15.9415 C   0  0  0  0  0  0  0  0  0  0  0  0
    5.9733   -9.6553   17.3832 N   0  0  0  0  0  0  0  0  0  0  0  0
   10.2411   -2.9363   23.4301 C   0  0  0  0  0  0  0  0  0  0  0  0
   10.7288   -3.8197   19.9525 C   0  0  0  0  0  0  0  0  0  0  0  0
   10.1189   -5.0054   19.6987 C   0  0  0  0  0  0  0  0  0  0  0  0
  1  3  4  0
  1  7  4  0
  2 21  4  0
  2 27  4  0
  3  9  4  0
  3 10  4  0
  4  8  4  0
  4 18  4  0
  4 25  1  0
  5  9  4  0
  5 12  4  0
  6 13  1  0
  6 27  1  0
  7 28  4  0
  8 11  4  0
  9 29  4  0
 10 12  4  0
 11 24  1  0
 11 26  4  0
 12 25  1  0
 13 28  1  0
 14 20  4  0
 14 23  4  0
 15 17  4  0
 15 21  4  0
 16 19  4  0
 16 23  4  0
 17 22  4  0
 18 26  4  0
 19 24  4  0
 20 24  4  0
 22 27  4  0
 28 29  4  0
M  END
$$$$

 Created by Python create_sdf_string function

 29 33  0  0  0  0  0  0  0  0999 V2000
   10.7215   -3.3326   17.6437 C   0  0  0  0  0  0  0  0  0  0  0  0
    9.9489   -3.4675   24.6487 N   0  0  0  0  0  0  0  0  0  0  0  0
   10.0172   -4.4740   17.4101 C   0  0  0  0  0  0  0  0  0  0  0  0
    6.9051   -7.9575   16.4222 C   0  0  0  0  0  0  0  0  0  0  0  0
    8.9969   -6.3552   17.9668 N   0  0  0  0  0  0  0  0  0  0  0  0
   10.6702   -3.9051   22.4070 C   0  0  0  0  0  0  0  0  0  0  0  0
   11.0625   -3.0028   18.8894 C   0  0  0  0  0  0  0  0  0  0  0  0
    5.6180   -7.9194   16.1754 O   0  0  0  0  0  0  0  0  0  0  0  0
    9.7259   -5.3080   18.4485 C   0  0  0  0  0  0  0  0  0  0  0  0
    9.4578   -5.0200   16.3036 N   0  0  0  0  0  0  0  0  0  0  0  0
    5.0287   -8.9365   16.8223 C   0  0  0  0  0  0  0  0  0  0  0  0
    8.7742   -6.1498   16.6764 C   0  0  0  0  0  0  0  0  0  0  0  0
   10.9418   -3.4032   21.2053 O   0  0  0  0  0  0  0  0  0  0  0  0
    1.4797   -8.6258   16.2950 C   0  0  0  0  0  0  0  0  0  0  0  0
    9.2861   -1.2743   25.3585 C   0  0  0  0  0  0  0  0  0  0  0  0
    1.8892  -10.3985   17.7511 N   0  0  0  0  0  0  0  0  0  0  0  0
    9.6210   -0.6952   24.0976 C   0  0  0  0  0  0  0  0  0  0  0  0
    7.0792   -9.0217   17.1429 C   0  0  0  0  0  0  0  0  0  0  0  0
    3.1713  -10.1816   17.6634 C   0  0  0  0  0  0  0  0  0  0  0  0
    2.7878   -8.3822   16.2137 C   0  0  0  0  0  0  0  0  0  0  0  0
    9.4601   -2.6590   25.6528 C   0  0  0  0  0  0  0  0  0  0  0  0
   10.1182   -1.5672   23.1165 C   0  0  0  0  0  0  0  0  0  0  0  0
    1.0552   -9.6360   17.0650 C   0  0  0  0  0  0  0  0  0  0  0  0
    3.6519   -9.1783   16.9039 C   0  0  0  0  0  0  0  0  0  0  0  0
    7.8675   -7.0096   15.9415 C   0  0  0  0  0  0  0  0  0  0  0  0
    5.9733   -9.6553   17.3832 N   0  0  0  0  0  0  0  0  0  0  0  0
   10.2411   -2.9363   23.4301 C   0  0  0  0  0  0  0  0  0  0  0  0
   10.7288   -3.8197   19.9525 C   0  0  0  0  0  0  0  0  0  0  0  0
   10.1189   -5.0054   19.6987 C   0  0  0  0  0  0  0  0  0  0  0  0
  1  3  4  0
  1  7  4  0
  2 21  4  0
  2 27  4  0
  3  9  4  0
  3 10  4  0
  4  8  4  0
  4 18  4  0
  4 25  1  0
  5  9  4  0
  5 12  4  0
  6 13  1  0
  6 27  1  0
  7 28  4  0
  8 11  4  0
  9 29  4  0
 10 12  4  0
 11 24  1  0
 11 26  4  0
 12 25  1  0
 13 28  1  0
 14 20  4  0
 14 23  4  0
 15 17  4  0
 15 21  4  0
 16 19  4  0
 16 23  4  0
 17 22  4  0
 18 26  4  0
 19 24  4  0
 20 24  4  0
 22 27  4  0
 28 29  4  0
M  END
$$$$

 Created by Python create_sdf_string function

 29 33  0  0  0  0  0  0  0  0999 V2000
   10.7215   -3.3326   17.6437 C   0  0  0  0  0  0  0  0  0  0  0  0
    9.9489   -3.4675   24.6487 N   0  0  0  0  0  0  0  0  0  0  0  0
   10.0172   -4.4740   17.4101 C   0  0  0  0  0  0  0  0  0  0  0  0
    6.9051   -7.9575   16.4222 C   0  0  0  0  0  0  0  0  0  0  0  0
    8.9969   -6.3552   17.9668 N   0  0  0  0  0  0  0  0  0  0  0  0
   10.6702   -3.9051   22.4070 C   0  0  0  0  0  0  0  0  0  0  0  0
   11.0625   -3.0028   18.8894 C   0  0  0  0  0  0  0  0  0  0  0  0
    5.6180   -7.9194   16.1754 O   0  0  0  0  0  0  0  0  0  0  0  0
    9.7259   -5.3080   18.4485 C   0  0  0  0  0  0  0  0  0  0  0  0
    9.4578   -5.0200   16.3036 N   0  0  0  0  0  0  0  0  0  0  0  0
    5.0287   -8.9365   16.8223 C   0  0  0  0  0  0  0  0  0  0  0  0
    8.7742   -6.1498   16.6764 C   0  0  0  0  0  0  0  0  0  0  0  0
   10.9418   -3.4032   21.2053 O   0  0  0  0  0  0  0  0  0  0  0  0
    1.4797   -8.6258   16.2950 C   0  0  0  0  0  0  0  0  0  0  0  0
    9.2861   -1.2743   25.3585 C   0  0  0  0  0  0  0  0  0  0  0  0
    1.8892  -10.3985   17.7511 N   0  0  0  0  0  0  0  0  0  0  0  0
    9.6210   -0.6952   24.0976 C   0  0  0  0  0  0  0  0  0  0  0  0
    7.0792   -9.0217   17.1429 C   0  0  0  0  0  0  0  0  0  0  0  0
    3.1713  -10.1816   17.6634 C   0  0  0  0  0  0  0  0  0  0  0  0
    2.7878   -8.3822   16.2137 C   0  0  0  0  0  0  0  0  0  0  0  0
    9.4601   -2.6590   25.6528 C   0  0  0  0  0  0  0  0  0  0  0  0
   10.1182   -1.5672   23.1165 C   0  0  0  0  0  0  0  0  0  0  0  0
    1.0552   -9.6360   17.0650 C   0  0  0  0  0  0  0  0  0  0  0  0
    3.6519   -9.1783   16.9039 C   0  0  0  0  0  0  0  0  0  0  0  0
    7.8675   -7.0096   15.9415 C   0  0  0  0  0  0  0  0  0  0  0  0
    5.9733   -9.6553   17.3832 N   0  0  0  0  0  0  0  0  0  0  0  0
   10.2411   -2.9363   23.4301 C   0  0  0  0  0  0  0  0  0  0  0  0
   10.7288   -3.8197   19.9525 C   0  0  0  0  0  0  0  0  0  0  0  0
   10.1189   -5.0054   19.6987 C   0  0  0  0  0  0  0  0  0  0  0  0
  1  3  4  0
  1  7  4  0
  2 21  4  0
  2 27  4  0
  3  9  4  0
  3 10  4  0
  4  8  4  0
  4 18  4  0
  4 25  1  0
  5  9  4  0
  5 12  4  0
  6 13  1  0
  6 27  1  0
  7 28  4  0
  8 11  4  0
  9 29  4  0
 10 12  4  0
 11 24  1  0
 11 26  4  0
 12 25  1  0
 13 28  1  0
 14 20  4  0
 14 23  4  0
 15 17  4  0
 15 21  4  0
 16 19  4  0
 16 23  4  0
 17 22  4  0
 18 26  4  0
 19 24  4  0
 20 24  4  0
 22 27  4  0
 28 29  4  0
M  END
$$$$

 Created by Python create_sdf_string function

 29 33  0  0  0  0  0  0  0  0999 V2000
   10.7215   -3.3326   17.6437 C   0  0  0  0  0  0  0  0  0  0  0  0
    9.9489   -3.4675   24.6487 N   0  0  0  0  0  0  0  0  0  0  0  0
   10.0172   -4.4740   17.4101 C   0  0  0  0  0  0  0  0  0  0  0  0
    6.9051   -7.9575   16.4222 C   0  0  0  0  0  0  0  0  0  0  0  0
    8.9969   -6.3552   17.9668 N   0  0  0  0  0  0  0  0  0  0  0  0
   10.6702   -3.9051   22.4070 C   0  0  0  0  0  0  0  0  0  0  0  0
   11.0625   -3.0028   18.8894 C   0  0  0  0  0  0  0  0  0  0  0  0
    5.6180   -7.9194   16.1754 O   0  0  0  0  0  0  0  0  0  0  0  0
    9.7259   -5.3080   18.4485 C   0  0  0  0  0  0  0  0  0  0  0  0
    9.4578   -5.0200   16.3036 N   0  0  0  0  0  0  0  0  0  0  0  0
    5.0287   -8.9365   16.8223 C   0  0  0  0  0  0  0  0  0  0  0  0
    8.7742   -6.1498   16.6764 C   0  0  0  0  0  0  0  0  0  0  0  0
   10.9418   -3.4032   21.2053 O   0  0  0  0  0  0  0  0  0  0  0  0
    1.4797   -8.6258   16.2950 C   0  0  0  0  0  0  0  0  0  0  0  0
    9.2861   -1.2743   25.3585 C   0  0  0  0  0  0  0  0  0  0  0  0
    1.8892  -10.3985   17.7511 N   0  0  0  0  0  0  0  0  0  0  0  0
    9.6210   -0.6952   24.0976 C   0  0  0  0  0  0  0  0  0  0  0  0
    7.0792   -9.0217   17.1429 C   0  0  0  0  0  0  0  0  0  0  0  0
    3.1713  -10.1816   17.6634 C   0  0  0  0  0  0  0  0  0  0  0  0
    2.7878   -8.3822   16.2137 C   0  0  0  0  0  0  0  0  0  0  0  0
    9.4601   -2.6590   25.6528 C   0  0  0  0  0  0  0  0  0  0  0  0
   10.1182   -1.5672   23.1165 C   0  0  0  0  0  0  0  0  0  0  0  0
    1.0552   -9.6360   17.0650 C   0  0  0  0  0  0  0  0  0  0  0  0
    3.6519   -9.1783   16.9039 C   0  0  0  0  0  0  0  0  0  0  0  0
    7.8675   -7.0096   15.9415 C   0  0  0  0  0  0  0  0  0  0  0  0
    5.9733   -9.6553   17.3832 N   0  0  0  0  0  0  0  0  0  0  0  0
   10.2411   -2.9363   23.4301 C   0  0  0  0  0  0  0  0  0  0  0  0
   10.7288   -3.8197   19.9525 C   0  0  0  0  0  0  0  0  0  0  0  0
   10.1189   -5.0054   19.6987 C   0  0  0  0  0  0  0  0  0  0  0  0
  1  3  4  0
  1  7  4  0
  2 21  4  0
  2 27  4  0
  3  9  4  0
  3 10  4  0
  4  8  4  0
  4 18  4  0
  4 25  1  0
  5  9  4  0
  5 12  4  0
  6 13  1  0
  6 27  1  0
  7 28  4  0
  8 11  4  0
  9 29  4  0
 10 12  4  0
 11 24  1  0
 11 26  4  0
 12 25  1  0
 13 28  1  0
 14 20  4  0
 14 23  4  0
 15 17  4  0
 15 21  4  0
 16 19  4  0
 16 23  4  0
 17 22  4  0
 18 26  4  0
 19 24  4  0
 20 24  4  0
 22 27  4  0
 28 29  4  0
M  END
$$$$

 Created by Python create_sdf_string function

 29 33  0  0  0  0  0  0  0  0999 V2000
   10.7215   -3.3326   17.6437 C   0  0  0  0  0  0  0  0  0  0  0  0
    9.9489   -3.4675   24.6487 N   0  0  0  0  0  0  0  0  0  0  0  0
   10.0172   -4.4740   17.4101 C   0  0  0  0  0  0  0  0  0  0  0  0
    6.9051   -7.9575   16.4222 C   0  0  0  0  0  0  0  0  0  0  0  0
    8.9969   -6.3552   17.9668 N   0  0  0  0  0  0  0  0  0  0  0  0
   10.6702   -3.9051   22.4070 C   0  0  0  0  0  0  0  0  0  0  0  0
   11.0625   -3.0028   18.8894 C   0  0  0  0  0  0  0  0  0  0  0  0
    5.6180   -7.9194   16.1754 O   0  0  0  0  0  0  0  0  0  0  0  0
    9.7259   -5.3080   18.4485 C   0  0  0  0  0  0  0  0  0  0  0  0
    9.4578   -5.0200   16.3036 N   0  0  0  0  0  0  0  0  0  0  0  0
    5.0287   -8.9365   16.8223 C   0  0  0  0  0  0  0  0  0  0  0  0
    8.7742   -6.1498   16.6764 C   0  0  0  0  0  0  0  0  0  0  0  0
   10.9418   -3.4032   21.2053 O   0  0  0  0  0  0  0  0  0  0  0  0
    1.4797   -8.6258   16.2950 C   0  0  0  0  0  0  0  0  0  0  0  0
    9.2861   -1.2743   25.3585 C   0  0  0  0  0  0  0  0  0  0  0  0
    1.8892  -10.3985   17.7511 N   0  0  0  0  0  0  0  0  0  0  0  0
    9.6210   -0.6952   24.0976 C   0  0  0  0  0  0  0  0  0  0  0  0
    7.0792   -9.0217   17.1429 C   0  0  0  0  0  0  0  0  0  0  0  0
    3.1713  -10.1816   17.6634 C   0  0  0  0  0  0  0  0  0  0  0  0
    2.7878   -8.3822   16.2137 C   0  0  0  0  0  0  0  0  0  0  0  0
    9.4601   -2.6590   25.6528 C   0  0  0  0  0  0  0  0  0  0  0  0
   10.1182   -1.5672   23.1165 C   0  0  0  0  0  0  0  0  0  0  0  0
    1.0552   -9.6360   17.0650 C   0  0  0  0  0  0  0  0  0  0  0  0
    3.6519   -9.1783   16.9039 C   0  0  0  0  0  0  0  0  0  0  0  0
    7.8675   -7.0096   15.9415 C   0  0  0  0  0  0  0  0  0  0  0  0
    5.9733   -9.6553   17.3832 N   0  0  0  0  0  0  0  0  0  0  0  0
   10.2411   -2.9363   23.4301 C   0  0  0  0  0  0  0  0  0  0  0  0
   10.7288   -3.8197   19.9525 C   0  0  0  0  0  0  0  0  0  0  0  0
   10.1189   -5.0054   19.6987 C   0  0  0  0  0  0  0  0  0  0  0  0
  1  3  4  0
  1  7  4  0
  2 21  4  0
  2 27  4  0
  3  9  4  0
  3 10  4  0
  4  8  4  0
  4 18  4  0
  4 25  1  0
  5  9  4  0
  5 12  4  0
  6 13  1  0
  6 27  1  0
  7 28  4  0
  8 11  4  0
  9 29  4  0
 10 12  4  0
 11 24  1  0
 11 26  4  0
 12 25  1  0
 13 28  1  0
 14 20  4  0
 14 23  4  0
 15 17  4  0
 15 21  4  0
 16 19  4  0
 16 23  4  0
 17 22  4  0
 18 26  4  0
 19 24  4  0
 20 24  4  0
 22 27  4  0
 28 29  4  0
M  END
$$$$

 Created by Python create_sdf_string function

 29 33  0  0  0  0  0  0  0  0999 V2000
   10.7215   -3.3326   17.6437 C   0  0  0  0  0  0  0  0  0  0  0  0
    9.9489   -3.4675   24.6487 N   0  0  0  0  0  0  0  0  0  0  0  0
   10.0172   -4.4740   17.4101 C   0  0  0  0  0  0  0  0  0  0  0  0
    6.9051   -7.9575   16.4222 C   0  0  0  0  0  0  0  0  0  0  0  0
    8.9969   -6.3552   17.9668 N   0  0  0  0  0  0  0  0  0  0  0  0
   10.6702   -3.9051   22.4070 C   0  0  0  0  0  0  0  0  0  0  0  0
   11.0625   -3.0028   18.8894 C   0  0  0  0  0  0  0  0  0  0  0  0
    5.6180   -7.9194   16.1754 O   0  0  0  0  0  0  0  0  0  0  0  0
    9.7259   -5.3080   18.4485 C   0  0  0  0  0  0  0  0  0  0  0  0
    9.4578   -5.0200   16.3036 N   0  0  0  0  0  0  0  0  0  0  0  0
    5.0287   -8.9365   16.8223 C   0  0  0  0  0  0  0  0  0  0  0  0
    8.7742   -6.1498   16.6764 C   0  0  0  0  0  0  0  0  0  0  0  0
   10.9418   -3.4032   21.2053 O   0  0  0  0  0  0  0  0  0  0  0  0
    1.4797   -8.6258   16.2950 C   0  0  0  0  0  0  0  0  0  0  0  0
    9.2861   -1.2743   25.3585 C   0  0  0  0  0  0  0  0  0  0  0  0
    1.8892  -10.3985   17.7511 N   0  0  0  0  0  0  0  0  0  0  0  0
    9.6210   -0.6952   24.0976 C   0  0  0  0  0  0  0  0  0  0  0  0
    7.0792   -9.0217   17.1429 C   0  0  0  0  0  0  0  0  0  0  0  0
    3.1713  -10.1816   17.6634 C   0  0  0  0  0  0  0  0  0  0  0  0
    2.7878   -8.3822   16.2137 C   0  0  0  0  0  0  0  0  0  0  0  0
    9.4601   -2.6590   25.6528 C   0  0  0  0  0  0  0  0  0  0  0  0
   10.1182   -1.5672   23.1165 C   0  0  0  0  0  0  0  0  0  0  0  0
    1.0552   -9.6360   17.0650 C   0  0  0  0  0  0  0  0  0  0  0  0
    3.6519   -9.1783   16.9039 C   0  0  0  0  0  0  0  0  0  0  0  0
    7.8675   -7.0096   15.9415 C   0  0  0  0  0  0  0  0  0  0  0  0
    5.9733   -9.6553   17.3832 N   0  0  0  0  0  0  0  0  0  0  0  0
   10.2411   -2.9363   23.4301 C   0  0  0  0  0  0  0  0  0  0  0  0
   10.7288   -3.8197   19.9525 C   0  0  0  0  0  0  0  0  0  0  0  0
   10.1189   -5.0054   19.6987 C   0  0  0  0  0  0  0  0  0  0  0  0
  1  3  4  0
  1  7  4  0
  2 21  4  0
  2 27  4  0
  3  9  4  0
  3 10  4  0
  4  8  4  0
  4 18  4  0
  4 25  1  0
  5  9  4  0
  5 12  4  0
  6 13  1  0
  6 27  1  0
  7 28  4  0
  8 11  4  0
  9 29  4  0
 10 12  4  0
 11 24  1  0
 11 26  4  0
 12 25  1  0
 13 28  1  0
 14 20  4  0
 14 23  4  0
 15 17  4  0
 15 21  4  0
 16 19  4  0
 16 23  4  0
 17 22  4  0
 18 26  4  0
 19 24  4  0
 20 24  4  0
 22 27  4  0
 28 29  4  0
M  END
$$$$

 Created by Python create_sdf_string function

 29 33  0  0  0  0  0  0  0  0999 V2000
   10.7215   -3.3326   17.6437 C   0  0  0  0  0  0  0  0  0  0  0  0
    9.9489   -3.4675   24.6487 N   0  0  0  0  0  0  0  0  0  0  0  0
   10.0172   -4.4740   17.4101 C   0  0  0  0  0  0  0  0  0  0  0  0
    6.9051   -7.9575   16.4222 C   0  0  0  0  0  0  0  0  0  0  0  0
    8.9969   -6.3552   17.9668 N   0  0  0  0  0  0  0  0  0  0  0  0
   10.6702   -3.9051   22.4070 C   0  0  0  0  0  0  0  0  0  0  0  0
   11.0625   -3.0028   18.8894 C   0  0  0  0  0  0  0  0  0  0  0  0
    5.6180   -7.9194   16.1754 O   0  0  0  0  0  0  0  0  0  0  0  0
    9.7259   -5.3080   18.4485 C   0  0  0  0  0  0  0  0  0  0  0  0
    9.4578   -5.0200   16.3036 N   0  0  0  0  0  0  0  0  0  0  0  0
    5.0287   -8.9365   16.8223 C   0  0  0  0  0  0  0  0  0  0  0  0
    8.7742   -6.1498   16.6764 C   0  0  0  0  0  0  0  0  0  0  0  0
   10.9418   -3.4032   21.2053 O   0  0  0  0  0  0  0  0  0  0  0  0
    1.4797   -8.6258   16.2950 C   0  0  0  0  0  0  0  0  0  0  0  0
    9.2861   -1.2743   25.3585 C   0  0  0  0  0  0  0  0  0  0  0  0
    1.8892  -10.3985   17.7511 N   0  0  0  0  0  0  0  0  0  0  0  0
    9.6210   -0.6952   24.0976 C   0  0  0  0  0  0  0  0  0  0  0  0
    7.0792   -9.0217   17.1429 C   0  0  0  0  0  0  0  0  0  0  0  0
    3.1713  -10.1816   17.6634 C   0  0  0  0  0  0  0  0  0  0  0  0
    2.7878   -8.3822   16.2137 C   0  0  0  0  0  0  0  0  0  0  0  0
    9.4601   -2.6590   25.6528 C   0  0  0  0  0  0  0  0  0  0  0  0
   10.1182   -1.5672   23.1165 C   0  0  0  0  0  0  0  0  0  0  0  0
    1.0552   -9.6360   17.0650 C   0  0  0  0  0  0  0  0  0  0  0  0
    3.6519   -9.1783   16.9039 C   0  0  0  0  0  0  0  0  0  0  0  0
    7.8675   -7.0096   15.9415 C   0  0  0  0  0  0  0  0  0  0  0  0
    5.9733   -9.6553   17.3832 N   0  0  0  0  0  0  0  0  0  0  0  0
   10.2411   -2.9363   23.4301 C   0  0  0  0  0  0  0  0  0  0  0  0
   10.7288   -3.8197   19.9525 C   0  0  0  0  0  0  0  0  0  0  0  0
   10.1189   -5.0054   19.6987 C   0  0  0  0  0  0  0  0  0  0  0  0
  1  3  4  0
  1  7  4  0
  2 21  4  0
  2 27  4  0
  3  9  4  0
  3 10  4  0
  4  8  4  0
  4 18  4  0
  4 25  1  0
  5  9  4  0
  5 12  4  0
  6 13  1  0
  6 27  1  0
  7 28  4  0
  8 11  4  0
  9 29  4  0
 10 12  4  0
 11 24  1  0
 11 26  4  0
 12 25  1  0
 13 28  1  0
 14 20  4  0
 14 23  4  0
 15 17  4  0
 15 21  4  0
 16 19  4  0
 16 23  4  0
 17 22  4  0
 18 26  4  0
 19 24  4  0
 20 24  4  0
 22 27  4  0
 28 29  4  0
M  END
$$$$

 Created by Python create_sdf_string function

 29 33  0  0  0  0  0  0  0  0999 V2000
   10.7215   -3.3326   17.6437 C   0  0  0  0  0  0  0  0  0  0  0  0
    9.9489   -3.4675   24.6487 N   0  0  0  0  0  0  0  0  0  0  0  0
   10.0172   -4.4740   17.4101 C   0  0  0  0  0  0  0  0  0  0  0  0
    6.9051   -7.9575   16.4222 C   0  0  0  0  0  0  0  0  0  0  0  0
    8.9969   -6.3552   17.9668 N   0  0  0  0  0  0  0  0  0  0  0  0
   10.6702   -3.9051   22.4070 C   0  0  0  0  0  0  0  0  0  0  0  0
   11.0625   -3.0028   18.8894 C   0  0  0  0  0  0  0  0  0  0  0  0
    5.6180   -7.9194   16.1754 O   0  0  0  0  0  0  0  0  0  0  0  0
    9.7259   -5.3080   18.4485 C   0  0  0  0  0  0  0  0  0  0  0  0
    9.4578   -5.0200   16.3036 N   0  0  0  0  0  0  0  0  0  0  0  0
    5.0287   -8.9365   16.8223 C   0  0  0  0  0  0  0  0  0  0  0  0
    8.7742   -6.1498   16.6764 C   0  0  0  0  0  0  0  0  0  0  0  0
   10.9418   -3.4032   21.2053 O   0  0  0  0  0  0  0  0  0  0  0  0
    1.4797   -8.6258   16.2950 C   0  0  0  0  0  0  0  0  0  0  0  0
    9.2861   -1.2743   25.3585 C   0  0  0  0  0  0  0  0  0  0  0  0
    1.8892  -10.3985   17.7511 N   0  0  0  0  0  0  0  0  0  0  0  0
    9.6210   -0.6952   24.0976 C   0  0  0  0  0  0  0  0  0  0  0  0
    7.0792   -9.0217   17.1429 C   0  0  0  0  0  0  0  0  0  0  0  0
    3.1713  -10.1816   17.6634 C   0  0  0  0  0  0  0  0  0  0  0  0
    2.7878   -8.3822   16.2137 C   0  0  0  0  0  0  0  0  0  0  0  0
    9.4601   -2.6590   25.6528 C   0  0  0  0  0  0  0  0  0  0  0  0
   10.1182   -1.5672   23.1165 C   0  0  0  0  0  0  0  0  0  0  0  0
    1.0552   -9.6360   17.0650 C   0  0  0  0  0  0  0  0  0  0  0  0
    3.6519   -9.1783   16.9039 C   0  0  0  0  0  0  0  0  0  0  0  0
    7.8675   -7.0096   15.9415 C   0  0  0  0  0  0  0  0  0  0  0  0
    5.9733   -9.6553   17.3832 N   0  0  0  0  0  0  0  0  0  0  0  0
   10.2411   -2.9363   23.4301 C   0  0  0  0  0  0  0  0  0  0  0  0
   10.7288   -3.8197   19.9525 C   0  0  0  0  0  0  0  0  0  0  0  0
   10.1189   -5.0054   19.6987 C   0  0  0  0  0  0  0  0  0  0  0  0
  1  3  4  0
  1  7  4  0
  2 21  4  0
  2 27  4  0
  3  9  4  0
  3 10  4  0
  4  8  4  0
  4 18  4  0
  4 25  1  0
  5  9  4  0
  5 12  4  0
  6 13  1  0
  6 27  1  0
  7 28  4  0
  8 11  4  0
  9 29  4  0
 10 12  4  0
 11 24  1  0
 11 26  4  0
 12 25  1  0
 13 28  1  0
 14 20  4  0
 14 23  4  0
 15 17  4  0
 15 21  4  0
 16 19  4  0
 16 23  4  0
 17 22  4  0
 18 26  4  0
 19 24  4  0
 20 24  4  0
 22 27  4  0
 28 29  4  0
M  END
$$$$

 Created by Python create_sdf_string function

 29 33  0  0  0  0  0  0  0  0999 V2000
   10.7215   -3.3326   17.6437 C   0  0  0  0  0  0  0  0  0  0  0  0
    9.9489   -3.4675   24.6487 N   0  0  0  0  0  0  0  0  0  0  0  0
   10.0172   -4.4740   17.4101 C   0  0  0  0  0  0  0  0  0  0  0  0
    6.9051   -7.9575   16.4222 C   0  0  0  0  0  0  0  0  0  0  0  0
    8.9969   -6.3552   17.9668 N   0  0  0  0  0  0  0  0  0  0  0  0
   10.6702   -3.9051   22.4070 C   0  0  0  0  0  0  0  0  0  0  0  0
   11.0625   -3.0028   18.8894 C   0  0  0  0  0  0  0  0  0  0  0  0
    5.6180   -7.9194   16.1754 O   0  0  0  0  0  0  0  0  0  0  0  0
    9.7259   -5.3080   18.4485 C   0  0  0  0  0  0  0  0  0  0  0  0
    9.4578   -5.0200   16.3036 N   0  0  0  0  0  0  0  0  0  0  0  0
    5.0287   -8.9365   16.8223 C   0  0  0  0  0  0  0  0  0  0  0  0
    8.7742   -6.1498   16.6764 C   0  0  0  0  0  0  0  0  0  0  0  0
   10.9418   -3.4032   21.2053 O   0  0  0  0  0  0  0  0  0  0  0  0
    1.4797   -8.6258   16.2950 C   0  0  0  0  0  0  0  0  0  0  0  0
    9.2861   -1.2743   25.3585 C   0  0  0  0  0  0  0  0  0  0  0  0
    1.8892  -10.3985   17.7511 N   0  0  0  0  0  0  0  0  0  0  0  0
    9.6210   -0.6952   24.0976 C   0  0  0  0  0  0  0  0  0  0  0  0
    7.0792   -9.0217   17.1429 C   0  0  0  0  0  0  0  0  0  0  0  0
    3.1713  -10.1816   17.6634 C   0  0  0  0  0  0  0  0  0  0  0  0
    2.7878   -8.3822   16.2137 C   0  0  0  0  0  0  0  0  0  0  0  0
    9.4601   -2.6590   25.6528 C   0  0  0  0  0  0  0  0  0  0  0  0
   10.1182   -1.5672   23.1165 C   0  0  0  0  0  0  0  0  0  0  0  0
    1.0552   -9.6360   17.0650 C   0  0  0  0  0  0  0  0  0  0  0  0
    3.6519   -9.1783   16.9039 C   0  0  0  0  0  0  0  0  0  0  0  0
    7.8675   -7.0096   15.9415 C   0  0  0  0  0  0  0  0  0  0  0  0
    5.9733   -9.6553   17.3832 N   0  0  0  0  0  0  0  0  0  0  0  0
   10.2411   -2.9363   23.4301 C   0  0  0  0  0  0  0  0  0  0  0  0
   10.7288   -3.8197   19.9525 C   0  0  0  0  0  0  0  0  0  0  0  0
   10.1189   -5.0054   19.6987 C   0  0  0  0  0  0  0  0  0  0  0  0
  1  3  4  0
  1  7  4  0
  2 21  4  0
  2 27  4  0
  3  9  4  0
  3 10  4  0
  4  8  4  0
  4 18  4  0
  4 25  1  0
  5  9  4  0
  5 12  4  0
  6 13  1  0
  6 27  1  0
  7 28  4  0
  8 11  4  0
  9 29  4  0
 10 12  4  0
 11 24  1  0
 11 26  4  0
 12 25  1  0
 13 28  1  0
 14 20  4  0
 14 23  4  0
 15 17  4  0
 15 21  4  0
 16 19  4  0
 16 23  4  0
 17 22  4  0
 18 26  4  0
 19 24  4  0
 20 24  4  0
 22 27  4  0
 28 29  4  0
M  END
$$$$

 Created by Python create_sdf_string function

 29 33  0  0  0  0  0  0  0  0999 V2000
   10.7215   -3.3326   17.6437 C   0  0  0  0  0  0  0  0  0  0  0  0
    9.9489   -3.4675   24.6487 N   0  0  0  0  0  0  0  0  0  0  0  0
   10.0172   -4.4740   17.4101 C   0  0  0  0  0  0  0  0  0  0  0  0
    6.9051   -7.9575   16.4222 C   0  0  0  0  0  0  0  0  0  0  0  0
    8.9969   -6.3552   17.9668 N   0  0  0  0  0  0  0  0  0  0  0  0
   10.6702   -3.9051   22.4070 C   0  0  0  0  0  0  0  0  0  0  0  0
   11.0625   -3.0028   18.8894 C   0  0  0  0  0  0  0  0  0  0  0  0
    5.6180   -7.9194   16.1754 O   0  0  0  0  0  0  0  0  0  0  0  0
    9.7259   -5.3080   18.4485 C   0  0  0  0  0  0  0  0  0  0  0  0
    9.4578   -5.0200   16.3036 N   0  0  0  0  0  0  0  0  0  0  0  0
    5.0287   -8.9365   16.8223 C   0  0  0  0  0  0  0  0  0  0  0  0
    8.7742   -6.1498   16.6764 C   0  0  0  0  0  0  0  0  0  0  0  0
   10.9418   -3.4032   21.2053 O   0  0  0  0  0  0  0  0  0  0  0  0
    1.4797   -8.6258   16.2950 C   0  0  0  0  0  0  0  0  0  0  0  0
    9.2861   -1.2743   25.3585 C   0  0  0  0  0  0  0  0  0  0  0  0
    1.8892  -10.3985   17.7511 N   0  0  0  0  0  0  0  0  0  0  0  0
    9.6210   -0.6952   24.0976 C   0  0  0  0  0  0  0  0  0  0  0  0
    7.0792   -9.0217   17.1429 C   0  0  0  0  0  0  0  0  0  0  0  0
    3.1713  -10.1816   17.6634 C   0  0  0  0  0  0  0  0  0  0  0  0
    2.7878   -8.3822   16.2137 C   0  0  0  0  0  0  0  0  0  0  0  0
    9.4601   -2.6590   25.6528 C   0  0  0  0  0  0  0  0  0  0  0  0
   10.1182   -1.5672   23.1165 C   0  0  0  0  0  0  0  0  0  0  0  0
    1.0552   -9.6360   17.0650 C   0  0  0  0  0  0  0  0  0  0  0  0
    3.6519   -9.1783   16.9039 C   0  0  0  0  0  0  0  0  0  0  0  0
    7.8675   -7.0096   15.9415 C   0  0  0  0  0  0  0  0  0  0  0  0
    5.9733   -9.6553   17.3832 N   0  0  0  0  0  0  0  0  0  0  0  0
   10.2411   -2.9363   23.4301 C   0  0  0  0  0  0  0  0  0  0  0  0
   10.7288   -3.8197   19.9525 C   0  0  0  0  0  0  0  0  0  0  0  0
   10.1189   -5.0054   19.6987 C   0  0  0  0  0  0  0  0  0  0  0  0
  1  3  4  0
  1  7  4  0
  2 21  4  0
  2 27  4  0
  3  9  4  0
  3 10  4  0
  4  8  4  0
  4 18  4  0
  4 25  1  0
  5  9  4  0
  5 12  4  0
  6 13  1  0
  6 27  1  0
  7 28  4  0
  8 11  4  0
  9 29  4  0
 10 12  4  0
 11 24  1  0
 11 26  4  0
 12 25  1  0
 13 28  1  0
 14 20  4  0
 14 23  4  0
 15 17  4  0
 15 21  4  0
 16 19  4  0
 16 23  4  0
 17 22  4  0
 18 26  4  0
 19 24  4  0
 20 24  4  0
 22 27  4  0
 28 29  4  0
M  END
$$$$

 Created by Python create_sdf_string function

 29 33  0  0  0  0  0  0  0  0999 V2000
   10.7215   -3.3326   17.6437 C   0  0  0  0  0  0  0  0  0  0  0  0
    9.9489   -3.4675   24.6487 N   0  0  0  0  0  0  0  0  0  0  0  0
   10.0172   -4.4740   17.4101 C   0  0  0  0  0  0  0  0  0  0  0  0
    6.9051   -7.9575   16.4222 C   0  0  0  0  0  0  0  0  0  0  0  0
    8.9969   -6.3552   17.9668 N   0  0  0  0  0  0  0  0  0  0  0  0
   10.6702   -3.9051   22.4070 C   0  0  0  0  0  0  0  0  0  0  0  0
   11.0625   -3.0028   18.8894 C   0  0  0  0  0  0  0  0  0  0  0  0
    5.6180   -7.9194   16.1754 O   0  0  0  0  0  0  0  0  0  0  0  0
    9.7259   -5.3080   18.4485 C   0  0  0  0  0  0  0  0  0  0  0  0
    9.4578   -5.0200   16.3036 N   0  0  0  0  0  0  0  0  0  0  0  0
    5.0287   -8.9365   16.8223 C   0  0  0  0  0  0  0  0  0  0  0  0
    8.7742   -6.1498   16.6764 C   0  0  0  0  0  0  0  0  0  0  0  0
   10.9418   -3.4032   21.2053 O   0  0  0  0  0  0  0  0  0  0  0  0
    1.4797   -8.6258   16.2950 C   0  0  0  0  0  0  0  0  0  0  0  0
    9.2861   -1.2743   25.3585 C   0  0  0  0  0  0  0  0  0  0  0  0
    1.8892  -10.3985   17.7511 N   0  0  0  0  0  0  0  0  0  0  0  0
    9.6210   -0.6952   24.0976 C   0  0  0  0  0  0  0  0  0  0  0  0
    7.0792   -9.0217   17.1429 C   0  0  0  0  0  0  0  0  0  0  0  0
    3.1713  -10.1816   17.6634 C   0  0  0  0  0  0  0  0  0  0  0  0
    2.7878   -8.3822   16.2137 C   0  0  0  0  0  0  0  0  0  0  0  0
    9.4601   -2.6590   25.6528 C   0  0  0  0  0  0  0  0  0  0  0  0
   10.1182   -1.5672   23.1165 C   0  0  0  0  0  0  0  0  0  0  0  0
    1.0552   -9.6360   17.0650 C   0  0  0  0  0  0  0  0  0  0  0  0
    3.6519   -9.1783   16.9039 C   0  0  0  0  0  0  0  0  0  0  0  0
    7.8675   -7.0096   15.9415 C   0  0  0  0  0  0  0  0  0  0  0  0
    5.9733   -9.6553   17.3832 N   0  0  0  0  0  0  0  0  0  0  0  0
   10.2411   -2.9363   23.4301 C   0  0  0  0  0  0  0  0  0  0  0  0
   10.7288   -3.8197   19.9525 C   0  0  0  0  0  0  0  0  0  0  0  0
   10.1189   -5.0054   19.6987 C   0  0  0  0  0  0  0  0  0  0  0  0
  1  3  4  0
  1  7  4  0
  2 21  4  0
  2 27  4  0
  3  9  4  0
  3 10  4  0
  4  8  4  0
  4 18  4  0
  4 25  1  0
  5  9  4  0
  5 12  4  0
  6 13  1  0
  6 27  1  0
  7 28  4  0
  8 11  4  0
  9 29  4  0
 10 12  4  0
 11 24  1  0
 11 26  4  0
 12 25  1  0
 13 28  1  0
 14 20  4  0
 14 23  4  0
 15 17  4  0
 15 21  4  0
 16 19  4  0
 16 23  4  0
 17 22  4  0
 18 26  4  0
 19 24  4  0
 20 24  4  0
 22 27  4  0
 28 29  4  0
M  END
$$$$

 Created by Python create_sdf_string function

 29 33  0  0  0  0  0  0  0  0999 V2000
   10.7215   -3.3326   17.6437 C   0  0  0  0  0  0  0  0  0  0  0  0
    9.9489   -3.4675   24.6487 N   0  0  0  0  0  0  0  0  0  0  0  0
   10.0172   -4.4740   17.4101 C   0  0  0  0  0  0  0  0  0  0  0  0
    6.9051   -7.9575   16.4222 C   0  0  0  0  0  0  0  0  0  0  0  0
    8.9969   -6.3552   17.9668 N   0  0  0  0  0  0  0  0  0  0  0  0
   10.6702   -3.9051   22.4070 C   0  0  0  0  0  0  0  0  0  0  0  0
   11.0625   -3.0028   18.8894 C   0  0  0  0  0  0  0  0  0  0  0  0
    5.6180   -7.9194   16.1754 O   0  0  0  0  0  0  0  0  0  0  0  0
    9.7259   -5.3080   18.4485 C   0  0  0  0  0  0  0  0  0  0  0  0
    9.4578   -5.0200   16.3036 N   0  0  0  0  0  0  0  0  0  0  0  0
    5.0287   -8.9365   16.8223 C   0  0  0  0  0  0  0  0  0  0  0  0
    8.7742   -6.1498   16.6764 C   0  0  0  0  0  0  0  0  0  0  0  0
   10.9418   -3.4032   21.2053 O   0  0  0  0  0  0  0  0  0  0  0  0
    1.4797   -8.6258   16.2950 C   0  0  0  0  0  0  0  0  0  0  0  0
    9.2861   -1.2743   25.3585 C   0  0  0  0  0  0  0  0  0  0  0  0
    1.8892  -10.3985   17.7511 N   0  0  0  0  0  0  0  0  0  0  0  0
    9.6210   -0.6952   24.0976 C   0  0  0  0  0  0  0  0  0  0  0  0
    7.0792   -9.0217   17.1429 C   0  0  0  0  0  0  0  0  0  0  0  0
    3.1713  -10.1816   17.6634 C   0  0  0  0  0  0  0  0  0  0  0  0
    2.7878   -8.3822   16.2137 C   0  0  0  0  0  0  0  0  0  0  0  0
    9.4601   -2.6590   25.6528 C   0  0  0  0  0  0  0  0  0  0  0  0
   10.1182   -1.5672   23.1165 C   0  0  0  0  0  0  0  0  0  0  0  0
    1.0552   -9.6360   17.0650 C   0  0  0  0  0  0  0  0  0  0  0  0
    3.6519   -9.1783   16.9039 C   0  0  0  0  0  0  0  0  0  0  0  0
    7.8675   -7.0096   15.9415 C   0  0  0  0  0  0  0  0  0  0  0  0
    5.9733   -9.6553   17.3832 N   0  0  0  0  0  0  0  0  0  0  0  0
   10.2411   -2.9363   23.4301 C   0  0  0  0  0  0  0  0  0  0  0  0
   10.7288   -3.8197   19.9525 C   0  0  0  0  0  0  0  0  0  0  0  0
   10.1189   -5.0054   19.6987 C   0  0  0  0  0  0  0  0  0  0  0  0
  1  3  4  0
  1  7  4  0
  2 21  4  0
  2 27  4  0
  3  9  4  0
  3 10  4  0
  4  8  4  0
  4 18  4  0
  4 25  1  0
  5  9  4  0
  5 12  4  0
  6 13  1  0
  6 27  1  0
  7 28  4  0
  8 11  4  0
  9 29  4  0
 10 12  4  0
 11 24  1  0
 11 26  4  0
 12 25  1  0
 13 28  1  0
 14 20  4  0
 14 23  4  0
 15 17  4  0
 15 21  4  0
 16 19  4  0
 16 23  4  0
 17 22  4  0
 18 26  4  0
 19 24  4  0
 20 24  4  0
 22 27  4  0
 28 29  4  0
M  END
$$$$

 Created by Python create_sdf_string function

 29 33  0  0  0  0  0  0  0  0999 V2000
   10.7215   -3.3326   17.6437 C   0  0  0  0  0  0  0  0  0  0  0  0
    9.9489   -3.4675   24.6487 N   0  0  0  0  0  0  0  0  0  0  0  0
   10.0172   -4.4740   17.4101 C   0  0  0  0  0  0  0  0  0  0  0  0
    6.9051   -7.9575   16.4222 C   0  0  0  0  0  0  0  0  0  0  0  0
    8.9969   -6.3552   17.9668 N   0  0  0  0  0  0  0  0  0  0  0  0
   10.6702   -3.9051   22.4070 C   0  0  0  0  0  0  0  0  0  0  0  0
   11.0625   -3.0028   18.8894 C   0  0  0  0  0  0  0  0  0  0  0  0
    5.6180   -7.9194   16.1754 O   0  0  0  0  0  0  0  0  0  0  0  0
    9.7259   -5.3080   18.4485 C   0  0  0  0  0  0  0  0  0  0  0  0
    9.4578   -5.0200   16.3036 N   0  0  0  0  0  0  0  0  0  0  0  0
    5.0287   -8.9365   16.8223 C   0  0  0  0  0  0  0  0  0  0  0  0
    8.7742   -6.1498   16.6764 C   0  0  0  0  0  0  0  0  0  0  0  0
   10.9418   -3.4032   21.2053 O   0  0  0  0  0  0  0  0  0  0  0  0
    1.4797   -8.6258   16.2950 C   0  0  0  0  0  0  0  0  0  0  0  0
    9.2861   -1.2743   25.3585 C   0  0  0  0  0  0  0  0  0  0  0  0
    1.8892  -10.3985   17.7511 N   0  0  0  0  0  0  0  0  0  0  0  0
    9.6210   -0.6952   24.0976 C   0  0  0  0  0  0  0  0  0  0  0  0
    7.0792   -9.0217   17.1429 C   0  0  0  0  0  0  0  0  0  0  0  0
    3.1713  -10.1816   17.6634 C   0  0  0  0  0  0  0  0  0  0  0  0
    2.7878   -8.3822   16.2137 C   0  0  0  0  0  0  0  0  0  0  0  0
    9.4601   -2.6590   25.6528 C   0  0  0  0  0  0  0  0  0  0  0  0
   10.1182   -1.5672   23.1165 C   0  0  0  0  0  0  0  0  0  0  0  0
    1.0552   -9.6360   17.0650 C   0  0  0  0  0  0  0  0  0  0  0  0
    3.6519   -9.1783   16.9039 C   0  0  0  0  0  0  0  0  0  0  0  0
    7.8675   -7.0096   15.9415 C   0  0  0  0  0  0  0  0  0  0  0  0
    5.9733   -9.6553   17.3832 N   0  0  0  0  0  0  0  0  0  0  0  0
   10.2411   -2.9363   23.4301 C   0  0  0  0  0  0  0  0  0  0  0  0
   10.7288   -3.8197   19.9525 C   0  0  0  0  0  0  0  0  0  0  0  0
   10.1189   -5.0054   19.6987 C   0  0  0  0  0  0  0  0  0  0  0  0
  1  3  4  0
  1  7  4  0
  2 21  4  0
  2 27  4  0
  3  9  4  0
  3 10  4  0
  4  8  4  0
  4 18  4  0
  4 25  1  0
  5  9  4  0
  5 12  4  0
  6 13  1  0
  6 27  1  0
  7 28  4  0
  8 11  4  0
  9 29  4  0
 10 12  4  0
 11 24  1  0
 11 26  4  0
 12 25  1  0
 13 28  1  0
 14 20  4  0
 14 23  4  0
 15 17  4  0
 15 21  4  0
 16 19  4  0
 16 23  4  0
 17 22  4  0
 18 26  4  0
 19 24  4  0
 20 24  4  0
 22 27  4  0
 28 29  4  0
M  END
$$$$

 Created by Python create_sdf_string function

 29 33  0  0  0  0  0  0  0  0999 V2000
   10.7215   -3.3326   17.6437 C   0  0  0  0  0  0  0  0  0  0  0  0
    9.9489   -3.4675   24.6487 N   0  0  0  0  0  0  0  0  0  0  0  0
   10.0172   -4.4740   17.4101 C   0  0  0  0  0  0  0  0  0  0  0  0
    6.9051   -7.9575   16.4222 C   0  0  0  0  0  0  0  0  0  0  0  0
    8.9969   -6.3552   17.9668 N   0  0  0  0  0  0  0  0  0  0  0  0
   10.6702   -3.9051   22.4070 C   0  0  0  0  0  0  0  0  0  0  0  0
   11.0625   -3.0028   18.8894 C   0  0  0  0  0  0  0  0  0  0  0  0
    5.6180   -7.9194   16.1754 O   0  0  0  0  0  0  0  0  0  0  0  0
    9.7259   -5.3080   18.4485 C   0  0  0  0  0  0  0  0  0  0  0  0
    9.4578   -5.0200   16.3036 N   0  0  0  0  0  0  0  0  0  0  0  0
    5.0287   -8.9365   16.8223 C   0  0  0  0  0  0  0  0  0  0  0  0
    8.7742   -6.1498   16.6764 C   0  0  0  0  0  0  0  0  0  0  0  0
   10.9418   -3.4032   21.2053 O   0  0  0  0  0  0  0  0  0  0  0  0
    1.4797   -8.6258   16.2950 C   0  0  0  0  0  0  0  0  0  0  0  0
    9.2861   -1.2743   25.3585 C   0  0  0  0  0  0  0  0  0  0  0  0
    1.8892  -10.3985   17.7511 N   0  0  0  0  0  0  0  0  0  0  0  0
    9.6210   -0.6952   24.0976 C   0  0  0  0  0  0  0  0  0  0  0  0
    7.0792   -9.0217   17.1429 C   0  0  0  0  0  0  0  0  0  0  0  0
    3.1713  -10.1816   17.6634 C   0  0  0  0  0  0  0  0  0  0  0  0
    2.7878   -8.3822   16.2137 C   0  0  0  0  0  0  0  0  0  0  0  0
    9.4601   -2.6590   25.6528 C   0  0  0  0  0  0  0  0  0  0  0  0
   10.1182   -1.5672   23.1165 C   0  0  0  0  0  0  0  0  0  0  0  0
    1.0552   -9.6360   17.0650 C   0  0  0  0  0  0  0  0  0  0  0  0
    3.6519   -9.1783   16.9039 C   0  0  0  0  0  0  0  0  0  0  0  0
    7.8675   -7.0096   15.9415 C   0  0  0  0  0  0  0  0  0  0  0  0
    5.9733   -9.6553   17.3832 N   0  0  0  0  0  0  0  0  0  0  0  0
   10.2411   -2.9363   23.4301 C   0  0  0  0  0  0  0  0  0  0  0  0
   10.7288   -3.8197   19.9525 C   0  0  0  0  0  0  0  0  0  0  0  0
   10.1189   -5.0054   19.6987 C   0  0  0  0  0  0  0  0  0  0  0  0
  1  3  4  0
  1  7  4  0
  2 21  4  0
  2 27  4  0
  3  9  4  0
  3 10  4  0
  4  8  4  0
  4 18  4  0
  4 25  1  0
  5  9  4  0
  5 12  4  0
  6 13  1  0
  6 27  1  0
  7 28  4  0
  8 11  4  0
  9 29  4  0
 10 12  4  0
 11 24  1  0
 11 26  4  0
 12 25  1  0
 13 28  1  0
 14 20  4  0
 14 23  4  0
 15 17  4  0
 15 21  4  0
 16 19  4  0
 16 23  4  0
 17 22  4  0
 18 26  4  0
 19 24  4  0
 20 24  4  0
 22 27  4  0
 28 29  4  0
M  END
$$$$

 Created by Python create_sdf_string function

 29 33  0  0  0  0  0  0  0  0999 V2000
   10.7215   -3.3326   17.6437 C   0  0  0  0  0  0  0  0  0  0  0  0
    9.9489   -3.4675   24.6487 N   0  0  0  0  0  0  0  0  0  0  0  0
   10.0172   -4.4740   17.4101 C   0  0  0  0  0  0  0  0  0  0  0  0
    6.9051   -7.9575   16.4222 C   0  0  0  0  0  0  0  0  0  0  0  0
    8.9969   -6.3552   17.9668 N   0  0  0  0  0  0  0  0  0  0  0  0
   10.6702   -3.9051   22.4070 C   0  0  0  0  0  0  0  0  0  0  0  0
   11.0625   -3.0028   18.8894 C   0  0  0  0  0  0  0  0  0  0  0  0
    5.6180   -7.9194   16.1754 O   0  0  0  0  0  0  0  0  0  0  0  0
    9.7259   -5.3080   18.4485 C   0  0  0  0  0  0  0  0  0  0  0  0
    9.4578   -5.0200   16.3036 N   0  0  0  0  0  0  0  0  0  0  0  0
    5.0287   -8.9365   16.8223 C   0  0  0  0  0  0  0  0  0  0  0  0
    8.7742   -6.1498   16.6764 C   0  0  0  0  0  0  0  0  0  0  0  0
   10.9418   -3.4032   21.2053 O   0  0  0  0  0  0  0  0  0  0  0  0
    1.4797   -8.6258   16.2950 C   0  0  0  0  0  0  0  0  0  0  0  0
    9.2861   -1.2743   25.3585 C   0  0  0  0  0  0  0  0  0  0  0  0
    1.8892  -10.3985   17.7511 N   0  0  0  0  0  0  0  0  0  0  0  0
    9.6210   -0.6952   24.0976 C   0  0  0  0  0  0  0  0  0  0  0  0
    7.0792   -9.0217   17.1429 C   0  0  0  0  0  0  0  0  0  0  0  0
    3.1713  -10.1816   17.6634 C   0  0  0  0  0  0  0  0  0  0  0  0
    2.7878   -8.3822   16.2137 C   0  0  0  0  0  0  0  0  0  0  0  0
    9.4601   -2.6590   25.6528 C   0  0  0  0  0  0  0  0  0  0  0  0
   10.1182   -1.5672   23.1165 C   0  0  0  0  0  0  0  0  0  0  0  0
    1.0552   -9.6360   17.0650 C   0  0  0  0  0  0  0  0  0  0  0  0
    3.6519   -9.1783   16.9039 C   0  0  0  0  0  0  0  0  0  0  0  0
    7.8675   -7.0096   15.9415 C   0  0  0  0  0  0  0  0  0  0  0  0
    5.9733   -9.6553   17.3832 N   0  0  0  0  0  0  0  0  0  0  0  0
   10.2411   -2.9363   23.4301 C   0  0  0  0  0  0  0  0  0  0  0  0
   10.7288   -3.8197   19.9525 C   0  0  0  0  0  0  0  0  0  0  0  0
   10.1189   -5.0054   19.6987 C   0  0  0  0  0  0  0  0  0  0  0  0
  1  3  4  0
  1  7  4  0
  2 21  4  0
  2 27  4  0
  3  9  4  0
  3 10  4  0
  4  8  4  0
  4 18  4  0
  4 25  1  0
  5  9  4  0
  5 12  4  0
  6 13  1  0
  6 27  1  0
  7 28  4  0
  8 11  4  0
  9 29  4  0
 10 12  4  0
 11 24  1  0
 11 26  4  0
 12 25  1  0
 13 28  1  0
 14 20  4  0
 14 23  4  0
 15 17  4  0
 15 21  4  0
 16 19  4  0
 16 23  4  0
 17 22  4  0
 18 26  4  0
 19 24  4  0
 20 24  4  0
 22 27  4  0
 28 29  4  0
M  END
$$$$

 Created by Python create_sdf_string function

 29 33  0  0  0  0  0  0  0  0999 V2000
   10.7215   -3.3326   17.6437 C   0  0  0  0  0  0  0  0  0  0  0  0
    9.9489   -3.4675   24.6487 N   0  0  0  0  0  0  0  0  0  0  0  0
   10.0172   -4.4740   17.4101 C   0  0  0  0  0  0  0  0  0  0  0  0
    6.9051   -7.9575   16.4222 C   0  0  0  0  0  0  0  0  0  0  0  0
    8.9969   -6.3552   17.9668 N   0  0  0  0  0  0  0  0  0  0  0  0
   10.6702   -3.9051   22.4070 C   0  0  0  0  0  0  0  0  0  0  0  0
   11.0625   -3.0028   18.8894 C   0  0  0  0  0  0  0  0  0  0  0  0
    5.6180   -7.9194   16.1754 O   0  0  0  0  0  0  0  0  0  0  0  0
    9.7259   -5.3080   18.4485 C   0  0  0  0  0  0  0  0  0  0  0  0
    9.4578   -5.0200   16.3036 N   0  0  0  0  0  0  0  0  0  0  0  0
    5.0287   -8.9365   16.8223 C   0  0  0  0  0  0  0  0  0  0  0  0
    8.7742   -6.1498   16.6764 C   0  0  0  0  0  0  0  0  0  0  0  0
   10.9418   -3.4032   21.2053 O   0  0  0  0  0  0  0  0  0  0  0  0
    1.4797   -8.6258   16.2950 C   0  0  0  0  0  0  0  0  0  0  0  0
    9.2861   -1.2743   25.3585 C   0  0  0  0  0  0  0  0  0  0  0  0
    1.8892  -10.3985   17.7511 N   0  0  0  0  0  0  0  0  0  0  0  0
    9.6210   -0.6952   24.0976 C   0  0  0  0  0  0  0  0  0  0  0  0
    7.0792   -9.0217   17.1429 C   0  0  0  0  0  0  0  0  0  0  0  0
    3.1713  -10.1816   17.6634 C   0  0  0  0  0  0  0  0  0  0  0  0
    2.7878   -8.3822   16.2137 C   0  0  0  0  0  0  0  0  0  0  0  0
    9.4601   -2.6590   25.6528 C   0  0  0  0  0  0  0  0  0  0  0  0
   10.1182   -1.5672   23.1165 C   0  0  0  0  0  0  0  0  0  0  0  0
    1.0552   -9.6360   17.0650 C   0  0  0  0  0  0  0  0  0  0  0  0
    3.6519   -9.1783   16.9039 C   0  0  0  0  0  0  0  0  0  0  0  0
    7.8675   -7.0096   15.9415 C   0  0  0  0  0  0  0  0  0  0  0  0
    5.9733   -9.6553   17.3832 N   0  0  0  0  0  0  0  0  0  0  0  0
   10.2411   -2.9363   23.4301 C   0  0  0  0  0  0  0  0  0  0  0  0
   10.7288   -3.8197   19.9525 C   0  0  0  0  0  0  0  0  0  0  0  0
   10.1189   -5.0054   19.6987 C   0  0  0  0  0  0  0  0  0  0  0  0
  1  3  4  0
  1  7  4  0
  2 21  4  0
  2 27  4  0
  3  9  4  0
  3 10  4  0
  4  8  4  0
  4 18  4  0
  4 25  1  0
  5  9  4  0
  5 12  4  0
  6 13  1  0
  6 27  1  0
  7 28  4  0
  8 11  4  0
  9 29  4  0
 10 12  4  0
 11 24  1  0
 11 26  4  0
 12 25  1  0
 13 28  1  0
 14 20  4  0
 14 23  4  0
 15 17  4  0
 15 21  4  0
 16 19  4  0
 16 23  4  0
 17 22  4  0
 18 26  4  0
 19 24  4  0
 20 24  4  0
 22 27  4  0
 28 29  4  0
M  END
$$$$

 Created by Python create_sdf_string function

 29 33  0  0  0  0  0  0  0  0999 V2000
   10.7215   -3.3326   17.6437 C   0  0  0  0  0  0  0  0  0  0  0  0
    9.9489   -3.4675   24.6487 N   0  0  0  0  0  0  0  0  0  0  0  0
   10.0172   -4.4740   17.4101 C   0  0  0  0  0  0  0  0  0  0  0  0
    6.9051   -7.9575   16.4222 C   0  0  0  0  0  0  0  0  0  0  0  0
    8.9969   -6.3552   17.9668 N   0  0  0  0  0  0  0  0  0  0  0  0
   10.6702   -3.9051   22.4070 C   0  0  0  0  0  0  0  0  0  0  0  0
   11.0625   -3.0028   18.8894 C   0  0  0  0  0  0  0  0  0  0  0  0
    5.6180   -7.9194   16.1754 O   0  0  0  0  0  0  0  0  0  0  0  0
    9.7259   -5.3080   18.4485 C   0  0  0  0  0  0  0  0  0  0  0  0
    9.4578   -5.0200   16.3036 N   0  0  0  0  0  0  0  0  0  0  0  0
    5.0287   -8.9365   16.8223 C   0  0  0  0  0  0  0  0  0  0  0  0
    8.7742   -6.1498   16.6764 C   0  0  0  0  0  0  0  0  0  0  0  0
   10.9418   -3.4032   21.2053 O   0  0  0  0  0  0  0  0  0  0  0  0
    1.4797   -8.6258   16.2950 C   0  0  0  0  0  0  0  0  0  0  0  0
    9.2861   -1.2743   25.3585 C   0  0  0  0  0  0  0  0  0  0  0  0
    1.8892  -10.3985   17.7511 N   0  0  0  0  0  0  0  0  0  0  0  0
    9.6210   -0.6952   24.0976 C   0  0  0  0  0  0  0  0  0  0  0  0
    7.0792   -9.0217   17.1429 C   0  0  0  0  0  0  0  0  0  0  0  0
    3.1713  -10.1816   17.6634 C   0  0  0  0  0  0  0  0  0  0  0  0
    2.7878   -8.3822   16.2137 C   0  0  0  0  0  0  0  0  0  0  0  0
    9.4601   -2.6590   25.6528 C   0  0  0  0  0  0  0  0  0  0  0  0
   10.1182   -1.5672   23.1165 C   0  0  0  0  0  0  0  0  0  0  0  0
    1.0552   -9.6360   17.0650 C   0  0  0  0  0  0  0  0  0  0  0  0
    3.6519   -9.1783   16.9039 C   0  0  0  0  0  0  0  0  0  0  0  0
    7.8675   -7.0096   15.9415 C   0  0  0  0  0  0  0  0  0  0  0  0
    5.9733   -9.6553   17.3832 N   0  0  0  0  0  0  0  0  0  0  0  0
   10.2411   -2.9363   23.4301 C   0  0  0  0  0  0  0  0  0  0  0  0
   10.7288   -3.8197   19.9525 C   0  0  0  0  0  0  0  0  0  0  0  0
   10.1189   -5.0054   19.6987 C   0  0  0  0  0  0  0  0  0  0  0  0
  1  3  4  0
  1  7  4  0
  2 21  4  0
  2 27  4  0
  3  9  4  0
  3 10  4  0
  4  8  4  0
  4 18  4  0
  4 25  1  0
  5  9  4  0
  5 12  4  0
  6 13  1  0
  6 27  1  0
  7 28  4  0
  8 11  4  0
  9 29  4  0
 10 12  4  0
 11 24  1  0
 11 26  4  0
 12 25  1  0
 13 28  1  0
 14 20  4  0
 14 23  4  0
 15 17  4  0
 15 21  4  0
 16 19  4  0
 16 23  4  0
 17 22  4  0
 18 26  4  0
 19 24  4  0
 20 24  4  0
 22 27  4  0
 28 29  4  0
M  END
$$$$

 Created by Python create_sdf_string function

 29 33  0  0  0  0  0  0  0  0999 V2000
   10.7215   -3.3326   17.6437 C   0  0  0  0  0  0  0  0  0  0  0  0
    9.9489   -3.4675   24.6487 N   0  0  0  0  0  0  0  0  0  0  0  0
   10.0172   -4.4740   17.4101 C   0  0  0  0  0  0  0  0  0  0  0  0
    6.9051   -7.9575   16.4222 C   0  0  0  0  0  0  0  0  0  0  0  0
    8.9969   -6.3552   17.9668 N   0  0  0  0  0  0  0  0  0  0  0  0
   10.6702   -3.9051   22.4070 C   0  0  0  0  0  0  0  0  0  0  0  0
   11.0625   -3.0028   18.8894 C   0  0  0  0  0  0  0  0  0  0  0  0
    5.6180   -7.9194   16.1754 O   0  0  0  0  0  0  0  0  0  0  0  0
    9.7259   -5.3080   18.4485 C   0  0  0  0  0  0  0  0  0  0  0  0
    9.4578   -5.0200   16.3036 N   0  0  0  0  0  0  0  0  0  0  0  0
    5.0287   -8.9365   16.8223 C   0  0  0  0  0  0  0  0  0  0  0  0
    8.7742   -6.1498   16.6764 C   0  0  0  0  0  0  0  0  0  0  0  0
   10.9418   -3.4032   21.2053 O   0  0  0  0  0  0  0  0  0  0  0  0
    1.4797   -8.6258   16.2950 C   0  0  0  0  0  0  0  0  0  0  0  0
    9.2861   -1.2743   25.3585 C   0  0  0  0  0  0  0  0  0  0  0  0
    1.8892  -10.3985   17.7511 N   0  0  0  0  0  0  0  0  0  0  0  0
    9.6210   -0.6952   24.0976 C   0  0  0  0  0  0  0  0  0  0  0  0
    7.0792   -9.0217   17.1429 C   0  0  0  0  0  0  0  0  0  0  0  0
    3.1713  -10.1816   17.6634 C   0  0  0  0  0  0  0  0  0  0  0  0
    2.7878   -8.3822   16.2137 C   0  0  0  0  0  0  0  0  0  0  0  0
    9.4601   -2.6590   25.6528 C   0  0  0  0  0  0  0  0  0  0  0  0
   10.1182   -1.5672   23.1165 C   0  0  0  0  0  0  0  0  0  0  0  0
    1.0552   -9.6360   17.0650 C   0  0  0  0  0  0  0  0  0  0  0  0
    3.6519   -9.1783   16.9039 C   0  0  0  0  0  0  0  0  0  0  0  0
    7.8675   -7.0096   15.9415 C   0  0  0  0  0  0  0  0  0  0  0  0
    5.9733   -9.6553   17.3832 N   0  0  0  0  0  0  0  0  0  0  0  0
   10.2411   -2.9363   23.4301 C   0  0  0  0  0  0  0  0  0  0  0  0
   10.7288   -3.8197   19.9525 C   0  0  0  0  0  0  0  0  0  0  0  0
   10.1189   -5.0054   19.6987 C   0  0  0  0  0  0  0  0  0  0  0  0
  1  3  4  0
  1  7  4  0
  2 21  4  0
  2 27  4  0
  3  9  4  0
  3 10  4  0
  4  8  4  0
  4 18  4  0
  4 25  1  0
  5  9  4  0
  5 12  4  0
  6 13  1  0
  6 27  1  0
  7 28  4  0
  8 11  4  0
  9 29  4  0
 10 12  4  0
 11 24  1  0
 11 26  4  0
 12 25  1  0
 13 28  1  0
 14 20  4  0
 14 23  4  0
 15 17  4  0
 15 21  4  0
 16 19  4  0
 16 23  4  0
 17 22  4  0
 18 26  4  0
 19 24  4  0
 20 24  4  0
 22 27  4  0
 28 29  4  0
M  END
$$$$

 Created by Python create_sdf_string function

 29 33  0  0  0  0  0  0  0  0999 V2000
   10.7215   -3.3326   17.6437 C   0  0  0  0  0  0  0  0  0  0  0  0
    9.9489   -3.4675   24.6487 N   0  0  0  0  0  0  0  0  0  0  0  0
   10.0172   -4.4740   17.4101 C   0  0  0  0  0  0  0  0  0  0  0  0
    6.9051   -7.9575   16.4222 C   0  0  0  0  0  0  0  0  0  0  0  0
    8.9969   -6.3552   17.9668 N   0  0  0  0  0  0  0  0  0  0  0  0
   10.6702   -3.9051   22.4070 C   0  0  0  0  0  0  0  0  0  0  0  0
   11.0625   -3.0028   18.8894 C   0  0  0  0  0  0  0  0  0  0  0  0
    5.6180   -7.9194   16.1754 O   0  0  0  0  0  0  0  0  0  0  0  0
    9.7259   -5.3080   18.4485 C   0  0  0  0  0  0  0  0  0  0  0  0
    9.4578   -5.0200   16.3036 N   0  0  0  0  0  0  0  0  0  0  0  0
    5.0287   -8.9365   16.8223 C   0  0  0  0  0  0  0  0  0  0  0  0
    8.7742   -6.1498   16.6764 C   0  0  0  0  0  0  0  0  0  0  0  0
   10.9418   -3.4032   21.2053 O   0  0  0  0  0  0  0  0  0  0  0  0
    1.4797   -8.6258   16.2950 C   0  0  0  0  0  0  0  0  0  0  0  0
    9.2861   -1.2743   25.3585 C   0  0  0  0  0  0  0  0  0  0  0  0
    1.8892  -10.3985   17.7511 N   0  0  0  0  0  0  0  0  0  0  0  0
    9.6210   -0.6952   24.0976 C   0  0  0  0  0  0  0  0  0  0  0  0
    7.0792   -9.0217   17.1429 C   0  0  0  0  0  0  0  0  0  0  0  0
    3.1713  -10.1816   17.6634 C   0  0  0  0  0  0  0  0  0  0  0  0
    2.7878   -8.3822   16.2137 C   0  0  0  0  0  0  0  0  0  0  0  0
    9.4601   -2.6590   25.6528 C   0  0  0  0  0  0  0  0  0  0  0  0
   10.1182   -1.5672   23.1165 C   0  0  0  0  0  0  0  0  0  0  0  0
    1.0552   -9.6360   17.0650 C   0  0  0  0  0  0  0  0  0  0  0  0
    3.6519   -9.1783   16.9039 C   0  0  0  0  0  0  0  0  0  0  0  0
    7.8675   -7.0096   15.9415 C   0  0  0  0  0  0  0  0  0  0  0  0
    5.9733   -9.6553   17.3832 N   0  0  0  0  0  0  0  0  0  0  0  0
   10.2411   -2.9363   23.4301 C   0  0  0  0  0  0  0  0  0  0  0  0
   10.7288   -3.8197   19.9525 C   0  0  0  0  0  0  0  0  0  0  0  0
   10.1189   -5.0054   19.6987 C   0  0  0  0  0  0  0  0  0  0  0  0
  1  3  4  0
  1  7  4  0
  2 21  4  0
  2 27  4  0
  3  9  4  0
  3 10  4  0
  4  8  4  0
  4 18  4  0
  4 25  1  0
  5  9  4  0
  5 12  4  0
  6 13  1  0
  6 27  1  0
  7 28  4  0
  8 11  4  0
  9 29  4  0
 10 12  4  0
 11 24  1  0
 11 26  4  0
 12 25  1  0
 13 28  1  0
 14 20  4  0
 14 23  4  0
 15 17  4  0
 15 21  4  0
 16 19  4  0
 16 23  4  0
 17 22  4  0
 18 26  4  0
 19 24  4  0
 20 24  4  0
 22 27  4  0
 28 29  4  0
M  END
$$$$

 Created by Python create_sdf_string function

 29 33  0  0  0  0  0  0  0  0999 V2000
   10.7215   -3.3326   17.6437 C   0  0  0  0  0  0  0  0  0  0  0  0
    9.9489   -3.4675   24.6487 N   0  0  0  0  0  0  0  0  0  0  0  0
   10.0172   -4.4740   17.4101 C   0  0  0  0  0  0  0  0  0  0  0  0
    6.9051   -7.9575   16.4222 C   0  0  0  0  0  0  0  0  0  0  0  0
    8.9969   -6.3552   17.9668 N   0  0  0  0  0  0  0  0  0  0  0  0
   10.6702   -3.9051   22.4070 C   0  0  0  0  0  0  0  0  0  0  0  0
   11.0625   -3.0028   18.8894 C   0  0  0  0  0  0  0  0  0  0  0  0
    5.6180   -7.9194   16.1754 O   0  0  0  0  0  0  0  0  0  0  0  0
    9.7259   -5.3080   18.4485 C   0  0  0  0  0  0  0  0  0  0  0  0
    9.4578   -5.0200   16.3036 N   0  0  0  0  0  0  0  0  0  0  0  0
    5.0287   -8.9365   16.8223 C   0  0  0  0  0  0  0  0  0  0  0  0
    8.7742   -6.1498   16.6764 C   0  0  0  0  0  0  0  0  0  0  0  0
   10.9418   -3.4032   21.2053 O   0  0  0  0  0  0  0  0  0  0  0  0
    1.4797   -8.6258   16.2950 C   0  0  0  0  0  0  0  0  0  0  0  0
    9.2861   -1.2743   25.3585 C   0  0  0  0  0  0  0  0  0  0  0  0
    1.8892  -10.3985   17.7511 N   0  0  0  0  0  0  0  0  0  0  0  0
    9.6210   -0.6952   24.0976 C   0  0  0  0  0  0  0  0  0  0  0  0
    7.0792   -9.0217   17.1429 C   0  0  0  0  0  0  0  0  0  0  0  0
    3.1713  -10.1816   17.6634 C   0  0  0  0  0  0  0  0  0  0  0  0
    2.7878   -8.3822   16.2137 C   0  0  0  0  0  0  0  0  0  0  0  0
    9.4601   -2.6590   25.6528 C   0  0  0  0  0  0  0  0  0  0  0  0
   10.1182   -1.5672   23.1165 C   0  0  0  0  0  0  0  0  0  0  0  0
    1.0552   -9.6360   17.0650 C   0  0  0  0  0  0  0  0  0  0  0  0
    3.6519   -9.1783   16.9039 C   0  0  0  0  0  0  0  0  0  0  0  0
    7.8675   -7.0096   15.9415 C   0  0  0  0  0  0  0  0  0  0  0  0
    5.9733   -9.6553   17.3832 N   0  0  0  0  0  0  0  0  0  0  0  0
   10.2411   -2.9363   23.4301 C   0  0  0  0  0  0  0  0  0  0  0  0
   10.7288   -3.8197   19.9525 C   0  0  0  0  0  0  0  0  0  0  0  0
   10.1189   -5.0054   19.6987 C   0  0  0  0  0  0  0  0  0  0  0  0
  1  3  4  0
  1  7  4  0
  2 21  4  0
  2 27  4  0
  3  9  4  0
  3 10  4  0
  4  8  4  0
  4 18  4  0
  4 25  1  0
  5  9  4  0
  5 12  4  0
  6 13  1  0
  6 27  1  0
  7 28  4  0
  8 11  4  0
  9 29  4  0
 10 12  4  0
 11 24  1  0
 11 26  4  0
 12 25  1  0
 13 28  1  0
 14 20  4  0
 14 23  4  0
 15 17  4  0
 15 21  4  0
 16 19  4  0
 16 23  4  0
 17 22  4  0
 18 26  4  0
 19 24  4  0
 20 24  4  0
 22 27  4  0
 28 29  4  0
M  END
$$$$

 Created by Python create_sdf_string function

 29 33  0  0  0  0  0  0  0  0999 V2000
   10.7215   -3.3326   17.6437 C   0  0  0  0  0  0  0  0  0  0  0  0
    9.9489   -3.4675   24.6487 N   0  0  0  0  0  0  0  0  0  0  0  0
   10.0172   -4.4740   17.4101 C   0  0  0  0  0  0  0  0  0  0  0  0
    6.9051   -7.9575   16.4222 C   0  0  0  0  0  0  0  0  0  0  0  0
    8.9969   -6.3552   17.9668 N   0  0  0  0  0  0  0  0  0  0  0  0
   10.6702   -3.9051   22.4070 C   0  0  0  0  0  0  0  0  0  0  0  0
   11.0625   -3.0028   18.8894 C   0  0  0  0  0  0  0  0  0  0  0  0
    5.6180   -7.9194   16.1754 O   0  0  0  0  0  0  0  0  0  0  0  0
    9.7259   -5.3080   18.4485 C   0  0  0  0  0  0  0  0  0  0  0  0
    9.4578   -5.0200   16.3036 N   0  0  0  0  0  0  0  0  0  0  0  0
    5.0287   -8.9365   16.8223 C   0  0  0  0  0  0  0  0  0  0  0  0
    8.7742   -6.1498   16.6764 C   0  0  0  0  0  0  0  0  0  0  0  0
   10.9418   -3.4032   21.2053 O   0  0  0  0  0  0  0  0  0  0  0  0
    1.4797   -8.6258   16.2950 C   0  0  0  0  0  0  0  0  0  0  0  0
    9.2861   -1.2743   25.3585 C   0  0  0  0  0  0  0  0  0  0  0  0
    1.8892  -10.3985   17.7511 N   0  0  0  0  0  0  0  0  0  0  0  0
    9.6210   -0.6952   24.0976 C   0  0  0  0  0  0  0  0  0  0  0  0
    7.0792   -9.0217   17.1429 C   0  0  0  0  0  0  0  0  0  0  0  0
    3.1713  -10.1816   17.6634 C   0  0  0  0  0  0  0  0  0  0  0  0
    2.7878   -8.3822   16.2137 C   0  0  0  0  0  0  0  0  0  0  0  0
    9.4601   -2.6590   25.6528 C   0  0  0  0  0  0  0  0  0  0  0  0
   10.1182   -1.5672   23.1165 C   0  0  0  0  0  0  0  0  0  0  0  0
    1.0552   -9.6360   17.0650 C   0  0  0  0  0  0  0  0  0  0  0  0
    3.6519   -9.1783   16.9039 C   0  0  0  0  0  0  0  0  0  0  0  0
    7.8675   -7.0096   15.9415 C   0  0  0  0  0  0  0  0  0  0  0  0
    5.9733   -9.6553   17.3832 N   0  0  0  0  0  0  0  0  0  0  0  0
   10.2411   -2.9363   23.4301 C   0  0  0  0  0  0  0  0  0  0  0  0
   10.7288   -3.8197   19.9525 C   0  0  0  0  0  0  0  0  0  0  0  0
   10.1189   -5.0054   19.6987 C   0  0  0  0  0  0  0  0  0  0  0  0
  1  3  4  0
  1  7  4  0
  2 21  4  0
  2 27  4  0
  3  9  4  0
  3 10  4  0
  4  8  4  0
  4 18  4  0
  4 25  1  0
  5  9  4  0
  5 12  4  0
  6 13  1  0
  6 27  1  0
  7 28  4  0
  8 11  4  0
  9 29  4  0
 10 12  4  0
 11 24  1  0
 11 26  4  0
 12 25  1  0
 13 28  1  0
 14 20  4  0
 14 23  4  0
 15 17  4  0
 15 21  4  0
 16 19  4  0
 16 23  4  0
 17 22  4  0
 18 26  4  0
 19 24  4  0
 20 24  4  0
 22 27  4  0
 28 29  4  0
M  END
$$$$

 Created by Python create_sdf_string function

 29 33  0  0  0  0  0  0  0  0999 V2000
   10.7215   -3.3326   17.6437 C   0  0  0  0  0  0  0  0  0  0  0  0
    9.9489   -3.4675   24.6487 N   0  0  0  0  0  0  0  0  0  0  0  0
   10.0172   -4.4740   17.4101 C   0  0  0  0  0  0  0  0  0  0  0  0
    6.9051   -7.9575   16.4222 C   0  0  0  0  0  0  0  0  0  0  0  0
    8.9969   -6.3552   17.9668 N   0  0  0  0  0  0  0  0  0  0  0  0
   10.6702   -3.9051   22.4070 C   0  0  0  0  0  0  0  0  0  0  0  0
   11.0625   -3.0028   18.8894 C   0  0  0  0  0  0  0  0  0  0  0  0
    5.6180   -7.9194   16.1754 O   0  0  0  0  0  0  0  0  0  0  0  0
    9.7259   -5.3080   18.4485 C   0  0  0  0  0  0  0  0  0  0  0  0
    9.4578   -5.0200   16.3036 N   0  0  0  0  0  0  0  0  0  0  0  0
    5.0287   -8.9365   16.8223 C   0  0  0  0  0  0  0  0  0  0  0  0
    8.7742   -6.1498   16.6764 C   0  0  0  0  0  0  0  0  0  0  0  0
   10.9418   -3.4032   21.2053 O   0  0  0  0  0  0  0  0  0  0  0  0
    1.4797   -8.6258   16.2950 C   0  0  0  0  0  0  0  0  0  0  0  0
    9.2861   -1.2743   25.3585 C   0  0  0  0  0  0  0  0  0  0  0  0
    1.8892  -10.3985   17.7511 N   0  0  0  0  0  0  0  0  0  0  0  0
    9.6210   -0.6952   24.0976 C   0  0  0  0  0  0  0  0  0  0  0  0
    7.0792   -9.0217   17.1429 C   0  0  0  0  0  0  0  0  0  0  0  0
    3.1713  -10.1816   17.6634 C   0  0  0  0  0  0  0  0  0  0  0  0
    2.7878   -8.3822   16.2137 C   0  0  0  0  0  0  0  0  0  0  0  0
    9.4601   -2.6590   25.6528 C   0  0  0  0  0  0  0  0  0  0  0  0
   10.1182   -1.5672   23.1165 C   0  0  0  0  0  0  0  0  0  0  0  0
    1.0552   -9.6360   17.0650 C   0  0  0  0  0  0  0  0  0  0  0  0
    3.6519   -9.1783   16.9039 C   0  0  0  0  0  0  0  0  0  0  0  0
    7.8675   -7.0096   15.9415 C   0  0  0  0  0  0  0  0  0  0  0  0
    5.9733   -9.6553   17.3832 N   0  0  0  0  0  0  0  0  0  0  0  0
   10.2411   -2.9363   23.4301 C   0  0  0  0  0  0  0  0  0  0  0  0
   10.7288   -3.8197   19.9525 C   0  0  0  0  0  0  0  0  0  0  0  0
   10.1189   -5.0054   19.6987 C   0  0  0  0  0  0  0  0  0  0  0  0
  1  3  4  0
  1  7  4  0
  2 21  4  0
  2 27  4  0
  3  9  4  0
  3 10  4  0
  4  8  4  0
  4 18  4  0
  4 25  1  0
  5  9  4  0
  5 12  4  0
  6 13  1  0
  6 27  1  0
  7 28  4  0
  8 11  4  0
  9 29  4  0
 10 12  4  0
 11 24  1  0
 11 26  4  0
 12 25  1  0
 13 28  1  0
 14 20  4  0
 14 23  4  0
 15 17  4  0
 15 21  4  0
 16 19  4  0
 16 23  4  0
 17 22  4  0
 18 26  4  0
 19 24  4  0
 20 24  4  0
 22 27  4  0
 28 29  4  0
M  END
$$$$

 Created by Python create_sdf_string function

 29 33  0  0  0  0  0  0  0  0999 V2000
   10.7215   -3.3326   17.6437 C   0  0  0  0  0  0  0  0  0  0  0  0
    9.9489   -3.4675   24.6487 N   0  0  0  0  0  0  0  0  0  0  0  0
   10.0172   -4.4740   17.4101 C   0  0  0  0  0  0  0  0  0  0  0  0
    6.9051   -7.9575   16.4222 C   0  0  0  0  0  0  0  0  0  0  0  0
    8.9969   -6.3552   17.9668 N   0  0  0  0  0  0  0  0  0  0  0  0
   10.6702   -3.9051   22.4070 C   0  0  0  0  0  0  0  0  0  0  0  0
   11.0625   -3.0028   18.8894 C   0  0  0  0  0  0  0  0  0  0  0  0
    5.6180   -7.9194   16.1754 O   0  0  0  0  0  0  0  0  0  0  0  0
    9.7259   -5.3080   18.4485 C   0  0  0  0  0  0  0  0  0  0  0  0
    9.4578   -5.0200   16.3036 N   0  0  0  0  0  0  0  0  0  0  0  0
    5.0287   -8.9365   16.8223 C   0  0  0  0  0  0  0  0  0  0  0  0
    8.7742   -6.1498   16.6764 C   0  0  0  0  0  0  0  0  0  0  0  0
   10.9418   -3.4032   21.2053 O   0  0  0  0  0  0  0  0  0  0  0  0
    1.4797   -8.6258   16.2950 C   0  0  0  0  0  0  0  0  0  0  0  0
    9.2861   -1.2743   25.3585 C   0  0  0  0  0  0  0  0  0  0  0  0
    1.8892  -10.3985   17.7511 N   0  0  0  0  0  0  0  0  0  0  0  0
    9.6210   -0.6952   24.0976 C   0  0  0  0  0  0  0  0  0  0  0  0
    7.0792   -9.0217   17.1429 C   0  0  0  0  0  0  0  0  0  0  0  0
    3.1713  -10.1816   17.6634 C   0  0  0  0  0  0  0  0  0  0  0  0
    2.7878   -8.3822   16.2137 C   0  0  0  0  0  0  0  0  0  0  0  0
    9.4601   -2.6590   25.6528 C   0  0  0  0  0  0  0  0  0  0  0  0
   10.1182   -1.5672   23.1165 C   0  0  0  0  0  0  0  0  0  0  0  0
    1.0552   -9.6360   17.0650 C   0  0  0  0  0  0  0  0  0  0  0  0
    3.6519   -9.1783   16.9039 C   0  0  0  0  0  0  0  0  0  0  0  0
    7.8675   -7.0096   15.9415 C   0  0  0  0  0  0  0  0  0  0  0  0
    5.9733   -9.6553   17.3832 N   0  0  0  0  0  0  0  0  0  0  0  0
   10.2411   -2.9363   23.4301 C   0  0  0  0  0  0  0  0  0  0  0  0
   10.7288   -3.8197   19.9525 C   0  0  0  0  0  0  0  0  0  0  0  0
   10.1189   -5.0054   19.6987 C   0  0  0  0  0  0  0  0  0  0  0  0
  1  3  4  0
  1  7  4  0
  2 21  4  0
  2 27  4  0
  3  9  4  0
  3 10  4  0
  4  8  4  0
  4 18  4  0
  4 25  1  0
  5  9  4  0
  5 12  4  0
  6 13  1  0
  6 27  1  0
  7 28  4  0
  8 11  4  0
  9 29  4  0
 10 12  4  0
 11 24  1  0
 11 26  4  0
 12 25  1  0
 13 28  1  0
 14 20  4  0
 14 23  4  0
 15 17  4  0
 15 21  4  0
 16 19  4  0
 16 23  4  0
 17 22  4  0
 18 26  4  0
 19 24  4  0
 20 24  4  0
 22 27  4  0
 28 29  4  0
M  END
$$$$

 Created by Python create_sdf_string function

 29 33  0  0  0  0  0  0  0  0999 V2000
   10.7215   -3.3326   17.6437 C   0  0  0  0  0  0  0  0  0  0  0  0
    9.9489   -3.4675   24.6487 N   0  0  0  0  0  0  0  0  0  0  0  0
   10.0172   -4.4740   17.4101 C   0  0  0  0  0  0  0  0  0  0  0  0
    6.9051   -7.9575   16.4222 C   0  0  0  0  0  0  0  0  0  0  0  0
    8.9969   -6.3552   17.9668 N   0  0  0  0  0  0  0  0  0  0  0  0
   10.6702   -3.9051   22.4070 C   0  0  0  0  0  0  0  0  0  0  0  0
   11.0625   -3.0028   18.8894 C   0  0  0  0  0  0  0  0  0  0  0  0
    5.6180   -7.9194   16.1754 O   0  0  0  0  0  0  0  0  0  0  0  0
    9.7259   -5.3080   18.4485 C   0  0  0  0  0  0  0  0  0  0  0  0
    9.4578   -5.0200   16.3036 N   0  0  0  0  0  0  0  0  0  0  0  0
    5.0287   -8.9365   16.8223 C   0  0  0  0  0  0  0  0  0  0  0  0
    8.7742   -6.1498   16.6764 C   0  0  0  0  0  0  0  0  0  0  0  0
   10.9418   -3.4032   21.2053 O   0  0  0  0  0  0  0  0  0  0  0  0
    1.4797   -8.6258   16.2950 C   0  0  0  0  0  0  0  0  0  0  0  0
    9.2861   -1.2743   25.3585 C   0  0  0  0  0  0  0  0  0  0  0  0
    1.8892  -10.3985   17.7511 N   0  0  0  0  0  0  0  0  0  0  0  0
    9.6210   -0.6952   24.0976 C   0  0  0  0  0  0  0  0  0  0  0  0
    7.0792   -9.0217   17.1429 C   0  0  0  0  0  0  0  0  0  0  0  0
    3.1713  -10.1816   17.6634 C   0  0  0  0  0  0  0  0  0  0  0  0
    2.7878   -8.3822   16.2137 C   0  0  0  0  0  0  0  0  0  0  0  0
    9.4601   -2.6590   25.6528 C   0  0  0  0  0  0  0  0  0  0  0  0
   10.1182   -1.5672   23.1165 C   0  0  0  0  0  0  0  0  0  0  0  0
    1.0552   -9.6360   17.0650 C   0  0  0  0  0  0  0  0  0  0  0  0
    3.6519   -9.1783   16.9039 C   0  0  0  0  0  0  0  0  0  0  0  0
    7.8675   -7.0096   15.9415 C   0  0  0  0  0  0  0  0  0  0  0  0
    5.9733   -9.6553   17.3832 N   0  0  0  0  0  0  0  0  0  0  0  0
   10.2411   -2.9363   23.4301 C   0  0  0  0  0  0  0  0  0  0  0  0
   10.7288   -3.8197   19.9525 C   0  0  0  0  0  0  0  0  0  0  0  0
   10.1189   -5.0054   19.6987 C   0  0  0  0  0  0  0  0  0  0  0  0
  1  3  4  0
  1  7  4  0
  2 21  4  0
  2 27  4  0
  3  9  4  0
  3 10  4  0
  4  8  4  0
  4 18  4  0
  4 25  1  0
  5  9  4  0
  5 12  4  0
  6 13  1  0
  6 27  1  0
  7 28  4  0
  8 11  4  0
  9 29  4  0
 10 12  4  0
 11 24  1  0
 11 26  4  0
 12 25  1  0
 13 28  1  0
 14 20  4  0
 14 23  4  0
 15 17  4  0
 15 21  4  0
 16 19  4  0
 16 23  4  0
 17 22  4  0
 18 26  4  0
 19 24  4  0
 20 24  4  0
 22 27  4  0
 28 29  4  0
M  END
$$$$

 Created by Python create_sdf_string function

 29 33  0  0  0  0  0  0  0  0999 V2000
   10.7215   -3.3326   17.6437 C   0  0  0  0  0  0  0  0  0  0  0  0
    9.9489   -3.4675   24.6487 N   0  0  0  0  0  0  0  0  0  0  0  0
   10.0172   -4.4740   17.4101 C   0  0  0  0  0  0  0  0  0  0  0  0
    6.9051   -7.9575   16.4222 C   0  0  0  0  0  0  0  0  0  0  0  0
    8.9969   -6.3552   17.9668 N   0  0  0  0  0  0  0  0  0  0  0  0
   10.6702   -3.9051   22.4070 C   0  0  0  0  0  0  0  0  0  0  0  0
   11.0625   -3.0028   18.8894 C   0  0  0  0  0  0  0  0  0  0  0  0
    5.6180   -7.9194   16.1754 O   0  0  0  0  0  0  0  0  0  0  0  0
    9.7259   -5.3080   18.4485 C   0  0  0  0  0  0  0  0  0  0  0  0
    9.4578   -5.0200   16.3036 N   0  0  0  0  0  0  0  0  0  0  0  0
    5.0287   -8.9365   16.8223 C   0  0  0  0  0  0  0  0  0  0  0  0
    8.7742   -6.1498   16.6764 C   0  0  0  0  0  0  0  0  0  0  0  0
   10.9418   -3.4032   21.2053 O   0  0  0  0  0  0  0  0  0  0  0  0
    1.4797   -8.6258   16.2950 C   0  0  0  0  0  0  0  0  0  0  0  0
    9.2861   -1.2743   25.3585 C   0  0  0  0  0  0  0  0  0  0  0  0
    1.8892  -10.3985   17.7511 N   0  0  0  0  0  0  0  0  0  0  0  0
    9.6210   -0.6952   24.0976 C   0  0  0  0  0  0  0  0  0  0  0  0
    7.0792   -9.0217   17.1429 C   0  0  0  0  0  0  0  0  0  0  0  0
    3.1713  -10.1816   17.6634 C   0  0  0  0  0  0  0  0  0  0  0  0
    2.7878   -8.3822   16.2137 C   0  0  0  0  0  0  0  0  0  0  0  0
    9.4601   -2.6590   25.6528 C   0  0  0  0  0  0  0  0  0  0  0  0
   10.1182   -1.5672   23.1165 C   0  0  0  0  0  0  0  0  0  0  0  0
    1.0552   -9.6360   17.0650 C   0  0  0  0  0  0  0  0  0  0  0  0
    3.6519   -9.1783   16.9039 C   0  0  0  0  0  0  0  0  0  0  0  0
    7.8675   -7.0096   15.9415 C   0  0  0  0  0  0  0  0  0  0  0  0
    5.9733   -9.6553   17.3832 N   0  0  0  0  0  0  0  0  0  0  0  0
   10.2411   -2.9363   23.4301 C   0  0  0  0  0  0  0  0  0  0  0  0
   10.7288   -3.8197   19.9525 C   0  0  0  0  0  0  0  0  0  0  0  0
   10.1189   -5.0054   19.6987 C   0  0  0  0  0  0  0  0  0  0  0  0
  1  3  4  0
  1  7  4  0
  2 21  4  0
  2 27  4  0
  3  9  4  0
  3 10  4  0
  4  8  4  0
  4 18  4  0
  4 25  1  0
  5  9  4  0
  5 12  4  0
  6 13  1  0
  6 27  1  0
  7 28  4  0
  8 11  4  0
  9 29  4  0
 10 12  4  0
 11 24  1  0
 11 26  4  0
 12 25  1  0
 13 28  1  0
 14 20  4  0
 14 23  4  0
 15 17  4  0
 15 21  4  0
 16 19  4  0
 16 23  4  0
 17 22  4  0
 18 26  4  0
 19 24  4  0
 20 24  4  0
 22 27  4  0
 28 29  4  0
M  END
$$$$

 Created by Python create_sdf_string function

 29 33  0  0  0  0  0  0  0  0999 V2000
   10.7215   -3.3326   17.6437 C   0  0  0  0  0  0  0  0  0  0  0  0
    9.9489   -3.4675   24.6487 N   0  0  0  0  0  0  0  0  0  0  0  0
   10.0172   -4.4740   17.4101 C   0  0  0  0  0  0  0  0  0  0  0  0
    6.9051   -7.9575   16.4222 C   0  0  0  0  0  0  0  0  0  0  0  0
    8.9969   -6.3552   17.9668 N   0  0  0  0  0  0  0  0  0  0  0  0
   10.6702   -3.9051   22.4070 C   0  0  0  0  0  0  0  0  0  0  0  0
   11.0625   -3.0028   18.8894 C   0  0  0  0  0  0  0  0  0  0  0  0
    5.6180   -7.9194   16.1754 O   0  0  0  0  0  0  0  0  0  0  0  0
    9.7259   -5.3080   18.4485 C   0  0  0  0  0  0  0  0  0  0  0  0
    9.4578   -5.0200   16.3036 N   0  0  0  0  0  0  0  0  0  0  0  0
    5.0287   -8.9365   16.8223 C   0  0  0  0  0  0  0  0  0  0  0  0
    8.7742   -6.1498   16.6764 C   0  0  0  0  0  0  0  0  0  0  0  0
   10.9418   -3.4032   21.2053 O   0  0  0  0  0  0  0  0  0  0  0  0
    1.4797   -8.6258   16.2950 C   0  0  0  0  0  0  0  0  0  0  0  0
    9.2861   -1.2743   25.3585 C   0  0  0  0  0  0  0  0  0  0  0  0
    1.8892  -10.3985   17.7511 N   0  0  0  0  0  0  0  0  0  0  0  0
    9.6210   -0.6952   24.0976 C   0  0  0  0  0  0  0  0  0  0  0  0
    7.0792   -9.0217   17.1429 C   0  0  0  0  0  0  0  0  0  0  0  0
    3.1713  -10.1816   17.6634 C   0  0  0  0  0  0  0  0  0  0  0  0
    2.7878   -8.3822   16.2137 C   0  0  0  0  0  0  0  0  0  0  0  0
    9.4601   -2.6590   25.6528 C   0  0  0  0  0  0  0  0  0  0  0  0
   10.1182   -1.5672   23.1165 C   0  0  0  0  0  0  0  0  0  0  0  0
    1.0552   -9.6360   17.0650 C   0  0  0  0  0  0  0  0  0  0  0  0
    3.6519   -9.1783   16.9039 C   0  0  0  0  0  0  0  0  0  0  0  0
    7.8675   -7.0096   15.9415 C   0  0  0  0  0  0  0  0  0  0  0  0
    5.9733   -9.6553   17.3832 N   0  0  0  0  0  0  0  0  0  0  0  0
   10.2411   -2.9363   23.4301 C   0  0  0  0  0  0  0  0  0  0  0  0
   10.7288   -3.8197   19.9525 C   0  0  0  0  0  0  0  0  0  0  0  0
   10.1189   -5.0054   19.6987 C   0  0  0  0  0  0  0  0  0  0  0  0
  1  3  4  0
  1  7  4  0
  2 21  4  0
  2 27  4  0
  3  9  4  0
  3 10  4  0
  4  8  4  0
  4 18  4  0
  4 25  1  0
  5  9  4  0
  5 12  4  0
  6 13  1  0
  6 27  1  0
  7 28  4  0
  8 11  4  0
  9 29  4  0
 10 12  4  0
 11 24  1  0
 11 26  4  0
 12 25  1  0
 13 28  1  0
 14 20  4  0
 14 23  4  0
 15 17  4  0
 15 21  4  0
 16 19  4  0
 16 23  4  0
 17 22  4  0
 18 26  4  0
 19 24  4  0
 20 24  4  0
 22 27  4  0
 28 29  4  0
M  END
$$$$

 Created by Python create_sdf_string function

 29 33  0  0  0  0  0  0  0  0999 V2000
   10.7215   -3.3326   17.6437 C   0  0  0  0  0  0  0  0  0  0  0  0
    9.9489   -3.4675   24.6487 N   0  0  0  0  0  0  0  0  0  0  0  0
   10.0172   -4.4740   17.4101 C   0  0  0  0  0  0  0  0  0  0  0  0
    6.9051   -7.9575   16.4222 C   0  0  0  0  0  0  0  0  0  0  0  0
    8.9969   -6.3552   17.9668 N   0  0  0  0  0  0  0  0  0  0  0  0
   10.6702   -3.9051   22.4070 C   0  0  0  0  0  0  0  0  0  0  0  0
   11.0625   -3.0028   18.8894 C   0  0  0  0  0  0  0  0  0  0  0  0
    5.6180   -7.9194   16.1754 O   0  0  0  0  0  0  0  0  0  0  0  0
    9.7259   -5.3080   18.4485 C   0  0  0  0  0  0  0  0  0  0  0  0
    9.4578   -5.0200   16.3036 N   0  0  0  0  0  0  0  0  0  0  0  0
    5.0287   -8.9365   16.8223 C   0  0  0  0  0  0  0  0  0  0  0  0
    8.7742   -6.1498   16.6764 C   0  0  0  0  0  0  0  0  0  0  0  0
   10.9418   -3.4032   21.2053 O   0  0  0  0  0  0  0  0  0  0  0  0
    1.4797   -8.6258   16.2950 C   0  0  0  0  0  0  0  0  0  0  0  0
    9.2861   -1.2743   25.3585 C   0  0  0  0  0  0  0  0  0  0  0  0
    1.8892  -10.3985   17.7511 N   0  0  0  0  0  0  0  0  0  0  0  0
    9.6210   -0.6952   24.0976 C   0  0  0  0  0  0  0  0  0  0  0  0
    7.0792   -9.0217   17.1429 C   0  0  0  0  0  0  0  0  0  0  0  0
    3.1713  -10.1816   17.6634 C   0  0  0  0  0  0  0  0  0  0  0  0
    2.7878   -8.3822   16.2137 C   0  0  0  0  0  0  0  0  0  0  0  0
    9.4601   -2.6590   25.6528 C   0  0  0  0  0  0  0  0  0  0  0  0
   10.1182   -1.5672   23.1165 C   0  0  0  0  0  0  0  0  0  0  0  0
    1.0552   -9.6360   17.0650 C   0  0  0  0  0  0  0  0  0  0  0  0
    3.6519   -9.1783   16.9039 C   0  0  0  0  0  0  0  0  0  0  0  0
    7.8675   -7.0096   15.9415 C   0  0  0  0  0  0  0  0  0  0  0  0
    5.9733   -9.6553   17.3832 N   0  0  0  0  0  0  0  0  0  0  0  0
   10.2411   -2.9363   23.4301 C   0  0  0  0  0  0  0  0  0  0  0  0
   10.7288   -3.8197   19.9525 C   0  0  0  0  0  0  0  0  0  0  0  0
   10.1189   -5.0054   19.6987 C   0  0  0  0  0  0  0  0  0  0  0  0
  1  3  4  0
  1  7  4  0
  2 21  4  0
  2 27  4  0
  3  9  4  0
  3 10  4  0
  4  8  4  0
  4 18  4  0
  4 25  1  0
  5  9  4  0
  5 12  4  0
  6 13  1  0
  6 27  1  0
  7 28  4  0
  8 11  4  0
  9 29  4  0
 10 12  4  0
 11 24  1  0
 11 26  4  0
 12 25  1  0
 13 28  1  0
 14 20  4  0
 14 23  4  0
 15 17  4  0
 15 21  4  0
 16 19  4  0
 16 23  4  0
 17 22  4  0
 18 26  4  0
 19 24  4  0
 20 24  4  0
 22 27  4  0
 28 29  4  0
M  END
$$$$

 Created by Python create_sdf_string function

 29 33  0  0  0  0  0  0  0  0999 V2000
   10.7215   -3.3326   17.6437 C   0  0  0  0  0  0  0  0  0  0  0  0
    9.9489   -3.4675   24.6487 N   0  0  0  0  0  0  0  0  0  0  0  0
   10.0172   -4.4740   17.4101 C   0  0  0  0  0  0  0  0  0  0  0  0
    6.9051   -7.9575   16.4222 C   0  0  0  0  0  0  0  0  0  0  0  0
    8.9969   -6.3552   17.9668 N   0  0  0  0  0  0  0  0  0  0  0  0
   10.6702   -3.9051   22.4070 C   0  0  0  0  0  0  0  0  0  0  0  0
   11.0625   -3.0028   18.8894 C   0  0  0  0  0  0  0  0  0  0  0  0
    5.6180   -7.9194   16.1754 O   0  0  0  0  0  0  0  0  0  0  0  0
    9.7259   -5.3080   18.4485 C   0  0  0  0  0  0  0  0  0  0  0  0
    9.4578   -5.0200   16.3036 N   0  0  0  0  0  0  0  0  0  0  0  0
    5.0287   -8.9365   16.8223 C   0  0  0  0  0  0  0  0  0  0  0  0
    8.7742   -6.1498   16.6764 C   0  0  0  0  0  0  0  0  0  0  0  0
   10.9418   -3.4032   21.2053 O   0  0  0  0  0  0  0  0  0  0  0  0
    1.4797   -8.6258   16.2950 C   0  0  0  0  0  0  0  0  0  0  0  0
    9.2861   -1.2743   25.3585 C   0  0  0  0  0  0  0  0  0  0  0  0
    1.8892  -10.3985   17.7511 N   0  0  0  0  0  0  0  0  0  0  0  0
    9.6210   -0.6952   24.0976 C   0  0  0  0  0  0  0  0  0  0  0  0
    7.0792   -9.0217   17.1429 C   0  0  0  0  0  0  0  0  0  0  0  0
    3.1713  -10.1816   17.6634 C   0  0  0  0  0  0  0  0  0  0  0  0
    2.7878   -8.3822   16.2137 C   0  0  0  0  0  0  0  0  0  0  0  0
    9.4601   -2.6590   25.6528 C   0  0  0  0  0  0  0  0  0  0  0  0
   10.1182   -1.5672   23.1165 C   0  0  0  0  0  0  0  0  0  0  0  0
    1.0552   -9.6360   17.0650 C   0  0  0  0  0  0  0  0  0  0  0  0
    3.6519   -9.1783   16.9039 C   0  0  0  0  0  0  0  0  0  0  0  0
    7.8675   -7.0096   15.9415 C   0  0  0  0  0  0  0  0  0  0  0  0
    5.9733   -9.6553   17.3832 N   0  0  0  0  0  0  0  0  0  0  0  0
   10.2411   -2.9363   23.4301 C   0  0  0  0  0  0  0  0  0  0  0  0
   10.7288   -3.8197   19.9525 C   0  0  0  0  0  0  0  0  0  0  0  0
   10.1189   -5.0054   19.6987 C   0  0  0  0  0  0  0  0  0  0  0  0
  1  3  4  0
  1  7  4  0
  2 21  4  0
  2 27  4  0
  3  9  4  0
  3 10  4  0
  4  8  4  0
  4 18  4  0
  4 25  1  0
  5  9  4  0
  5 12  4  0
  6 13  1  0
  6 27  1  0
  7 28  4  0
  8 11  4  0
  9 29  4  0
 10 12  4  0
 11 24  1  0
 11 26  4  0
 12 25  1  0
 13 28  1  0
 14 20  4  0
 14 23  4  0
 15 17  4  0
 15 21  4  0
 16 19  4  0
 16 23  4  0
 17 22  4  0
 18 26  4  0
 19 24  4  0
 20 24  4  0
 22 27  4  0
 28 29  4  0
M  END
$$$$

 Created by Python create_sdf_string function

 29 33  0  0  0  0  0  0  0  0999 V2000
   10.7215   -3.3326   17.6437 C   0  0  0  0  0  0  0  0  0  0  0  0
    9.9489   -3.4675   24.6487 N   0  0  0  0  0  0  0  0  0  0  0  0
   10.0172   -4.4740   17.4101 C   0  0  0  0  0  0  0  0  0  0  0  0
    6.9051   -7.9575   16.4222 C   0  0  0  0  0  0  0  0  0  0  0  0
    8.9969   -6.3552   17.9668 N   0  0  0  0  0  0  0  0  0  0  0  0
   10.6702   -3.9051   22.4070 C   0  0  0  0  0  0  0  0  0  0  0  0
   11.0625   -3.0028   18.8894 C   0  0  0  0  0  0  0  0  0  0  0  0
    5.6180   -7.9194   16.1754 O   0  0  0  0  0  0  0  0  0  0  0  0
    9.7259   -5.3080   18.4485 C   0  0  0  0  0  0  0  0  0  0  0  0
    9.4578   -5.0200   16.3036 N   0  0  0  0  0  0  0  0  0  0  0  0
    5.0287   -8.9365   16.8223 C   0  0  0  0  0  0  0  0  0  0  0  0
    8.7742   -6.1498   16.6764 C   0  0  0  0  0  0  0  0  0  0  0  0
   10.9418   -3.4032   21.2053 O   0  0  0  0  0  0  0  0  0  0  0  0
    1.4797   -8.6258   16.2950 C   0  0  0  0  0  0  0  0  0  0  0  0
    9.2861   -1.2743   25.3585 C   0  0  0  0  0  0  0  0  0  0  0  0
    1.8892  -10.3985   17.7511 N   0  0  0  0  0  0  0  0  0  0  0  0
    9.6210   -0.6952   24.0976 C   0  0  0  0  0  0  0  0  0  0  0  0
    7.0792   -9.0217   17.1429 C   0  0  0  0  0  0  0  0  0  0  0  0
    3.1713  -10.1816   17.6634 C   0  0  0  0  0  0  0  0  0  0  0  0
    2.7878   -8.3822   16.2137 C   0  0  0  0  0  0  0  0  0  0  0  0
    9.4601   -2.6590   25.6528 C   0  0  0  0  0  0  0  0  0  0  0  0
   10.1182   -1.5672   23.1165 C   0  0  0  0  0  0  0  0  0  0  0  0
    1.0552   -9.6360   17.0650 C   0  0  0  0  0  0  0  0  0  0  0  0
    3.6519   -9.1783   16.9039 C   0  0  0  0  0  0  0  0  0  0  0  0
    7.8675   -7.0096   15.9415 C   0  0  0  0  0  0  0  0  0  0  0  0
    5.9733   -9.6553   17.3832 N   0  0  0  0  0  0  0  0  0  0  0  0
   10.2411   -2.9363   23.4301 C   0  0  0  0  0  0  0  0  0  0  0  0
   10.7288   -3.8197   19.9525 C   0  0  0  0  0  0  0  0  0  0  0  0
   10.1189   -5.0054   19.6987 C   0  0  0  0  0  0  0  0  0  0  0  0
  1  3  4  0
  1  7  4  0
  2 21  4  0
  2 27  4  0
  3  9  4  0
  3 10  4  0
  4  8  4  0
  4 18  4  0
  4 25  1  0
  5  9  4  0
  5 12  4  0
  6 13  1  0
  6 27  1  0
  7 28  4  0
  8 11  4  0
  9 29  4  0
 10 12  4  0
 11 24  1  0
 11 26  4  0
 12 25  1  0
 13 28  1  0
 14 20  4  0
 14 23  4  0
 15 17  4  0
 15 21  4  0
 16 19  4  0
 16 23  4  0
 17 22  4  0
 18 26  4  0
 19 24  4  0
 20 24  4  0
 22 27  4  0
 28 29  4  0
M  END
$$$$

 Created by Python create_sdf_string function

 29 33  0  0  0  0  0  0  0  0999 V2000
   10.7215   -3.3326   17.6437 C   0  0  0  0  0  0  0  0  0  0  0  0
    9.9489   -3.4675   24.6487 N   0  0  0  0  0  0  0  0  0  0  0  0
   10.0172   -4.4740   17.4101 C   0  0  0  0  0  0  0  0  0  0  0  0
    6.9051   -7.9575   16.4222 C   0  0  0  0  0  0  0  0  0  0  0  0
    8.9969   -6.3552   17.9668 N   0  0  0  0  0  0  0  0  0  0  0  0
   10.6702   -3.9051   22.4070 C   0  0  0  0  0  0  0  0  0  0  0  0
   11.0625   -3.0028   18.8894 C   0  0  0  0  0  0  0  0  0  0  0  0
    5.6180   -7.9194   16.1754 O   0  0  0  0  0  0  0  0  0  0  0  0
    9.7259   -5.3080   18.4485 C   0  0  0  0  0  0  0  0  0  0  0  0
    9.4578   -5.0200   16.3036 N   0  0  0  0  0  0  0  0  0  0  0  0
    5.0287   -8.9365   16.8223 C   0  0  0  0  0  0  0  0  0  0  0  0
    8.7742   -6.1498   16.6764 C   0  0  0  0  0  0  0  0  0  0  0  0
   10.9418   -3.4032   21.2053 O   0  0  0  0  0  0  0  0  0  0  0  0
    1.4797   -8.6258   16.2950 C   0  0  0  0  0  0  0  0  0  0  0  0
    9.2861   -1.2743   25.3585 C   0  0  0  0  0  0  0  0  0  0  0  0
    1.8892  -10.3985   17.7511 N   0  0  0  0  0  0  0  0  0  0  0  0
    9.6210   -0.6952   24.0976 C   0  0  0  0  0  0  0  0  0  0  0  0
    7.0792   -9.0217   17.1429 C   0  0  0  0  0  0  0  0  0  0  0  0
    3.1713  -10.1816   17.6634 C   0  0  0  0  0  0  0  0  0  0  0  0
    2.7878   -8.3822   16.2137 C   0  0  0  0  0  0  0  0  0  0  0  0
    9.4601   -2.6590   25.6528 C   0  0  0  0  0  0  0  0  0  0  0  0
   10.1182   -1.5672   23.1165 C   0  0  0  0  0  0  0  0  0  0  0  0
    1.0552   -9.6360   17.0650 C   0  0  0  0  0  0  0  0  0  0  0  0
    3.6519   -9.1783   16.9039 C   0  0  0  0  0  0  0  0  0  0  0  0
    7.8675   -7.0096   15.9415 C   0  0  0  0  0  0  0  0  0  0  0  0
    5.9733   -9.6553   17.3832 N   0  0  0  0  0  0  0  0  0  0  0  0
   10.2411   -2.9363   23.4301 C   0  0  0  0  0  0  0  0  0  0  0  0
   10.7288   -3.8197   19.9525 C   0  0  0  0  0  0  0  0  0  0  0  0
   10.1189   -5.0054   19.6987 C   0  0  0  0  0  0  0  0  0  0  0  0
  1  3  4  0
  1  7  4  0
  2 21  4  0
  2 27  4  0
  3  9  4  0
  3 10  4  0
  4  8  4  0
  4 18  4  0
  4 25  1  0
  5  9  4  0
  5 12  4  0
  6 13  1  0
  6 27  1  0
  7 28  4  0
  8 11  4  0
  9 29  4  0
 10 12  4  0
 11 24  1  0
 11 26  4  0
 12 25  1  0
 13 28  1  0
 14 20  4  0
 14 23  4  0
 15 17  4  0
 15 21  4  0
 16 19  4  0
 16 23  4  0
 17 22  4  0
 18 26  4  0
 19 24  4  0
 20 24  4  0
 22 27  4  0
 28 29  4  0
M  END
$$$$

 Created by Python create_sdf_string function

 29 33  0  0  0  0  0  0  0  0999 V2000
   10.7215   -3.3326   17.6437 C   0  0  0  0  0  0  0  0  0  0  0  0
    9.9489   -3.4675   24.6487 N   0  0  0  0  0  0  0  0  0  0  0  0
   10.0172   -4.4740   17.4101 C   0  0  0  0  0  0  0  0  0  0  0  0
    6.9051   -7.9575   16.4222 C   0  0  0  0  0  0  0  0  0  0  0  0
    8.9969   -6.3552   17.9668 N   0  0  0  0  0  0  0  0  0  0  0  0
   10.6702   -3.9051   22.4070 C   0  0  0  0  0  0  0  0  0  0  0  0
   11.0625   -3.0028   18.8894 C   0  0  0  0  0  0  0  0  0  0  0  0
    5.6180   -7.9194   16.1754 O   0  0  0  0  0  0  0  0  0  0  0  0
    9.7259   -5.3080   18.4485 C   0  0  0  0  0  0  0  0  0  0  0  0
    9.4578   -5.0200   16.3036 N   0  0  0  0  0  0  0  0  0  0  0  0
    5.0287   -8.9365   16.8223 C   0  0  0  0  0  0  0  0  0  0  0  0
    8.7742   -6.1498   16.6764 C   0  0  0  0  0  0  0  0  0  0  0  0
   10.9418   -3.4032   21.2053 O   0  0  0  0  0  0  0  0  0  0  0  0
    1.4797   -8.6258   16.2950 C   0  0  0  0  0  0  0  0  0  0  0  0
    9.2861   -1.2743   25.3585 C   0  0  0  0  0  0  0  0  0  0  0  0
    1.8892  -10.3985   17.7511 N   0  0  0  0  0  0  0  0  0  0  0  0
    9.6210   -0.6952   24.0976 C   0  0  0  0  0  0  0  0  0  0  0  0
    7.0792   -9.0217   17.1429 C   0  0  0  0  0  0  0  0  0  0  0  0
    3.1713  -10.1816   17.6634 C   0  0  0  0  0  0  0  0  0  0  0  0
    2.7878   -8.3822   16.2137 C   0  0  0  0  0  0  0  0  0  0  0  0
    9.4601   -2.6590   25.6528 C   0  0  0  0  0  0  0  0  0  0  0  0
   10.1182   -1.5672   23.1165 C   0  0  0  0  0  0  0  0  0  0  0  0
    1.0552   -9.6360   17.0650 C   0  0  0  0  0  0  0  0  0  0  0  0
    3.6519   -9.1783   16.9039 C   0  0  0  0  0  0  0  0  0  0  0  0
    7.8675   -7.0096   15.9415 C   0  0  0  0  0  0  0  0  0  0  0  0
    5.9733   -9.6553   17.3832 N   0  0  0  0  0  0  0  0  0  0  0  0
   10.2411   -2.9363   23.4301 C   0  0  0  0  0  0  0  0  0  0  0  0
   10.7288   -3.8197   19.9525 C   0  0  0  0  0  0  0  0  0  0  0  0
   10.1189   -5.0054   19.6987 C   0  0  0  0  0  0  0  0  0  0  0  0
  1  3  4  0
  1  7  4  0
  2 21  4  0
  2 27  4  0
  3  9  4  0
  3 10  4  0
  4  8  4  0
  4 18  4  0
  4 25  1  0
  5  9  4  0
  5 12  4  0
  6 13  1  0
  6 27  1  0
  7 28  4  0
  8 11  4  0
  9 29  4  0
 10 12  4  0
 11 24  1  0
 11 26  4  0
 12 25  1  0
 13 28  1  0
 14 20  4  0
 14 23  4  0
 15 17  4  0
 15 21  4  0
 16 19  4  0
 16 23  4  0
 17 22  4  0
 18 26  4  0
 19 24  4  0
 20 24  4  0
 22 27  4  0
 28 29  4  0
M  END
$$$$

 Created by Python create_sdf_string function

 29 33  0  0  0  0  0  0  0  0999 V2000
   10.7215   -3.3326   17.6437 C   0  0  0  0  0  0  0  0  0  0  0  0
    9.9489   -3.4675   24.6487 N   0  0  0  0  0  0  0  0  0  0  0  0
   10.0172   -4.4740   17.4101 C   0  0  0  0  0  0  0  0  0  0  0  0
    6.9051   -7.9575   16.4222 C   0  0  0  0  0  0  0  0  0  0  0  0
    8.9969   -6.3552   17.9668 N   0  0  0  0  0  0  0  0  0  0  0  0
   10.6702   -3.9051   22.4070 C   0  0  0  0  0  0  0  0  0  0  0  0
   11.0625   -3.0028   18.8894 C   0  0  0  0  0  0  0  0  0  0  0  0
    5.6180   -7.9194   16.1754 O   0  0  0  0  0  0  0  0  0  0  0  0
    9.7259   -5.3080   18.4485 C   0  0  0  0  0  0  0  0  0  0  0  0
    9.4578   -5.0200   16.3036 N   0  0  0  0  0  0  0  0  0  0  0  0
    5.0287   -8.9365   16.8223 C   0  0  0  0  0  0  0  0  0  0  0  0
    8.7742   -6.1498   16.6764 C   0  0  0  0  0  0  0  0  0  0  0  0
   10.9418   -3.4032   21.2053 O   0  0  0  0  0  0  0  0  0  0  0  0
    1.4797   -8.6258   16.2950 C   0  0  0  0  0  0  0  0  0  0  0  0
    9.2861   -1.2743   25.3585 C   0  0  0  0  0  0  0  0  0  0  0  0
    1.8892  -10.3985   17.7511 N   0  0  0  0  0  0  0  0  0  0  0  0
    9.6210   -0.6952   24.0976 C   0  0  0  0  0  0  0  0  0  0  0  0
    7.0792   -9.0217   17.1429 C   0  0  0  0  0  0  0  0  0  0  0  0
    3.1713  -10.1816   17.6634 C   0  0  0  0  0  0  0  0  0  0  0  0
    2.7878   -8.3822   16.2137 C   0  0  0  0  0  0  0  0  0  0  0  0
    9.4601   -2.6590   25.6528 C   0  0  0  0  0  0  0  0  0  0  0  0
   10.1182   -1.5672   23.1165 C   0  0  0  0  0  0  0  0  0  0  0  0
    1.0552   -9.6360   17.0650 C   0  0  0  0  0  0  0  0  0  0  0  0
    3.6519   -9.1783   16.9039 C   0  0  0  0  0  0  0  0  0  0  0  0
    7.8675   -7.0096   15.9415 C   0  0  0  0  0  0  0  0  0  0  0  0
    5.9733   -9.6553   17.3832 N   0  0  0  0  0  0  0  0  0  0  0  0
   10.2411   -2.9363   23.4301 C   0  0  0  0  0  0  0  0  0  0  0  0
   10.7288   -3.8197   19.9525 C   0  0  0  0  0  0  0  0  0  0  0  0
   10.1189   -5.0054   19.6987 C   0  0  0  0  0  0  0  0  0  0  0  0
  1  3  4  0
  1  7  4  0
  2 21  4  0
  2 27  4  0
  3  9  4  0
  3 10  4  0
  4  8  4  0
  4 18  4  0
  4 25  1  0
  5  9  4  0
  5 12  4  0
  6 13  1  0
  6 27  1  0
  7 28  4  0
  8 11  4  0
  9 29  4  0
 10 12  4  0
 11 24  1  0
 11 26  4  0
 12 25  1  0
 13 28  1  0
 14 20  4  0
 14 23  4  0
 15 17  4  0
 15 21  4  0
 16 19  4  0
 16 23  4  0
 17 22  4  0
 18 26  4  0
 19 24  4  0
 20 24  4  0
 22 27  4  0
 28 29  4  0
M  END
$$$$

 Created by Python create_sdf_string function

 29 33  0  0  0  0  0  0  0  0999 V2000
   10.7215   -3.3326   17.6437 C   0  0  0  0  0  0  0  0  0  0  0  0
    9.9489   -3.4675   24.6487 N   0  0  0  0  0  0  0  0  0  0  0  0
   10.0172   -4.4740   17.4101 C   0  0  0  0  0  0  0  0  0  0  0  0
    6.9051   -7.9575   16.4222 C   0  0  0  0  0  0  0  0  0  0  0  0
    8.9969   -6.3552   17.9668 N   0  0  0  0  0  0  0  0  0  0  0  0
   10.6702   -3.9051   22.4070 C   0  0  0  0  0  0  0  0  0  0  0  0
   11.0625   -3.0028   18.8894 C   0  0  0  0  0  0  0  0  0  0  0  0
    5.6180   -7.9194   16.1754 O   0  0  0  0  0  0  0  0  0  0  0  0
    9.7259   -5.3080   18.4485 C   0  0  0  0  0  0  0  0  0  0  0  0
    9.4578   -5.0200   16.3036 N   0  0  0  0  0  0  0  0  0  0  0  0
    5.0287   -8.9365   16.8223 C   0  0  0  0  0  0  0  0  0  0  0  0
    8.7742   -6.1498   16.6764 C   0  0  0  0  0  0  0  0  0  0  0  0
   10.9418   -3.4032   21.2053 O   0  0  0  0  0  0  0  0  0  0  0  0
    1.4797   -8.6258   16.2950 C   0  0  0  0  0  0  0  0  0  0  0  0
    9.2861   -1.2743   25.3585 C   0  0  0  0  0  0  0  0  0  0  0  0
    1.8892  -10.3985   17.7511 N   0  0  0  0  0  0  0  0  0  0  0  0
    9.6210   -0.6952   24.0976 C   0  0  0  0  0  0  0  0  0  0  0  0
    7.0792   -9.0217   17.1429 C   0  0  0  0  0  0  0  0  0  0  0  0
    3.1713  -10.1816   17.6634 C   0  0  0  0  0  0  0  0  0  0  0  0
    2.7878   -8.3822   16.2137 C   0  0  0  0  0  0  0  0  0  0  0  0
    9.4601   -2.6590   25.6528 C   0  0  0  0  0  0  0  0  0  0  0  0
   10.1182   -1.5672   23.1165 C   0  0  0  0  0  0  0  0  0  0  0  0
    1.0552   -9.6360   17.0650 C   0  0  0  0  0  0  0  0  0  0  0  0
    3.6519   -9.1783   16.9039 C   0  0  0  0  0  0  0  0  0  0  0  0
    7.8675   -7.0096   15.9415 C   0  0  0  0  0  0  0  0  0  0  0  0
    5.9733   -9.6553   17.3832 N   0  0  0  0  0  0  0  0  0  0  0  0
   10.2411   -2.9363   23.4301 C   0  0  0  0  0  0  0  0  0  0  0  0
   10.7288   -3.8197   19.9525 C   0  0  0  0  0  0  0  0  0  0  0  0
   10.1189   -5.0054   19.6987 C   0  0  0  0  0  0  0  0  0  0  0  0
  1  3  4  0
  1  7  4  0
  2 21  4  0
  2 27  4  0
  3  9  4  0
  3 10  4  0
  4  8  4  0
  4 18  4  0
  4 25  1  0
  5  9  4  0
  5 12  4  0
  6 13  1  0
  6 27  1  0
  7 28  4  0
  8 11  4  0
  9 29  4  0
 10 12  4  0
 11 24  1  0
 11 26  4  0
 12 25  1  0
 13 28  1  0
 14 20  4  0
 14 23  4  0
 15 17  4  0
 15 21  4  0
 16 19  4  0
 16 23  4  0
 17 22  4  0
 18 26  4  0
 19 24  4  0
 20 24  4  0
 22 27  4  0
 28 29  4  0
M  END
$$$$

 Created by Python create_sdf_string function

 29 33  0  0  0  0  0  0  0  0999 V2000
   10.7215   -3.3326   17.6437 C   0  0  0  0  0  0  0  0  0  0  0  0
    9.9489   -3.4675   24.6487 N   0  0  0  0  0  0  0  0  0  0  0  0
   10.0172   -4.4740   17.4101 C   0  0  0  0  0  0  0  0  0  0  0  0
    6.9051   -7.9575   16.4222 C   0  0  0  0  0  0  0  0  0  0  0  0
    8.9969   -6.3552   17.9668 N   0  0  0  0  0  0  0  0  0  0  0  0
   10.6702   -3.9051   22.4070 C   0  0  0  0  0  0  0  0  0  0  0  0
   11.0625   -3.0028   18.8894 C   0  0  0  0  0  0  0  0  0  0  0  0
    5.6180   -7.9194   16.1754 O   0  0  0  0  0  0  0  0  0  0  0  0
    9.7259   -5.3080   18.4485 C   0  0  0  0  0  0  0  0  0  0  0  0
    9.4578   -5.0200   16.3036 N   0  0  0  0  0  0  0  0  0  0  0  0
    5.0287   -8.9365   16.8223 C   0  0  0  0  0  0  0  0  0  0  0  0
    8.7742   -6.1498   16.6764 C   0  0  0  0  0  0  0  0  0  0  0  0
   10.9418   -3.4032   21.2053 O   0  0  0  0  0  0  0  0  0  0  0  0
    1.4797   -8.6258   16.2950 C   0  0  0  0  0  0  0  0  0  0  0  0
    9.2861   -1.2743   25.3585 C   0  0  0  0  0  0  0  0  0  0  0  0
    1.8892  -10.3985   17.7511 N   0  0  0  0  0  0  0  0  0  0  0  0
    9.6210   -0.6952   24.0976 C   0  0  0  0  0  0  0  0  0  0  0  0
    7.0792   -9.0217   17.1429 C   0  0  0  0  0  0  0  0  0  0  0  0
    3.1713  -10.1816   17.6634 C   0  0  0  0  0  0  0  0  0  0  0  0
    2.7878   -8.3822   16.2137 C   0  0  0  0  0  0  0  0  0  0  0  0
    9.4601   -2.6590   25.6528 C   0  0  0  0  0  0  0  0  0  0  0  0
   10.1182   -1.5672   23.1165 C   0  0  0  0  0  0  0  0  0  0  0  0
    1.0552   -9.6360   17.0650 C   0  0  0  0  0  0  0  0  0  0  0  0
    3.6519   -9.1783   16.9039 C   0  0  0  0  0  0  0  0  0  0  0  0
    7.8675   -7.0096   15.9415 C   0  0  0  0  0  0  0  0  0  0  0  0
    5.9733   -9.6553   17.3832 N   0  0  0  0  0  0  0  0  0  0  0  0
   10.2411   -2.9363   23.4301 C   0  0  0  0  0  0  0  0  0  0  0  0
   10.7288   -3.8197   19.9525 C   0  0  0  0  0  0  0  0  0  0  0  0
   10.1189   -5.0054   19.6987 C   0  0  0  0  0  0  0  0  0  0  0  0
  1  3  4  0
  1  7  4  0
  2 21  4  0
  2 27  4  0
  3  9  4  0
  3 10  4  0
  4  8  4  0
  4 18  4  0
  4 25  1  0
  5  9  4  0
  5 12  4  0
  6 13  1  0
  6 27  1  0
  7 28  4  0
  8 11  4  0
  9 29  4  0
 10 12  4  0
 11 24  1  0
 11 26  4  0
 12 25  1  0
 13 28  1  0
 14 20  4  0
 14 23  4  0
 15 17  4  0
 15 21  4  0
 16 19  4  0
 16 23  4  0
 17 22  4  0
 18 26  4  0
 19 24  4  0
 20 24  4  0
 22 27  4  0
 28 29  4  0
M  END
$$$$

 Created by Python create_sdf_string function

 29 33  0  0  0  0  0  0  0  0999 V2000
   10.7215   -3.3326   17.6437 C   0  0  0  0  0  0  0  0  0  0  0  0
    9.9489   -3.4675   24.6487 N   0  0  0  0  0  0  0  0  0  0  0  0
   10.0172   -4.4740   17.4101 C   0  0  0  0  0  0  0  0  0  0  0  0
    6.9051   -7.9575   16.4222 C   0  0  0  0  0  0  0  0  0  0  0  0
    8.9969   -6.3552   17.9668 N   0  0  0  0  0  0  0  0  0  0  0  0
   10.6702   -3.9051   22.4070 C   0  0  0  0  0  0  0  0  0  0  0  0
   11.0625   -3.0028   18.8894 C   0  0  0  0  0  0  0  0  0  0  0  0
    5.6180   -7.9194   16.1754 O   0  0  0  0  0  0  0  0  0  0  0  0
    9.7259   -5.3080   18.4485 C   0  0  0  0  0  0  0  0  0  0  0  0
    9.4578   -5.0200   16.3036 N   0  0  0  0  0  0  0  0  0  0  0  0
    5.0287   -8.9365   16.8223 C   0  0  0  0  0  0  0  0  0  0  0  0
    8.7742   -6.1498   16.6764 C   0  0  0  0  0  0  0  0  0  0  0  0
   10.9418   -3.4032   21.2053 O   0  0  0  0  0  0  0  0  0  0  0  0
    1.4797   -8.6258   16.2950 C   0  0  0  0  0  0  0  0  0  0  0  0
    9.2861   -1.2743   25.3585 C   0  0  0  0  0  0  0  0  0  0  0  0
    1.8892  -10.3985   17.7511 N   0  0  0  0  0  0  0  0  0  0  0  0
    9.6210   -0.6952   24.0976 C   0  0  0  0  0  0  0  0  0  0  0  0
    7.0792   -9.0217   17.1429 C   0  0  0  0  0  0  0  0  0  0  0  0
    3.1713  -10.1816   17.6634 C   0  0  0  0  0  0  0  0  0  0  0  0
    2.7878   -8.3822   16.2137 C   0  0  0  0  0  0  0  0  0  0  0  0
    9.4601   -2.6590   25.6528 C   0  0  0  0  0  0  0  0  0  0  0  0
   10.1182   -1.5672   23.1165 C   0  0  0  0  0  0  0  0  0  0  0  0
    1.0552   -9.6360   17.0650 C   0  0  0  0  0  0  0  0  0  0  0  0
    3.6519   -9.1783   16.9039 C   0  0  0  0  0  0  0  0  0  0  0  0
    7.8675   -7.0096   15.9415 C   0  0  0  0  0  0  0  0  0  0  0  0
    5.9733   -9.6553   17.3832 N   0  0  0  0  0  0  0  0  0  0  0  0
   10.2411   -2.9363   23.4301 C   0  0  0  0  0  0  0  0  0  0  0  0
   10.7288   -3.8197   19.9525 C   0  0  0  0  0  0  0  0  0  0  0  0
   10.1189   -5.0054   19.6987 C   0  0  0  0  0  0  0  0  0  0  0  0
  1  3  4  0
  1  7  4  0
  2 21  4  0
  2 27  4  0
  3  9  4  0
  3 10  4  0
  4  8  4  0
  4 18  4  0
  4 25  1  0
  5  9  4  0
  5 12  4  0
  6 13  1  0
  6 27  1  0
  7 28  4  0
  8 11  4  0
  9 29  4  0
 10 12  4  0
 11 24  1  0
 11 26  4  0
 12 25  1  0
 13 28  1  0
 14 20  4  0
 14 23  4  0
 15 17  4  0
 15 21  4  0
 16 19  4  0
 16 23  4  0
 17 22  4  0
 18 26  4  0
 19 24  4  0
 20 24  4  0
 22 27  4  0
 28 29  4  0
M  END
$$$$

 Created by Python create_sdf_string function

 29 33  0  0  0  0  0  0  0  0999 V2000
   10.7215   -3.3326   17.6437 C   0  0  0  0  0  0  0  0  0  0  0  0
    9.9489   -3.4675   24.6487 N   0  0  0  0  0  0  0  0  0  0  0  0
   10.0172   -4.4740   17.4101 C   0  0  0  0  0  0  0  0  0  0  0  0
    6.9051   -7.9575   16.4222 C   0  0  0  0  0  0  0  0  0  0  0  0
    8.9969   -6.3552   17.9668 N   0  0  0  0  0  0  0  0  0  0  0  0
   10.6702   -3.9051   22.4070 C   0  0  0  0  0  0  0  0  0  0  0  0
   11.0625   -3.0028   18.8894 C   0  0  0  0  0  0  0  0  0  0  0  0
    5.6180   -7.9194   16.1754 O   0  0  0  0  0  0  0  0  0  0  0  0
    9.7259   -5.3080   18.4485 C   0  0  0  0  0  0  0  0  0  0  0  0
    9.4578   -5.0200   16.3036 N   0  0  0  0  0  0  0  0  0  0  0  0
    5.0287   -8.9365   16.8223 C   0  0  0  0  0  0  0  0  0  0  0  0
    8.7742   -6.1498   16.6764 C   0  0  0  0  0  0  0  0  0  0  0  0
   10.9418   -3.4032   21.2053 O   0  0  0  0  0  0  0  0  0  0  0  0
    1.4797   -8.6258   16.2950 C   0  0  0  0  0  0  0  0  0  0  0  0
    9.2861   -1.2743   25.3585 C   0  0  0  0  0  0  0  0  0  0  0  0
    1.8892  -10.3985   17.7511 N   0  0  0  0  0  0  0  0  0  0  0  0
    9.6210   -0.6952   24.0976 C   0  0  0  0  0  0  0  0  0  0  0  0
    7.0792   -9.0217   17.1429 C   0  0  0  0  0  0  0  0  0  0  0  0
    3.1713  -10.1816   17.6634 C   0  0  0  0  0  0  0  0  0  0  0  0
    2.7878   -8.3822   16.2137 C   0  0  0  0  0  0  0  0  0  0  0  0
    9.4601   -2.6590   25.6528 C   0  0  0  0  0  0  0  0  0  0  0  0
   10.1182   -1.5672   23.1165 C   0  0  0  0  0  0  0  0  0  0  0  0
    1.0552   -9.6360   17.0650 C   0  0  0  0  0  0  0  0  0  0  0  0
    3.6519   -9.1783   16.9039 C   0  0  0  0  0  0  0  0  0  0  0  0
    7.8675   -7.0096   15.9415 C   0  0  0  0  0  0  0  0  0  0  0  0
    5.9733   -9.6553   17.3832 N   0  0  0  0  0  0  0  0  0  0  0  0
   10.2411   -2.9363   23.4301 C   0  0  0  0  0  0  0  0  0  0  0  0
   10.7288   -3.8197   19.9525 C   0  0  0  0  0  0  0  0  0  0  0  0
   10.1189   -5.0054   19.6987 C   0  0  0  0  0  0  0  0  0  0  0  0
  1  3  4  0
  1  7  4  0
  2 21  4  0
  2 27  4  0
  3  9  4  0
  3 10  4  0
  4  8  4  0
  4 18  4  0
  4 25  1  0
  5  9  4  0
  5 12  4  0
  6 13  1  0
  6 27  1  0
  7 28  4  0
  8 11  4  0
  9 29  4  0
 10 12  4  0
 11 24  1  0
 11 26  4  0
 12 25  1  0
 13 28  1  0
 14 20  4  0
 14 23  4  0
 15 17  4  0
 15 21  4  0
 16 19  4  0
 16 23  4  0
 17 22  4  0
 18 26  4  0
 19 24  4  0
 20 24  4  0
 22 27  4  0
 28 29  4  0
M  END
$$$$

 Created by Python create_sdf_string function

 29 33  0  0  0  0  0  0  0  0999 V2000
   10.7215   -3.3326   17.6437 C   0  0  0  0  0  0  0  0  0  0  0  0
    9.9489   -3.4675   24.6487 N   0  0  0  0  0  0  0  0  0  0  0  0
   10.0172   -4.4740   17.4101 C   0  0  0  0  0  0  0  0  0  0  0  0
    6.9051   -7.9575   16.4222 C   0  0  0  0  0  0  0  0  0  0  0  0
    8.9969   -6.3552   17.9668 N   0  0  0  0  0  0  0  0  0  0  0  0
   10.6702   -3.9051   22.4070 C   0  0  0  0  0  0  0  0  0  0  0  0
   11.0625   -3.0028   18.8894 C   0  0  0  0  0  0  0  0  0  0  0  0
    5.6180   -7.9194   16.1754 O   0  0  0  0  0  0  0  0  0  0  0  0
    9.7259   -5.3080   18.4485 C   0  0  0  0  0  0  0  0  0  0  0  0
    9.4578   -5.0200   16.3036 N   0  0  0  0  0  0  0  0  0  0  0  0
    5.0287   -8.9365   16.8223 C   0  0  0  0  0  0  0  0  0  0  0  0
    8.7742   -6.1498   16.6764 C   0  0  0  0  0  0  0  0  0  0  0  0
   10.9418   -3.4032   21.2053 O   0  0  0  0  0  0  0  0  0  0  0  0
    1.4797   -8.6258   16.2950 C   0  0  0  0  0  0  0  0  0  0  0  0
    9.2861   -1.2743   25.3585 C   0  0  0  0  0  0  0  0  0  0  0  0
    1.8892  -10.3985   17.7511 N   0  0  0  0  0  0  0  0  0  0  0  0
    9.6210   -0.6952   24.0976 C   0  0  0  0  0  0  0  0  0  0  0  0
    7.0792   -9.0217   17.1429 C   0  0  0  0  0  0  0  0  0  0  0  0
    3.1713  -10.1816   17.6634 C   0  0  0  0  0  0  0  0  0  0  0  0
    2.7878   -8.3822   16.2137 C   0  0  0  0  0  0  0  0  0  0  0  0
    9.4601   -2.6590   25.6528 C   0  0  0  0  0  0  0  0  0  0  0  0
   10.1182   -1.5672   23.1165 C   0  0  0  0  0  0  0  0  0  0  0  0
    1.0552   -9.6360   17.0650 C   0  0  0  0  0  0  0  0  0  0  0  0
    3.6519   -9.1783   16.9039 C   0  0  0  0  0  0  0  0  0  0  0  0
    7.8675   -7.0096   15.9415 C   0  0  0  0  0  0  0  0  0  0  0  0
    5.9733   -9.6553   17.3832 N   0  0  0  0  0  0  0  0  0  0  0  0
   10.2411   -2.9363   23.4301 C   0  0  0  0  0  0  0  0  0  0  0  0
   10.7288   -3.8197   19.9525 C   0  0  0  0  0  0  0  0  0  0  0  0
   10.1189   -5.0054   19.6987 C   0  0  0  0  0  0  0  0  0  0  0  0
  1  3  4  0
  1  7  4  0
  2 21  4  0
  2 27  4  0
  3  9  4  0
  3 10  4  0
  4  8  4  0
  4 18  4  0
  4 25  1  0
  5  9  4  0
  5 12  4  0
  6 13  1  0
  6 27  1  0
  7 28  4  0
  8 11  4  0
  9 29  4  0
 10 12  4  0
 11 24  1  0
 11 26  4  0
 12 25  1  0
 13 28  1  0
 14 20  4  0
 14 23  4  0
 15 17  4  0
 15 21  4  0
 16 19  4  0
 16 23  4  0
 17 22  4  0
 18 26  4  0
 19 24  4  0
 20 24  4  0
 22 27  4  0
 28 29  4  0
M  END
$$$$

 Created by Python create_sdf_string function

 29 33  0  0  0  0  0  0  0  0999 V2000
   10.7215   -3.3326   17.6437 C   0  0  0  0  0  0  0  0  0  0  0  0
    9.9489   -3.4675   24.6487 N   0  0  0  0  0  0  0  0  0  0  0  0
   10.0172   -4.4740   17.4101 C   0  0  0  0  0  0  0  0  0  0  0  0
    6.9051   -7.9575   16.4222 C   0  0  0  0  0  0  0  0  0  0  0  0
    8.9969   -6.3552   17.9668 N   0  0  0  0  0  0  0  0  0  0  0  0
   10.6702   -3.9051   22.4070 C   0  0  0  0  0  0  0  0  0  0  0  0
   11.0625   -3.0028   18.8894 C   0  0  0  0  0  0  0  0  0  0  0  0
    5.6180   -7.9194   16.1754 O   0  0  0  0  0  0  0  0  0  0  0  0
    9.7259   -5.3080   18.4485 C   0  0  0  0  0  0  0  0  0  0  0  0
    9.4578   -5.0200   16.3036 N   0  0  0  0  0  0  0  0  0  0  0  0
    5.0287   -8.9365   16.8223 C   0  0  0  0  0  0  0  0  0  0  0  0
    8.7742   -6.1498   16.6764 C   0  0  0  0  0  0  0  0  0  0  0  0
   10.9418   -3.4032   21.2053 O   0  0  0  0  0  0  0  0  0  0  0  0
    1.4797   -8.6258   16.2950 C   0  0  0  0  0  0  0  0  0  0  0  0
    9.2861   -1.2743   25.3585 C   0  0  0  0  0  0  0  0  0  0  0  0
    1.8892  -10.3985   17.7511 N   0  0  0  0  0  0  0  0  0  0  0  0
    9.6210   -0.6952   24.0976 C   0  0  0  0  0  0  0  0  0  0  0  0
    7.0792   -9.0217   17.1429 C   0  0  0  0  0  0  0  0  0  0  0  0
    3.1713  -10.1816   17.6634 C   0  0  0  0  0  0  0  0  0  0  0  0
    2.7878   -8.3822   16.2137 C   0  0  0  0  0  0  0  0  0  0  0  0
    9.4601   -2.6590   25.6528 C   0  0  0  0  0  0  0  0  0  0  0  0
   10.1182   -1.5672   23.1165 C   0  0  0  0  0  0  0  0  0  0  0  0
    1.0552   -9.6360   17.0650 C   0  0  0  0  0  0  0  0  0  0  0  0
    3.6519   -9.1783   16.9039 C   0  0  0  0  0  0  0  0  0  0  0  0
    7.8675   -7.0096   15.9415 C   0  0  0  0  0  0  0  0  0  0  0  0
    5.9733   -9.6553   17.3832 N   0  0  0  0  0  0  0  0  0  0  0  0
   10.2411   -2.9363   23.4301 C   0  0  0  0  0  0  0  0  0  0  0  0
   10.7288   -3.8197   19.9525 C   0  0  0  0  0  0  0  0  0  0  0  0
   10.1189   -5.0054   19.6987 C   0  0  0  0  0  0  0  0  0  0  0  0
  1  3  4  0
  1  7  4  0
  2 21  4  0
  2 27  4  0
  3  9  4  0
  3 10  4  0
  4  8  4  0
  4 18  4  0
  4 25  1  0
  5  9  4  0
  5 12  4  0
  6 13  1  0
  6 27  1  0
  7 28  4  0
  8 11  4  0
  9 29  4  0
 10 12  4  0
 11 24  1  0
 11 26  4  0
 12 25  1  0
 13 28  1  0
 14 20  4  0
 14 23  4  0
 15 17  4  0
 15 21  4  0
 16 19  4  0
 16 23  4  0
 17 22  4  0
 18 26  4  0
 19 24  4  0
 20 24  4  0
 22 27  4  0
 28 29  4  0
M  END
$$$$

 Created by Python create_sdf_string function

 29 33  0  0  0  0  0  0  0  0999 V2000
   10.7215   -3.3326   17.6437 C   0  0  0  0  0  0  0  0  0  0  0  0
    9.9489   -3.4675   24.6487 N   0  0  0  0  0  0  0  0  0  0  0  0
   10.0172   -4.4740   17.4101 C   0  0  0  0  0  0  0  0  0  0  0  0
    6.9051   -7.9575   16.4222 C   0  0  0  0  0  0  0  0  0  0  0  0
    8.9969   -6.3552   17.9668 N   0  0  0  0  0  0  0  0  0  0  0  0
   10.6702   -3.9051   22.4070 C   0  0  0  0  0  0  0  0  0  0  0  0
   11.0625   -3.0028   18.8894 C   0  0  0  0  0  0  0  0  0  0  0  0
    5.6180   -7.9194   16.1754 O   0  0  0  0  0  0  0  0  0  0  0  0
    9.7259   -5.3080   18.4485 C   0  0  0  0  0  0  0  0  0  0  0  0
    9.4578   -5.0200   16.3036 N   0  0  0  0  0  0  0  0  0  0  0  0
    5.0287   -8.9365   16.8223 C   0  0  0  0  0  0  0  0  0  0  0  0
    8.7742   -6.1498   16.6764 C   0  0  0  0  0  0  0  0  0  0  0  0
   10.9418   -3.4032   21.2053 O   0  0  0  0  0  0  0  0  0  0  0  0
    1.4797   -8.6258   16.2950 C   0  0  0  0  0  0  0  0  0  0  0  0
    9.2861   -1.2743   25.3585 C   0  0  0  0  0  0  0  0  0  0  0  0
    1.8892  -10.3985   17.7511 N   0  0  0  0  0  0  0  0  0  0  0  0
    9.6210   -0.6952   24.0976 C   0  0  0  0  0  0  0  0  0  0  0  0
    7.0792   -9.0217   17.1429 C   0  0  0  0  0  0  0  0  0  0  0  0
    3.1713  -10.1816   17.6634 C   0  0  0  0  0  0  0  0  0  0  0  0
    2.7878   -8.3822   16.2137 C   0  0  0  0  0  0  0  0  0  0  0  0
    9.4601   -2.6590   25.6528 C   0  0  0  0  0  0  0  0  0  0  0  0
   10.1182   -1.5672   23.1165 C   0  0  0  0  0  0  0  0  0  0  0  0
    1.0552   -9.6360   17.0650 C   0  0  0  0  0  0  0  0  0  0  0  0
    3.6519   -9.1783   16.9039 C   0  0  0  0  0  0  0  0  0  0  0  0
    7.8675   -7.0096   15.9415 C   0  0  0  0  0  0  0  0  0  0  0  0
    5.9733   -9.6553   17.3832 N   0  0  0  0  0  0  0  0  0  0  0  0
   10.2411   -2.9363   23.4301 C   0  0  0  0  0  0  0  0  0  0  0  0
   10.7288   -3.8197   19.9525 C   0  0  0  0  0  0  0  0  0  0  0  0
   10.1189   -5.0054   19.6987 C   0  0  0  0  0  0  0  0  0  0  0  0
  1  3  4  0
  1  7  4  0
  2 21  4  0
  2 27  4  0
  3  9  4  0
  3 10  4  0
  4  8  4  0
  4 18  4  0
  4 25  1  0
  5  9  4  0
  5 12  4  0
  6 13  1  0
  6 27  1  0
  7 28  4  0
  8 11  4  0
  9 29  4  0
 10 12  4  0
 11 24  1  0
 11 26  4  0
 12 25  1  0
 13 28  1  0
 14 20  4  0
 14 23  4  0
 15 17  4  0
 15 21  4  0
 16 19  4  0
 16 23  4  0
 17 22  4  0
 18 26  4  0
 19 24  4  0
 20 24  4  0
 22 27  4  0
 28 29  4  0
M  END
$$$$

 Created by Python create_sdf_string function

 29 33  0  0  0  0  0  0  0  0999 V2000
   10.7215   -3.3326   17.6437 C   0  0  0  0  0  0  0  0  0  0  0  0
    9.9489   -3.4675   24.6487 N   0  0  0  0  0  0  0  0  0  0  0  0
   10.0172   -4.4740   17.4101 C   0  0  0  0  0  0  0  0  0  0  0  0
    6.9051   -7.9575   16.4222 C   0  0  0  0  0  0  0  0  0  0  0  0
    8.9969   -6.3552   17.9668 N   0  0  0  0  0  0  0  0  0  0  0  0
   10.6702   -3.9051   22.4070 C   0  0  0  0  0  0  0  0  0  0  0  0
   11.0625   -3.0028   18.8894 C   0  0  0  0  0  0  0  0  0  0  0  0
    5.6180   -7.9194   16.1754 O   0  0  0  0  0  0  0  0  0  0  0  0
    9.7259   -5.3080   18.4485 C   0  0  0  0  0  0  0  0  0  0  0  0
    9.4578   -5.0200   16.3036 N   0  0  0  0  0  0  0  0  0  0  0  0
    5.0287   -8.9365   16.8223 C   0  0  0  0  0  0  0  0  0  0  0  0
    8.7742   -6.1498   16.6764 C   0  0  0  0  0  0  0  0  0  0  0  0
   10.9418   -3.4032   21.2053 O   0  0  0  0  0  0  0  0  0  0  0  0
    1.4797   -8.6258   16.2950 C   0  0  0  0  0  0  0  0  0  0  0  0
    9.2861   -1.2743   25.3585 C   0  0  0  0  0  0  0  0  0  0  0  0
    1.8892  -10.3985   17.7511 N   0  0  0  0  0  0  0  0  0  0  0  0
    9.6210   -0.6952   24.0976 C   0  0  0  0  0  0  0  0  0  0  0  0
    7.0792   -9.0217   17.1429 C   0  0  0  0  0  0  0  0  0  0  0  0
    3.1713  -10.1816   17.6634 C   0  0  0  0  0  0  0  0  0  0  0  0
    2.7878   -8.3822   16.2137 C   0  0  0  0  0  0  0  0  0  0  0  0
    9.4601   -2.6590   25.6528 C   0  0  0  0  0  0  0  0  0  0  0  0
   10.1182   -1.5672   23.1165 C   0  0  0  0  0  0  0  0  0  0  0  0
    1.0552   -9.6360   17.0650 C   0  0  0  0  0  0  0  0  0  0  0  0
    3.6519   -9.1783   16.9039 C   0  0  0  0  0  0  0  0  0  0  0  0
    7.8675   -7.0096   15.9415 C   0  0  0  0  0  0  0  0  0  0  0  0
    5.9733   -9.6553   17.3832 N   0  0  0  0  0  0  0  0  0  0  0  0
   10.2411   -2.9363   23.4301 C   0  0  0  0  0  0  0  0  0  0  0  0
   10.7288   -3.8197   19.9525 C   0  0  0  0  0  0  0  0  0  0  0  0
   10.1189   -5.0054   19.6987 C   0  0  0  0  0  0  0  0  0  0  0  0
  1  3  4  0
  1  7  4  0
  2 21  4  0
  2 27  4  0
  3  9  4  0
  3 10  4  0
  4  8  4  0
  4 18  4  0
  4 25  1  0
  5  9  4  0
  5 12  4  0
  6 13  1  0
  6 27  1  0
  7 28  4  0
  8 11  4  0
  9 29  4  0
 10 12  4  0
 11 24  1  0
 11 26  4  0
 12 25  1  0
 13 28  1  0
 14 20  4  0
 14 23  4  0
 15 17  4  0
 15 21  4  0
 16 19  4  0
 16 23  4  0
 17 22  4  0
 18 26  4  0
 19 24  4  0
 20 24  4  0
 22 27  4  0
 28 29  4  0
M  END
$$$$

 Created by Python create_sdf_string function

 29 33  0  0  0  0  0  0  0  0999 V2000
   10.7215   -3.3326   17.6437 C   0  0  0  0  0  0  0  0  0  0  0  0
    9.9489   -3.4675   24.6487 N   0  0  0  0  0  0  0  0  0  0  0  0
   10.0172   -4.4740   17.4101 C   0  0  0  0  0  0  0  0  0  0  0  0
    6.9051   -7.9575   16.4222 C   0  0  0  0  0  0  0  0  0  0  0  0
    8.9969   -6.3552   17.9668 N   0  0  0  0  0  0  0  0  0  0  0  0
   10.6702   -3.9051   22.4070 C   0  0  0  0  0  0  0  0  0  0  0  0
   11.0625   -3.0028   18.8894 C   0  0  0  0  0  0  0  0  0  0  0  0
    5.6180   -7.9194   16.1754 O   0  0  0  0  0  0  0  0  0  0  0  0
    9.7259   -5.3080   18.4485 C   0  0  0  0  0  0  0  0  0  0  0  0
    9.4578   -5.0200   16.3036 N   0  0  0  0  0  0  0  0  0  0  0  0
    5.0287   -8.9365   16.8223 C   0  0  0  0  0  0  0  0  0  0  0  0
    8.7742   -6.1498   16.6764 C   0  0  0  0  0  0  0  0  0  0  0  0
   10.9418   -3.4032   21.2053 O   0  0  0  0  0  0  0  0  0  0  0  0
    1.4797   -8.6258   16.2950 C   0  0  0  0  0  0  0  0  0  0  0  0
    9.2861   -1.2743   25.3585 C   0  0  0  0  0  0  0  0  0  0  0  0
    1.8892  -10.3985   17.7511 N   0  0  0  0  0  0  0  0  0  0  0  0
    9.6210   -0.6952   24.0976 C   0  0  0  0  0  0  0  0  0  0  0  0
    7.0792   -9.0217   17.1429 C   0  0  0  0  0  0  0  0  0  0  0  0
    3.1713  -10.1816   17.6634 C   0  0  0  0  0  0  0  0  0  0  0  0
    2.7878   -8.3822   16.2137 C   0  0  0  0  0  0  0  0  0  0  0  0
    9.4601   -2.6590   25.6528 C   0  0  0  0  0  0  0  0  0  0  0  0
   10.1182   -1.5672   23.1165 C   0  0  0  0  0  0  0  0  0  0  0  0
    1.0552   -9.6360   17.0650 C   0  0  0  0  0  0  0  0  0  0  0  0
    3.6519   -9.1783   16.9039 C   0  0  0  0  0  0  0  0  0  0  0  0
    7.8675   -7.0096   15.9415 C   0  0  0  0  0  0  0  0  0  0  0  0
    5.9733   -9.6553   17.3832 N   0  0  0  0  0  0  0  0  0  0  0  0
   10.2411   -2.9363   23.4301 C   0  0  0  0  0  0  0  0  0  0  0  0
   10.7288   -3.8197   19.9525 C   0  0  0  0  0  0  0  0  0  0  0  0
   10.1189   -5.0054   19.6987 C   0  0  0  0  0  0  0  0  0  0  0  0
  1  3  4  0
  1  7  4  0
  2 21  4  0
  2 27  4  0
  3  9  4  0
  3 10  4  0
  4  8  4  0
  4 18  4  0
  4 25  1  0
  5  9  4  0
  5 12  4  0
  6 13  1  0
  6 27  1  0
  7 28  4  0
  8 11  4  0
  9 29  4  0
 10 12  4  0
 11 24  1  0
 11 26  4  0
 12 25  1  0
 13 28  1  0
 14 20  4  0
 14 23  4  0
 15 17  4  0
 15 21  4  0
 16 19  4  0
 16 23  4  0
 17 22  4  0
 18 26  4  0
 19 24  4  0
 20 24  4  0
 22 27  4  0
 28 29  4  0
M  END
$$$$

 Created by Python create_sdf_string function

 29 33  0  0  0  0  0  0  0  0999 V2000
   10.7215   -3.3326   17.6437 C   0  0  0  0  0  0  0  0  0  0  0  0
    9.9489   -3.4675   24.6487 N   0  0  0  0  0  0  0  0  0  0  0  0
   10.0172   -4.4740   17.4101 C   0  0  0  0  0  0  0  0  0  0  0  0
    6.9051   -7.9575   16.4222 C   0  0  0  0  0  0  0  0  0  0  0  0
    8.9969   -6.3552   17.9668 N   0  0  0  0  0  0  0  0  0  0  0  0
   10.6702   -3.9051   22.4070 C   0  0  0  0  0  0  0  0  0  0  0  0
   11.0625   -3.0028   18.8894 C   0  0  0  0  0  0  0  0  0  0  0  0
    5.6180   -7.9194   16.1754 O   0  0  0  0  0  0  0  0  0  0  0  0
    9.7259   -5.3080   18.4485 C   0  0  0  0  0  0  0  0  0  0  0  0
    9.4578   -5.0200   16.3036 N   0  0  0  0  0  0  0  0  0  0  0  0
    5.0287   -8.9365   16.8223 C   0  0  0  0  0  0  0  0  0  0  0  0
    8.7742   -6.1498   16.6764 C   0  0  0  0  0  0  0  0  0  0  0  0
   10.9418   -3.4032   21.2053 O   0  0  0  0  0  0  0  0  0  0  0  0
    1.4797   -8.6258   16.2950 C   0  0  0  0  0  0  0  0  0  0  0  0
    9.2861   -1.2743   25.3585 C   0  0  0  0  0  0  0  0  0  0  0  0
    1.8892  -10.3985   17.7511 N   0  0  0  0  0  0  0  0  0  0  0  0
    9.6210   -0.6952   24.0976 C   0  0  0  0  0  0  0  0  0  0  0  0
    7.0792   -9.0217   17.1429 C   0  0  0  0  0  0  0  0  0  0  0  0
    3.1713  -10.1816   17.6634 C   0  0  0  0  0  0  0  0  0  0  0  0
    2.7878   -8.3822   16.2137 C   0  0  0  0  0  0  0  0  0  0  0  0
    9.4601   -2.6590   25.6528 C   0  0  0  0  0  0  0  0  0  0  0  0
   10.1182   -1.5672   23.1165 C   0  0  0  0  0  0  0  0  0  0  0  0
    1.0552   -9.6360   17.0650 C   0  0  0  0  0  0  0  0  0  0  0  0
    3.6519   -9.1783   16.9039 C   0  0  0  0  0  0  0  0  0  0  0  0
    7.8675   -7.0096   15.9415 C   0  0  0  0  0  0  0  0  0  0  0  0
    5.9733   -9.6553   17.3832 N   0  0  0  0  0  0  0  0  0  0  0  0
   10.2411   -2.9363   23.4301 C   0  0  0  0  0  0  0  0  0  0  0  0
   10.7288   -3.8197   19.9525 C   0  0  0  0  0  0  0  0  0  0  0  0
   10.1189   -5.0054   19.6987 C   0  0  0  0  0  0  0  0  0  0  0  0
  1  3  4  0
  1  7  4  0
  2 21  4  0
  2 27  4  0
  3  9  4  0
  3 10  4  0
  4  8  4  0
  4 18  4  0
  4 25  1  0
  5  9  4  0
  5 12  4  0
  6 13  1  0
  6 27  1  0
  7 28  4  0
  8 11  4  0
  9 29  4  0
 10 12  4  0
 11 24  1  0
 11 26  4  0
 12 25  1  0
 13 28  1  0
 14 20  4  0
 14 23  4  0
 15 17  4  0
 15 21  4  0
 16 19  4  0
 16 23  4  0
 17 22  4  0
 18 26  4  0
 19 24  4  0
 20 24  4  0
 22 27  4  0
 28 29  4  0
M  END
$$$$

 Created by Python create_sdf_string function

 29 33  0  0  0  0  0  0  0  0999 V2000
   10.7215   -3.3326   17.6437 C   0  0  0  0  0  0  0  0  0  0  0  0
    9.9489   -3.4675   24.6487 N   0  0  0  0  0  0  0  0  0  0  0  0
   10.0172   -4.4740   17.4101 C   0  0  0  0  0  0  0  0  0  0  0  0
    6.9051   -7.9575   16.4222 C   0  0  0  0  0  0  0  0  0  0  0  0
    8.9969   -6.3552   17.9668 N   0  0  0  0  0  0  0  0  0  0  0  0
   10.6702   -3.9051   22.4070 C   0  0  0  0  0  0  0  0  0  0  0  0
   11.0625   -3.0028   18.8894 C   0  0  0  0  0  0  0  0  0  0  0  0
    5.6180   -7.9194   16.1754 O   0  0  0  0  0  0  0  0  0  0  0  0
    9.7259   -5.3080   18.4485 C   0  0  0  0  0  0  0  0  0  0  0  0
    9.4578   -5.0200   16.3036 N   0  0  0  0  0  0  0  0  0  0  0  0
    5.0287   -8.9365   16.8223 C   0  0  0  0  0  0  0  0  0  0  0  0
    8.7742   -6.1498   16.6764 C   0  0  0  0  0  0  0  0  0  0  0  0
   10.9418   -3.4032   21.2053 O   0  0  0  0  0  0  0  0  0  0  0  0
    1.4797   -8.6258   16.2950 C   0  0  0  0  0  0  0  0  0  0  0  0
    9.2861   -1.2743   25.3585 C   0  0  0  0  0  0  0  0  0  0  0  0
    1.8892  -10.3985   17.7511 N   0  0  0  0  0  0  0  0  0  0  0  0
    9.6210   -0.6952   24.0976 C   0  0  0  0  0  0  0  0  0  0  0  0
    7.0792   -9.0217   17.1429 C   0  0  0  0  0  0  0  0  0  0  0  0
    3.1713  -10.1816   17.6634 C   0  0  0  0  0  0  0  0  0  0  0  0
    2.7878   -8.3822   16.2137 C   0  0  0  0  0  0  0  0  0  0  0  0
    9.4601   -2.6590   25.6528 C   0  0  0  0  0  0  0  0  0  0  0  0
   10.1182   -1.5672   23.1165 C   0  0  0  0  0  0  0  0  0  0  0  0
    1.0552   -9.6360   17.0650 C   0  0  0  0  0  0  0  0  0  0  0  0
    3.6519   -9.1783   16.9039 C   0  0  0  0  0  0  0  0  0  0  0  0
    7.8675   -7.0096   15.9415 C   0  0  0  0  0  0  0  0  0  0  0  0
    5.9733   -9.6553   17.3832 N   0  0  0  0  0  0  0  0  0  0  0  0
   10.2411   -2.9363   23.4301 C   0  0  0  0  0  0  0  0  0  0  0  0
   10.7288   -3.8197   19.9525 C   0  0  0  0  0  0  0  0  0  0  0  0
   10.1189   -5.0054   19.6987 C   0  0  0  0  0  0  0  0  0  0  0  0
  1  3  4  0
  1  7  4  0
  2 21  4  0
  2 27  4  0
  3  9  4  0
  3 10  4  0
  4  8  4  0
  4 18  4  0
  4 25  1  0
  5  9  4  0
  5 12  4  0
  6 13  1  0
  6 27  1  0
  7 28  4  0
  8 11  4  0
  9 29  4  0
 10 12  4  0
 11 24  1  0
 11 26  4  0
 12 25  1  0
 13 28  1  0
 14 20  4  0
 14 23  4  0
 15 17  4  0
 15 21  4  0
 16 19  4  0
 16 23  4  0
 17 22  4  0
 18 26  4  0
 19 24  4  0
 20 24  4  0
 22 27  4  0
 28 29  4  0
M  END
$$$$

 Created by Python create_sdf_string function

 29 33  0  0  0  0  0  0  0  0999 V2000
   10.7215   -3.3326   17.6437 C   0  0  0  0  0  0  0  0  0  0  0  0
    9.9489   -3.4675   24.6487 N   0  0  0  0  0  0  0  0  0  0  0  0
   10.0172   -4.4740   17.4101 C   0  0  0  0  0  0  0  0  0  0  0  0
    6.9051   -7.9575   16.4222 C   0  0  0  0  0  0  0  0  0  0  0  0
    8.9969   -6.3552   17.9668 N   0  0  0  0  0  0  0  0  0  0  0  0
   10.6702   -3.9051   22.4070 C   0  0  0  0  0  0  0  0  0  0  0  0
   11.0625   -3.0028   18.8894 C   0  0  0  0  0  0  0  0  0  0  0  0
    5.6180   -7.9194   16.1754 O   0  0  0  0  0  0  0  0  0  0  0  0
    9.7259   -5.3080   18.4485 C   0  0  0  0  0  0  0  0  0  0  0  0
    9.4578   -5.0200   16.3036 N   0  0  0  0  0  0  0  0  0  0  0  0
    5.0287   -8.9365   16.8223 C   0  0  0  0  0  0  0  0  0  0  0  0
    8.7742   -6.1498   16.6764 C   0  0  0  0  0  0  0  0  0  0  0  0
   10.9418   -3.4032   21.2053 O   0  0  0  0  0  0  0  0  0  0  0  0
    1.4797   -8.6258   16.2950 C   0  0  0  0  0  0  0  0  0  0  0  0
    9.2861   -1.2743   25.3585 C   0  0  0  0  0  0  0  0  0  0  0  0
    1.8892  -10.3985   17.7511 N   0  0  0  0  0  0  0  0  0  0  0  0
    9.6210   -0.6952   24.0976 C   0  0  0  0  0  0  0  0  0  0  0  0
    7.0792   -9.0217   17.1429 C   0  0  0  0  0  0  0  0  0  0  0  0
    3.1713  -10.1816   17.6634 C   0  0  0  0  0  0  0  0  0  0  0  0
    2.7878   -8.3822   16.2137 C   0  0  0  0  0  0  0  0  0  0  0  0
    9.4601   -2.6590   25.6528 C   0  0  0  0  0  0  0  0  0  0  0  0
   10.1182   -1.5672   23.1165 C   0  0  0  0  0  0  0  0  0  0  0  0
    1.0552   -9.6360   17.0650 C   0  0  0  0  0  0  0  0  0  0  0  0
    3.6519   -9.1783   16.9039 C   0  0  0  0  0  0  0  0  0  0  0  0
    7.8675   -7.0096   15.9415 C   0  0  0  0  0  0  0  0  0  0  0  0
    5.9733   -9.6553   17.3832 N   0  0  0  0  0  0  0  0  0  0  0  0
   10.2411   -2.9363   23.4301 C   0  0  0  0  0  0  0  0  0  0  0  0
   10.7288   -3.8197   19.9525 C   0  0  0  0  0  0  0  0  0  0  0  0
   10.1189   -5.0054   19.6987 C   0  0  0  0  0  0  0  0  0  0  0  0
  1  3  4  0
  1  7  4  0
  2 21  4  0
  2 27  4  0
  3  9  4  0
  3 10  4  0
  4  8  4  0
  4 18  4  0
  4 25  1  0
  5  9  4  0
  5 12  4  0
  6 13  1  0
  6 27  1  0
  7 28  4  0
  8 11  4  0
  9 29  4  0
 10 12  4  0
 11 24  1  0
 11 26  4  0
 12 25  1  0
 13 28  1  0
 14 20  4  0
 14 23  4  0
 15 17  4  0
 15 21  4  0
 16 19  4  0
 16 23  4  0
 17 22  4  0
 18 26  4  0
 19 24  4  0
 20 24  4  0
 22 27  4  0
 28 29  4  0
M  END
$$$$

 Created by Python create_sdf_string function

 29 33  0  0  0  0  0  0  0  0999 V2000
   10.7215   -3.3326   17.6437 C   0  0  0  0  0  0  0  0  0  0  0  0
    9.9489   -3.4675   24.6487 N   0  0  0  0  0  0  0  0  0  0  0  0
   10.0172   -4.4740   17.4101 C   0  0  0  0  0  0  0  0  0  0  0  0
    6.9051   -7.9575   16.4222 C   0  0  0  0  0  0  0  0  0  0  0  0
    8.9969   -6.3552   17.9668 N   0  0  0  0  0  0  0  0  0  0  0  0
   10.6702   -3.9051   22.4070 C   0  0  0  0  0  0  0  0  0  0  0  0
   11.0625   -3.0028   18.8894 C   0  0  0  0  0  0  0  0  0  0  0  0
    5.6180   -7.9194   16.1754 O   0  0  0  0  0  0  0  0  0  0  0  0
    9.7259   -5.3080   18.4485 C   0  0  0  0  0  0  0  0  0  0  0  0
    9.4578   -5.0200   16.3036 N   0  0  0  0  0  0  0  0  0  0  0  0
    5.0287   -8.9365   16.8223 C   0  0  0  0  0  0  0  0  0  0  0  0
    8.7742   -6.1498   16.6764 C   0  0  0  0  0  0  0  0  0  0  0  0
   10.9418   -3.4032   21.2053 O   0  0  0  0  0  0  0  0  0  0  0  0
    1.4797   -8.6258   16.2950 C   0  0  0  0  0  0  0  0  0  0  0  0
    9.2861   -1.2743   25.3585 C   0  0  0  0  0  0  0  0  0  0  0  0
    1.8892  -10.3985   17.7511 N   0  0  0  0  0  0  0  0  0  0  0  0
    9.6210   -0.6952   24.0976 C   0  0  0  0  0  0  0  0  0  0  0  0
    7.0792   -9.0217   17.1429 C   0  0  0  0  0  0  0  0  0  0  0  0
    3.1713  -10.1816   17.6634 C   0  0  0  0  0  0  0  0  0  0  0  0
    2.7878   -8.3822   16.2137 C   0  0  0  0  0  0  0  0  0  0  0  0
    9.4601   -2.6590   25.6528 C   0  0  0  0  0  0  0  0  0  0  0  0
   10.1182   -1.5672   23.1165 C   0  0  0  0  0  0  0  0  0  0  0  0
    1.0552   -9.6360   17.0650 C   0  0  0  0  0  0  0  0  0  0  0  0
    3.6519   -9.1783   16.9039 C   0  0  0  0  0  0  0  0  0  0  0  0
    7.8675   -7.0096   15.9415 C   0  0  0  0  0  0  0  0  0  0  0  0
    5.9733   -9.6553   17.3832 N   0  0  0  0  0  0  0  0  0  0  0  0
   10.2411   -2.9363   23.4301 C   0  0  0  0  0  0  0  0  0  0  0  0
   10.7288   -3.8197   19.9525 C   0  0  0  0  0  0  0  0  0  0  0  0
   10.1189   -5.0054   19.6987 C   0  0  0  0  0  0  0  0  0  0  0  0
  1  3  4  0
  1  7  4  0
  2 21  4  0
  2 27  4  0
  3  9  4  0
  3 10  4  0
  4  8  4  0
  4 18  4  0
  4 25  1  0
  5  9  4  0
  5 12  4  0
  6 13  1  0
  6 27  1  0
  7 28  4  0
  8 11  4  0
  9 29  4  0
 10 12  4  0
 11 24  1  0
 11 26  4  0
 12 25  1  0
 13 28  1  0
 14 20  4  0
 14 23  4  0
 15 17  4  0
 15 21  4  0
 16 19  4  0
 16 23  4  0
 17 22  4  0
 18 26  4  0
 19 24  4  0
 20 24  4  0
 22 27  4  0
 28 29  4  0
M  END
$$$$

 Created by Python create_sdf_string function

 29 33  0  0  0  0  0  0  0  0999 V2000
   10.7215   -3.3326   17.6437 C   0  0  0  0  0  0  0  0  0  0  0  0
    9.9489   -3.4675   24.6487 N   0  0  0  0  0  0  0  0  0  0  0  0
   10.0172   -4.4740   17.4101 C   0  0  0  0  0  0  0  0  0  0  0  0
    6.9051   -7.9575   16.4222 C   0  0  0  0  0  0  0  0  0  0  0  0
    8.9969   -6.3552   17.9668 N   0  0  0  0  0  0  0  0  0  0  0  0
   10.6702   -3.9051   22.4070 C   0  0  0  0  0  0  0  0  0  0  0  0
   11.0625   -3.0028   18.8894 C   0  0  0  0  0  0  0  0  0  0  0  0
    5.6180   -7.9194   16.1754 O   0  0  0  0  0  0  0  0  0  0  0  0
    9.7259   -5.3080   18.4485 C   0  0  0  0  0  0  0  0  0  0  0  0
    9.4578   -5.0200   16.3036 N   0  0  0  0  0  0  0  0  0  0  0  0
    5.0287   -8.9365   16.8223 C   0  0  0  0  0  0  0  0  0  0  0  0
    8.7742   -6.1498   16.6764 C   0  0  0  0  0  0  0  0  0  0  0  0
   10.9418   -3.4032   21.2053 O   0  0  0  0  0  0  0  0  0  0  0  0
    1.4797   -8.6258   16.2950 C   0  0  0  0  0  0  0  0  0  0  0  0
    9.2861   -1.2743   25.3585 C   0  0  0  0  0  0  0  0  0  0  0  0
    1.8892  -10.3985   17.7511 N   0  0  0  0  0  0  0  0  0  0  0  0
    9.6210   -0.6952   24.0976 C   0  0  0  0  0  0  0  0  0  0  0  0
    7.0792   -9.0217   17.1429 C   0  0  0  0  0  0  0  0  0  0  0  0
    3.1713  -10.1816   17.6634 C   0  0  0  0  0  0  0  0  0  0  0  0
    2.7878   -8.3822   16.2137 C   0  0  0  0  0  0  0  0  0  0  0  0
    9.4601   -2.6590   25.6528 C   0  0  0  0  0  0  0  0  0  0  0  0
   10.1182   -1.5672   23.1165 C   0  0  0  0  0  0  0  0  0  0  0  0
    1.0552   -9.6360   17.0650 C   0  0  0  0  0  0  0  0  0  0  0  0
    3.6519   -9.1783   16.9039 C   0  0  0  0  0  0  0  0  0  0  0  0
    7.8675   -7.0096   15.9415 C   0  0  0  0  0  0  0  0  0  0  0  0
    5.9733   -9.6553   17.3832 N   0  0  0  0  0  0  0  0  0  0  0  0
   10.2411   -2.9363   23.4301 C   0  0  0  0  0  0  0  0  0  0  0  0
   10.7288   -3.8197   19.9525 C   0  0  0  0  0  0  0  0  0  0  0  0
   10.1189   -5.0054   19.6987 C   0  0  0  0  0  0  0  0  0  0  0  0
  1  3  4  0
  1  7  4  0
  2 21  4  0
  2 27  4  0
  3  9  4  0
  3 10  4  0
  4  8  4  0
  4 18  4  0
  4 25  1  0
  5  9  4  0
  5 12  4  0
  6 13  1  0
  6 27  1  0
  7 28  4  0
  8 11  4  0
  9 29  4  0
 10 12  4  0
 11 24  1  0
 11 26  4  0
 12 25  1  0
 13 28  1  0
 14 20  4  0
 14 23  4  0
 15 17  4  0
 15 21  4  0
 16 19  4  0
 16 23  4  0
 17 22  4  0
 18 26  4  0
 19 24  4  0
 20 24  4  0
 22 27  4  0
 28 29  4  0
M  END
$$$$

 Created by Python create_sdf_string function

 29 33  0  0  0  0  0  0  0  0999 V2000
   10.7215   -3.3326   17.6437 C   0  0  0  0  0  0  0  0  0  0  0  0
    9.9489   -3.4675   24.6487 N   0  0  0  0  0  0  0  0  0  0  0  0
   10.0172   -4.4740   17.4101 C   0  0  0  0  0  0  0  0  0  0  0  0
    6.9051   -7.9575   16.4222 C   0  0  0  0  0  0  0  0  0  0  0  0
    8.9969   -6.3552   17.9668 N   0  0  0  0  0  0  0  0  0  0  0  0
   10.6702   -3.9051   22.4070 C   0  0  0  0  0  0  0  0  0  0  0  0
   11.0625   -3.0028   18.8894 C   0  0  0  0  0  0  0  0  0  0  0  0
    5.6180   -7.9194   16.1754 O   0  0  0  0  0  0  0  0  0  0  0  0
    9.7259   -5.3080   18.4485 C   0  0  0  0  0  0  0  0  0  0  0  0
    9.4578   -5.0200   16.3036 N   0  0  0  0  0  0  0  0  0  0  0  0
    5.0287   -8.9365   16.8223 C   0  0  0  0  0  0  0  0  0  0  0  0
    8.7742   -6.1498   16.6764 C   0  0  0  0  0  0  0  0  0  0  0  0
   10.9418   -3.4032   21.2053 O   0  0  0  0  0  0  0  0  0  0  0  0
    1.4797   -8.6258   16.2950 C   0  0  0  0  0  0  0  0  0  0  0  0
    9.2861   -1.2743   25.3585 C   0  0  0  0  0  0  0  0  0  0  0  0
    1.8892  -10.3985   17.7511 N   0  0  0  0  0  0  0  0  0  0  0  0
    9.6210   -0.6952   24.0976 C   0  0  0  0  0  0  0  0  0  0  0  0
    7.0792   -9.0217   17.1429 C   0  0  0  0  0  0  0  0  0  0  0  0
    3.1713  -10.1816   17.6634 C   0  0  0  0  0  0  0  0  0  0  0  0
    2.7878   -8.3822   16.2137 C   0  0  0  0  0  0  0  0  0  0  0  0
    9.4601   -2.6590   25.6528 C   0  0  0  0  0  0  0  0  0  0  0  0
   10.1182   -1.5672   23.1165 C   0  0  0  0  0  0  0  0  0  0  0  0
    1.0552   -9.6360   17.0650 C   0  0  0  0  0  0  0  0  0  0  0  0
    3.6519   -9.1783   16.9039 C   0  0  0  0  0  0  0  0  0  0  0  0
    7.8675   -7.0096   15.9415 C   0  0  0  0  0  0  0  0  0  0  0  0
    5.9733   -9.6553   17.3832 N   0  0  0  0  0  0  0  0  0  0  0  0
   10.2411   -2.9363   23.4301 C   0  0  0  0  0  0  0  0  0  0  0  0
   10.7288   -3.8197   19.9525 C   0  0  0  0  0  0  0  0  0  0  0  0
   10.1189   -5.0054   19.6987 C   0  0  0  0  0  0  0  0  0  0  0  0
  1  3  4  0
  1  7  4  0
  2 21  4  0
  2 27  4  0
  3  9  4  0
  3 10  4  0
  4  8  4  0
  4 18  4  0
  4 25  1  0
  5  9  4  0
  5 12  4  0
  6 13  1  0
  6 27  1  0
  7 28  4  0
  8 11  4  0
  9 29  4  0
 10 12  4  0
 11 24  1  0
 11 26  4  0
 12 25  1  0
 13 28  1  0
 14 20  4  0
 14 23  4  0
 15 17  4  0
 15 21  4  0
 16 19  4  0
 16 23  4  0
 17 22  4  0
 18 26  4  0
 19 24  4  0
 20 24  4  0
 22 27  4  0
 28 29  4  0
M  END
$$$$

 Created by Python create_sdf_string function

 29 33  0  0  0  0  0  0  0  0999 V2000
   10.7215   -3.3326   17.6437 C   0  0  0  0  0  0  0  0  0  0  0  0
    9.9489   -3.4675   24.6487 N   0  0  0  0  0  0  0  0  0  0  0  0
   10.0172   -4.4740   17.4101 C   0  0  0  0  0  0  0  0  0  0  0  0
    6.9051   -7.9575   16.4222 C   0  0  0  0  0  0  0  0  0  0  0  0
    8.9969   -6.3552   17.9668 N   0  0  0  0  0  0  0  0  0  0  0  0
   10.6702   -3.9051   22.4070 C   0  0  0  0  0  0  0  0  0  0  0  0
   11.0625   -3.0028   18.8894 C   0  0  0  0  0  0  0  0  0  0  0  0
    5.6180   -7.9194   16.1754 O   0  0  0  0  0  0  0  0  0  0  0  0
    9.7259   -5.3080   18.4485 C   0  0  0  0  0  0  0  0  0  0  0  0
    9.4578   -5.0200   16.3036 N   0  0  0  0  0  0  0  0  0  0  0  0
    5.0287   -8.9365   16.8223 C   0  0  0  0  0  0  0  0  0  0  0  0
    8.7742   -6.1498   16.6764 C   0  0  0  0  0  0  0  0  0  0  0  0
   10.9418   -3.4032   21.2053 O   0  0  0  0  0  0  0  0  0  0  0  0
    1.4797   -8.6258   16.2950 C   0  0  0  0  0  0  0  0  0  0  0  0
    9.2861   -1.2743   25.3585 C   0  0  0  0  0  0  0  0  0  0  0  0
    1.8892  -10.3985   17.7511 N   0  0  0  0  0  0  0  0  0  0  0  0
    9.6210   -0.6952   24.0976 C   0  0  0  0  0  0  0  0  0  0  0  0
    7.0792   -9.0217   17.1429 C   0  0  0  0  0  0  0  0  0  0  0  0
    3.1713  -10.1816   17.6634 C   0  0  0  0  0  0  0  0  0  0  0  0
    2.7878   -8.3822   16.2137 C   0  0  0  0  0  0  0  0  0  0  0  0
    9.4601   -2.6590   25.6528 C   0  0  0  0  0  0  0  0  0  0  0  0
   10.1182   -1.5672   23.1165 C   0  0  0  0  0  0  0  0  0  0  0  0
    1.0552   -9.6360   17.0650 C   0  0  0  0  0  0  0  0  0  0  0  0
    3.6519   -9.1783   16.9039 C   0  0  0  0  0  0  0  0  0  0  0  0
    7.8675   -7.0096   15.9415 C   0  0  0  0  0  0  0  0  0  0  0  0
    5.9733   -9.6553   17.3832 N   0  0  0  0  0  0  0  0  0  0  0  0
   10.2411   -2.9363   23.4301 C   0  0  0  0  0  0  0  0  0  0  0  0
   10.7288   -3.8197   19.9525 C   0  0  0  0  0  0  0  0  0  0  0  0
   10.1189   -5.0054   19.6987 C   0  0  0  0  0  0  0  0  0  0  0  0
  1  3  4  0
  1  7  4  0
  2 21  4  0
  2 27  4  0
  3  9  4  0
  3 10  4  0
  4  8  4  0
  4 18  4  0
  4 25  1  0
  5  9  4  0
  5 12  4  0
  6 13  1  0
  6 27  1  0
  7 28  4  0
  8 11  4  0
  9 29  4  0
 10 12  4  0
 11 24  1  0
 11 26  4  0
 12 25  1  0
 13 28  1  0
 14 20  4  0
 14 23  4  0
 15 17  4  0
 15 21  4  0
 16 19  4  0
 16 23  4  0
 17 22  4  0
 18 26  4  0
 19 24  4  0
 20 24  4  0
 22 27  4  0
 28 29  4  0
M  END
$$$$

 Created by Python create_sdf_string function

 29 33  0  0  0  0  0  0  0  0999 V2000
   10.7215   -3.3326   17.6437 C   0  0  0  0  0  0  0  0  0  0  0  0
    9.9489   -3.4675   24.6487 N   0  0  0  0  0  0  0  0  0  0  0  0
   10.0172   -4.4740   17.4101 C   0  0  0  0  0  0  0  0  0  0  0  0
    6.9051   -7.9575   16.4222 C   0  0  0  0  0  0  0  0  0  0  0  0
    8.9969   -6.3552   17.9668 N   0  0  0  0  0  0  0  0  0  0  0  0
   10.6702   -3.9051   22.4070 C   0  0  0  0  0  0  0  0  0  0  0  0
   11.0625   -3.0028   18.8894 C   0  0  0  0  0  0  0  0  0  0  0  0
    5.6180   -7.9194   16.1754 O   0  0  0  0  0  0  0  0  0  0  0  0
    9.7259   -5.3080   18.4485 C   0  0  0  0  0  0  0  0  0  0  0  0
    9.4578   -5.0200   16.3036 N   0  0  0  0  0  0  0  0  0  0  0  0
    5.0287   -8.9365   16.8223 C   0  0  0  0  0  0  0  0  0  0  0  0
    8.7742   -6.1498   16.6764 C   0  0  0  0  0  0  0  0  0  0  0  0
   10.9418   -3.4032   21.2053 O   0  0  0  0  0  0  0  0  0  0  0  0
    1.4797   -8.6258   16.2950 C   0  0  0  0  0  0  0  0  0  0  0  0
    9.2861   -1.2743   25.3585 C   0  0  0  0  0  0  0  0  0  0  0  0
    1.8892  -10.3985   17.7511 N   0  0  0  0  0  0  0  0  0  0  0  0
    9.6210   -0.6952   24.0976 C   0  0  0  0  0  0  0  0  0  0  0  0
    7.0792   -9.0217   17.1429 C   0  0  0  0  0  0  0  0  0  0  0  0
    3.1713  -10.1816   17.6634 C   0  0  0  0  0  0  0  0  0  0  0  0
    2.7878   -8.3822   16.2137 C   0  0  0  0  0  0  0  0  0  0  0  0
    9.4601   -2.6590   25.6528 C   0  0  0  0  0  0  0  0  0  0  0  0
   10.1182   -1.5672   23.1165 C   0  0  0  0  0  0  0  0  0  0  0  0
    1.0552   -9.6360   17.0650 C   0  0  0  0  0  0  0  0  0  0  0  0
    3.6519   -9.1783   16.9039 C   0  0  0  0  0  0  0  0  0  0  0  0
    7.8675   -7.0096   15.9415 C   0  0  0  0  0  0  0  0  0  0  0  0
    5.9733   -9.6553   17.3832 N   0  0  0  0  0  0  0  0  0  0  0  0
   10.2411   -2.9363   23.4301 C   0  0  0  0  0  0  0  0  0  0  0  0
   10.7288   -3.8197   19.9525 C   0  0  0  0  0  0  0  0  0  0  0  0
   10.1189   -5.0054   19.6987 C   0  0  0  0  0  0  0  0  0  0  0  0
  1  3  4  0
  1  7  4  0
  2 21  4  0
  2 27  4  0
  3  9  4  0
  3 10  4  0
  4  8  4  0
  4 18  4  0
  4 25  1  0
  5  9  4  0
  5 12  4  0
  6 13  1  0
  6 27  1  0
  7 28  4  0
  8 11  4  0
  9 29  4  0
 10 12  4  0
 11 24  1  0
 11 26  4  0
 12 25  1  0
 13 28  1  0
 14 20  4  0
 14 23  4  0
 15 17  4  0
 15 21  4  0
 16 19  4  0
 16 23  4  0
 17 22  4  0
 18 26  4  0
 19 24  4  0
 20 24  4  0
 22 27  4  0
 28 29  4  0
M  END
$$$$

 Created by Python create_sdf_string function

 29 33  0  0  0  0  0  0  0  0999 V2000
   10.7215   -3.3326   17.6437 C   0  0  0  0  0  0  0  0  0  0  0  0
    9.9489   -3.4675   24.6487 N   0  0  0  0  0  0  0  0  0  0  0  0
   10.0172   -4.4740   17.4101 C   0  0  0  0  0  0  0  0  0  0  0  0
    6.9051   -7.9575   16.4222 C   0  0  0  0  0  0  0  0  0  0  0  0
    8.9969   -6.3552   17.9668 N   0  0  0  0  0  0  0  0  0  0  0  0
   10.6702   -3.9051   22.4070 C   0  0  0  0  0  0  0  0  0  0  0  0
   11.0625   -3.0028   18.8894 C   0  0  0  0  0  0  0  0  0  0  0  0
    5.6180   -7.9194   16.1754 O   0  0  0  0  0  0  0  0  0  0  0  0
    9.7259   -5.3080   18.4485 C   0  0  0  0  0  0  0  0  0  0  0  0
    9.4578   -5.0200   16.3036 N   0  0  0  0  0  0  0  0  0  0  0  0
    5.0287   -8.9365   16.8223 C   0  0  0  0  0  0  0  0  0  0  0  0
    8.7742   -6.1498   16.6764 C   0  0  0  0  0  0  0  0  0  0  0  0
   10.9418   -3.4032   21.2053 O   0  0  0  0  0  0  0  0  0  0  0  0
    1.4797   -8.6258   16.2950 C   0  0  0  0  0  0  0  0  0  0  0  0
    9.2861   -1.2743   25.3585 C   0  0  0  0  0  0  0  0  0  0  0  0
    1.8892  -10.3985   17.7511 N   0  0  0  0  0  0  0  0  0  0  0  0
    9.6210   -0.6952   24.0976 C   0  0  0  0  0  0  0  0  0  0  0  0
    7.0792   -9.0217   17.1429 C   0  0  0  0  0  0  0  0  0  0  0  0
    3.1713  -10.1816   17.6634 C   0  0  0  0  0  0  0  0  0  0  0  0
    2.7878   -8.3822   16.2137 C   0  0  0  0  0  0  0  0  0  0  0  0
    9.4601   -2.6590   25.6528 C   0  0  0  0  0  0  0  0  0  0  0  0
   10.1182   -1.5672   23.1165 C   0  0  0  0  0  0  0  0  0  0  0  0
    1.0552   -9.6360   17.0650 C   0  0  0  0  0  0  0  0  0  0  0  0
    3.6519   -9.1783   16.9039 C   0  0  0  0  0  0  0  0  0  0  0  0
    7.8675   -7.0096   15.9415 C   0  0  0  0  0  0  0  0  0  0  0  0
    5.9733   -9.6553   17.3832 N   0  0  0  0  0  0  0  0  0  0  0  0
   10.2411   -2.9363   23.4301 C   0  0  0  0  0  0  0  0  0  0  0  0
   10.7288   -3.8197   19.9525 C   0  0  0  0  0  0  0  0  0  0  0  0
   10.1189   -5.0054   19.6987 C   0  0  0  0  0  0  0  0  0  0  0  0
  1  3  4  0
  1  7  4  0
  2 21  4  0
  2 27  4  0
  3  9  4  0
  3 10  4  0
  4  8  4  0
  4 18  4  0
  4 25  1  0
  5  9  4  0
  5 12  4  0
  6 13  1  0
  6 27  1  0
  7 28  4  0
  8 11  4  0
  9 29  4  0
 10 12  4  0
 11 24  1  0
 11 26  4  0
 12 25  1  0
 13 28  1  0
 14 20  4  0
 14 23  4  0
 15 17  4  0
 15 21  4  0
 16 19  4  0
 16 23  4  0
 17 22  4  0
 18 26  4  0
 19 24  4  0
 20 24  4  0
 22 27  4  0
 28 29  4  0
M  END
$$$$

 Created by Python create_sdf_string function

 29 33  0  0  0  0  0  0  0  0999 V2000
   10.7215   -3.3326   17.6437 C   0  0  0  0  0  0  0  0  0  0  0  0
    9.9489   -3.4675   24.6487 N   0  0  0  0  0  0  0  0  0  0  0  0
   10.0172   -4.4740   17.4101 C   0  0  0  0  0  0  0  0  0  0  0  0
    6.9051   -7.9575   16.4222 C   0  0  0  0  0  0  0  0  0  0  0  0
    8.9969   -6.3552   17.9668 N   0  0  0  0  0  0  0  0  0  0  0  0
   10.6702   -3.9051   22.4070 C   0  0  0  0  0  0  0  0  0  0  0  0
   11.0625   -3.0028   18.8894 C   0  0  0  0  0  0  0  0  0  0  0  0
    5.6180   -7.9194   16.1754 O   0  0  0  0  0  0  0  0  0  0  0  0
    9.7259   -5.3080   18.4485 C   0  0  0  0  0  0  0  0  0  0  0  0
    9.4578   -5.0200   16.3036 N   0  0  0  0  0  0  0  0  0  0  0  0
    5.0287   -8.9365   16.8223 C   0  0  0  0  0  0  0  0  0  0  0  0
    8.7742   -6.1498   16.6764 C   0  0  0  0  0  0  0  0  0  0  0  0
   10.9418   -3.4032   21.2053 O   0  0  0  0  0  0  0  0  0  0  0  0
    1.4797   -8.6258   16.2950 C   0  0  0  0  0  0  0  0  0  0  0  0
    9.2861   -1.2743   25.3585 C   0  0  0  0  0  0  0  0  0  0  0  0
    1.8892  -10.3985   17.7511 N   0  0  0  0  0  0  0  0  0  0  0  0
    9.6210   -0.6952   24.0976 C   0  0  0  0  0  0  0  0  0  0  0  0
    7.0792   -9.0217   17.1429 C   0  0  0  0  0  0  0  0  0  0  0  0
    3.1713  -10.1816   17.6634 C   0  0  0  0  0  0  0  0  0  0  0  0
    2.7878   -8.3822   16.2137 C   0  0  0  0  0  0  0  0  0  0  0  0
    9.4601   -2.6590   25.6528 C   0  0  0  0  0  0  0  0  0  0  0  0
   10.1182   -1.5672   23.1165 C   0  0  0  0  0  0  0  0  0  0  0  0
    1.0552   -9.6360   17.0650 C   0  0  0  0  0  0  0  0  0  0  0  0
    3.6519   -9.1783   16.9039 C   0  0  0  0  0  0  0  0  0  0  0  0
    7.8675   -7.0096   15.9415 C   0  0  0  0  0  0  0  0  0  0  0  0
    5.9733   -9.6553   17.3832 N   0  0  0  0  0  0  0  0  0  0  0  0
   10.2411   -2.9363   23.4301 C   0  0  0  0  0  0  0  0  0  0  0  0
   10.7288   -3.8197   19.9525 C   0  0  0  0  0  0  0  0  0  0  0  0
   10.1189   -5.0054   19.6987 C   0  0  0  0  0  0  0  0  0  0  0  0
  1  3  4  0
  1  7  4  0
  2 21  4  0
  2 27  4  0
  3  9  4  0
  3 10  4  0
  4  8  4  0
  4 18  4  0
  4 25  1  0
  5  9  4  0
  5 12  4  0
  6 13  1  0
  6 27  1  0
  7 28  4  0
  8 11  4  0
  9 29  4  0
 10 12  4  0
 11 24  1  0
 11 26  4  0
 12 25  1  0
 13 28  1  0
 14 20  4  0
 14 23  4  0
 15 17  4  0
 15 21  4  0
 16 19  4  0
 16 23  4  0
 17 22  4  0
 18 26  4  0
 19 24  4  0
 20 24  4  0
 22 27  4  0
 28 29  4  0
M  END
$$$$

 Created by Python create_sdf_string function

 29 33  0  0  0  0  0  0  0  0999 V2000
   10.7215   -3.3326   17.6437 C   0  0  0  0  0  0  0  0  0  0  0  0
    9.9489   -3.4675   24.6487 N   0  0  0  0  0  0  0  0  0  0  0  0
   10.0172   -4.4740   17.4101 C   0  0  0  0  0  0  0  0  0  0  0  0
    6.9051   -7.9575   16.4222 C   0  0  0  0  0  0  0  0  0  0  0  0
    8.9969   -6.3552   17.9668 N   0  0  0  0  0  0  0  0  0  0  0  0
   10.6702   -3.9051   22.4070 C   0  0  0  0  0  0  0  0  0  0  0  0
   11.0625   -3.0028   18.8894 C   0  0  0  0  0  0  0  0  0  0  0  0
    5.6180   -7.9194   16.1754 O   0  0  0  0  0  0  0  0  0  0  0  0
    9.7259   -5.3080   18.4485 C   0  0  0  0  0  0  0  0  0  0  0  0
    9.4578   -5.0200   16.3036 N   0  0  0  0  0  0  0  0  0  0  0  0
    5.0287   -8.9365   16.8223 C   0  0  0  0  0  0  0  0  0  0  0  0
    8.7742   -6.1498   16.6764 C   0  0  0  0  0  0  0  0  0  0  0  0
   10.9418   -3.4032   21.2053 O   0  0  0  0  0  0  0  0  0  0  0  0
    1.4797   -8.6258   16.2950 C   0  0  0  0  0  0  0  0  0  0  0  0
    9.2861   -1.2743   25.3585 C   0  0  0  0  0  0  0  0  0  0  0  0
    1.8892  -10.3985   17.7511 N   0  0  0  0  0  0  0  0  0  0  0  0
    9.6210   -0.6952   24.0976 C   0  0  0  0  0  0  0  0  0  0  0  0
    7.0792   -9.0217   17.1429 C   0  0  0  0  0  0  0  0  0  0  0  0
    3.1713  -10.1816   17.6634 C   0  0  0  0  0  0  0  0  0  0  0  0
    2.7878   -8.3822   16.2137 C   0  0  0  0  0  0  0  0  0  0  0  0
    9.4601   -2.6590   25.6528 C   0  0  0  0  0  0  0  0  0  0  0  0
   10.1182   -1.5672   23.1165 C   0  0  0  0  0  0  0  0  0  0  0  0
    1.0552   -9.6360   17.0650 C   0  0  0  0  0  0  0  0  0  0  0  0
    3.6519   -9.1783   16.9039 C   0  0  0  0  0  0  0  0  0  0  0  0
    7.8675   -7.0096   15.9415 C   0  0  0  0  0  0  0  0  0  0  0  0
    5.9733   -9.6553   17.3832 N   0  0  0  0  0  0  0  0  0  0  0  0
   10.2411   -2.9363   23.4301 C   0  0  0  0  0  0  0  0  0  0  0  0
   10.7288   -3.8197   19.9525 C   0  0  0  0  0  0  0  0  0  0  0  0
   10.1189   -5.0054   19.6987 C   0  0  0  0  0  0  0  0  0  0  0  0
  1  3  4  0
  1  7  4  0
  2 21  4  0
  2 27  4  0
  3  9  4  0
  3 10  4  0
  4  8  4  0
  4 18  4  0
  4 25  1  0
  5  9  4  0
  5 12  4  0
  6 13  1  0
  6 27  1  0
  7 28  4  0
  8 11  4  0
  9 29  4  0
 10 12  4  0
 11 24  1  0
 11 26  4  0
 12 25  1  0
 13 28  1  0
 14 20  4  0
 14 23  4  0
 15 17  4  0
 15 21  4  0
 16 19  4  0
 16 23  4  0
 17 22  4  0
 18 26  4  0
 19 24  4  0
 20 24  4  0
 22 27  4  0
 28 29  4  0
M  END
$$$$

 Created by Python create_sdf_string function

 29 33  0  0  0  0  0  0  0  0999 V2000
   10.7215   -3.3326   17.6437 C   0  0  0  0  0  0  0  0  0  0  0  0
    9.9489   -3.4675   24.6487 N   0  0  0  0  0  0  0  0  0  0  0  0
   10.0172   -4.4740   17.4101 C   0  0  0  0  0  0  0  0  0  0  0  0
    6.9051   -7.9575   16.4222 C   0  0  0  0  0  0  0  0  0  0  0  0
    8.9969   -6.3552   17.9668 N   0  0  0  0  0  0  0  0  0  0  0  0
   10.6702   -3.9051   22.4070 C   0  0  0  0  0  0  0  0  0  0  0  0
   11.0625   -3.0028   18.8894 C   0  0  0  0  0  0  0  0  0  0  0  0
    5.6180   -7.9194   16.1754 O   0  0  0  0  0  0  0  0  0  0  0  0
    9.7259   -5.3080   18.4485 C   0  0  0  0  0  0  0  0  0  0  0  0
    9.4578   -5.0200   16.3036 N   0  0  0  0  0  0  0  0  0  0  0  0
    5.0287   -8.9365   16.8223 C   0  0  0  0  0  0  0  0  0  0  0  0
    8.7742   -6.1498   16.6764 C   0  0  0  0  0  0  0  0  0  0  0  0
   10.9418   -3.4032   21.2053 O   0  0  0  0  0  0  0  0  0  0  0  0
    1.4797   -8.6258   16.2950 C   0  0  0  0  0  0  0  0  0  0  0  0
    9.2861   -1.2743   25.3585 C   0  0  0  0  0  0  0  0  0  0  0  0
    1.8892  -10.3985   17.7511 N   0  0  0  0  0  0  0  0  0  0  0  0
    9.6210   -0.6952   24.0976 C   0  0  0  0  0  0  0  0  0  0  0  0
    7.0792   -9.0217   17.1429 C   0  0  0  0  0  0  0  0  0  0  0  0
    3.1713  -10.1816   17.6634 C   0  0  0  0  0  0  0  0  0  0  0  0
    2.7878   -8.3822   16.2137 C   0  0  0  0  0  0  0  0  0  0  0  0
    9.4601   -2.6590   25.6528 C   0  0  0  0  0  0  0  0  0  0  0  0
   10.1182   -1.5672   23.1165 C   0  0  0  0  0  0  0  0  0  0  0  0
    1.0552   -9.6360   17.0650 C   0  0  0  0  0  0  0  0  0  0  0  0
    3.6519   -9.1783   16.9039 C   0  0  0  0  0  0  0  0  0  0  0  0
    7.8675   -7.0096   15.9415 C   0  0  0  0  0  0  0  0  0  0  0  0
    5.9733   -9.6553   17.3832 N   0  0  0  0  0  0  0  0  0  0  0  0
   10.2411   -2.9363   23.4301 C   0  0  0  0  0  0  0  0  0  0  0  0
   10.7288   -3.8197   19.9525 C   0  0  0  0  0  0  0  0  0  0  0  0
   10.1189   -5.0054   19.6987 C   0  0  0  0  0  0  0  0  0  0  0  0
  1  3  4  0
  1  7  4  0
  2 21  4  0
  2 27  4  0
  3  9  4  0
  3 10  4  0
  4  8  4  0
  4 18  4  0
  4 25  1  0
  5  9  4  0
  5 12  4  0
  6 13  1  0
  6 27  1  0
  7 28  4  0
  8 11  4  0
  9 29  4  0
 10 12  4  0
 11 24  1  0
 11 26  4  0
 12 25  1  0
 13 28  1  0
 14 20  4  0
 14 23  4  0
 15 17  4  0
 15 21  4  0
 16 19  4  0
 16 23  4  0
 17 22  4  0
 18 26  4  0
 19 24  4  0
 20 24  4  0
 22 27  4  0
 28 29  4  0
M  END
$$$$

 Created by Python create_sdf_string function

 29 33  0  0  0  0  0  0  0  0999 V2000
   10.7215   -3.3326   17.6437 C   0  0  0  0  0  0  0  0  0  0  0  0
    9.9489   -3.4675   24.6487 N   0  0  0  0  0  0  0  0  0  0  0  0
   10.0172   -4.4740   17.4101 C   0  0  0  0  0  0  0  0  0  0  0  0
    6.9051   -7.9575   16.4222 C   0  0  0  0  0  0  0  0  0  0  0  0
    8.9969   -6.3552   17.9668 N   0  0  0  0  0  0  0  0  0  0  0  0
   10.6702   -3.9051   22.4070 C   0  0  0  0  0  0  0  0  0  0  0  0
   11.0625   -3.0028   18.8894 C   0  0  0  0  0  0  0  0  0  0  0  0
    5.6180   -7.9194   16.1754 O   0  0  0  0  0  0  0  0  0  0  0  0
    9.7259   -5.3080   18.4485 C   0  0  0  0  0  0  0  0  0  0  0  0
    9.4578   -5.0200   16.3036 N   0  0  0  0  0  0  0  0  0  0  0  0
    5.0287   -8.9365   16.8223 C   0  0  0  0  0  0  0  0  0  0  0  0
    8.7742   -6.1498   16.6764 C   0  0  0  0  0  0  0  0  0  0  0  0
   10.9418   -3.4032   21.2053 O   0  0  0  0  0  0  0  0  0  0  0  0
    1.4797   -8.6258   16.2950 C   0  0  0  0  0  0  0  0  0  0  0  0
    9.2861   -1.2743   25.3585 C   0  0  0  0  0  0  0  0  0  0  0  0
    1.8892  -10.3985   17.7511 N   0  0  0  0  0  0  0  0  0  0  0  0
    9.6210   -0.6952   24.0976 C   0  0  0  0  0  0  0  0  0  0  0  0
    7.0792   -9.0217   17.1429 C   0  0  0  0  0  0  0  0  0  0  0  0
    3.1713  -10.1816   17.6634 C   0  0  0  0  0  0  0  0  0  0  0  0
    2.7878   -8.3822   16.2137 C   0  0  0  0  0  0  0  0  0  0  0  0
    9.4601   -2.6590   25.6528 C   0  0  0  0  0  0  0  0  0  0  0  0
   10.1182   -1.5672   23.1165 C   0  0  0  0  0  0  0  0  0  0  0  0
    1.0552   -9.6360   17.0650 C   0  0  0  0  0  0  0  0  0  0  0  0
    3.6519   -9.1783   16.9039 C   0  0  0  0  0  0  0  0  0  0  0  0
    7.8675   -7.0096   15.9415 C   0  0  0  0  0  0  0  0  0  0  0  0
    5.9733   -9.6553   17.3832 N   0  0  0  0  0  0  0  0  0  0  0  0
   10.2411   -2.9363   23.4301 C   0  0  0  0  0  0  0  0  0  0  0  0
   10.7288   -3.8197   19.9525 C   0  0  0  0  0  0  0  0  0  0  0  0
   10.1189   -5.0054   19.6987 C   0  0  0  0  0  0  0  0  0  0  0  0
  1  3  4  0
  1  7  4  0
  2 21  4  0
  2 27  4  0
  3  9  4  0
  3 10  4  0
  4  8  4  0
  4 18  4  0
  4 25  1  0
  5  9  4  0
  5 12  4  0
  6 13  1  0
  6 27  1  0
  7 28  4  0
  8 11  4  0
  9 29  4  0
 10 12  4  0
 11 24  1  0
 11 26  4  0
 12 25  1  0
 13 28  1  0
 14 20  4  0
 14 23  4  0
 15 17  4  0
 15 21  4  0
 16 19  4  0
 16 23  4  0
 17 22  4  0
 18 26  4  0
 19 24  4  0
 20 24  4  0
 22 27  4  0
 28 29  4  0
M  END
$$$$

 Created by Python create_sdf_string function

 29 33  0  0  0  0  0  0  0  0999 V2000
   10.7215   -3.3326   17.6437 C   0  0  0  0  0  0  0  0  0  0  0  0
    9.9489   -3.4675   24.6487 N   0  0  0  0  0  0  0  0  0  0  0  0
   10.0172   -4.4740   17.4101 C   0  0  0  0  0  0  0  0  0  0  0  0
    6.9051   -7.9575   16.4222 C   0  0  0  0  0  0  0  0  0  0  0  0
    8.9969   -6.3552   17.9668 N   0  0  0  0  0  0  0  0  0  0  0  0
   10.6702   -3.9051   22.4070 C   0  0  0  0  0  0  0  0  0  0  0  0
   11.0625   -3.0028   18.8894 C   0  0  0  0  0  0  0  0  0  0  0  0
    5.6180   -7.9194   16.1754 O   0  0  0  0  0  0  0  0  0  0  0  0
    9.7259   -5.3080   18.4485 C   0  0  0  0  0  0  0  0  0  0  0  0
    9.4578   -5.0200   16.3036 N   0  0  0  0  0  0  0  0  0  0  0  0
    5.0287   -8.9365   16.8223 C   0  0  0  0  0  0  0  0  0  0  0  0
    8.7742   -6.1498   16.6764 C   0  0  0  0  0  0  0  0  0  0  0  0
   10.9418   -3.4032   21.2053 O   0  0  0  0  0  0  0  0  0  0  0  0
    1.4797   -8.6258   16.2950 C   0  0  0  0  0  0  0  0  0  0  0  0
    9.2861   -1.2743   25.3585 C   0  0  0  0  0  0  0  0  0  0  0  0
    1.8892  -10.3985   17.7511 N   0  0  0  0  0  0  0  0  0  0  0  0
    9.6210   -0.6952   24.0976 C   0  0  0  0  0  0  0  0  0  0  0  0
    7.0792   -9.0217   17.1429 C   0  0  0  0  0  0  0  0  0  0  0  0
    3.1713  -10.1816   17.6634 C   0  0  0  0  0  0  0  0  0  0  0  0
    2.7878   -8.3822   16.2137 C   0  0  0  0  0  0  0  0  0  0  0  0
    9.4601   -2.6590   25.6528 C   0  0  0  0  0  0  0  0  0  0  0  0
   10.1182   -1.5672   23.1165 C   0  0  0  0  0  0  0  0  0  0  0  0
    1.0552   -9.6360   17.0650 C   0  0  0  0  0  0  0  0  0  0  0  0
    3.6519   -9.1783   16.9039 C   0  0  0  0  0  0  0  0  0  0  0  0
    7.8675   -7.0096   15.9415 C   0  0  0  0  0  0  0  0  0  0  0  0
    5.9733   -9.6553   17.3832 N   0  0  0  0  0  0  0  0  0  0  0  0
   10.2411   -2.9363   23.4301 C   0  0  0  0  0  0  0  0  0  0  0  0
   10.7288   -3.8197   19.9525 C   0  0  0  0  0  0  0  0  0  0  0  0
   10.1189   -5.0054   19.6987 C   0  0  0  0  0  0  0  0  0  0  0  0
  1  3  4  0
  1  7  4  0
  2 21  4  0
  2 27  4  0
  3  9  4  0
  3 10  4  0
  4  8  4  0
  4 18  4  0
  4 25  1  0
  5  9  4  0
  5 12  4  0
  6 13  1  0
  6 27  1  0
  7 28  4  0
  8 11  4  0
  9 29  4  0
 10 12  4  0
 11 24  1  0
 11 26  4  0
 12 25  1  0
 13 28  1  0
 14 20  4  0
 14 23  4  0
 15 17  4  0
 15 21  4  0
 16 19  4  0
 16 23  4  0
 17 22  4  0
 18 26  4  0
 19 24  4  0
 20 24  4  0
 22 27  4  0
 28 29  4  0
M  END
$$$$

 Created by Python create_sdf_string function

 29 33  0  0  0  0  0  0  0  0999 V2000
   10.7215   -3.3326   17.6437 C   0  0  0  0  0  0  0  0  0  0  0  0
    9.9489   -3.4675   24.6487 N   0  0  0  0  0  0  0  0  0  0  0  0
   10.0172   -4.4740   17.4101 C   0  0  0  0  0  0  0  0  0  0  0  0
    6.9051   -7.9575   16.4222 C   0  0  0  0  0  0  0  0  0  0  0  0
    8.9969   -6.3552   17.9668 N   0  0  0  0  0  0  0  0  0  0  0  0
   10.6702   -3.9051   22.4070 C   0  0  0  0  0  0  0  0  0  0  0  0
   11.0625   -3.0028   18.8894 C   0  0  0  0  0  0  0  0  0  0  0  0
    5.6180   -7.9194   16.1754 O   0  0  0  0  0  0  0  0  0  0  0  0
    9.7259   -5.3080   18.4485 C   0  0  0  0  0  0  0  0  0  0  0  0
    9.4578   -5.0200   16.3036 N   0  0  0  0  0  0  0  0  0  0  0  0
    5.0287   -8.9365   16.8223 C   0  0  0  0  0  0  0  0  0  0  0  0
    8.7742   -6.1498   16.6764 C   0  0  0  0  0  0  0  0  0  0  0  0
   10.9418   -3.4032   21.2053 O   0  0  0  0  0  0  0  0  0  0  0  0
    1.4797   -8.6258   16.2950 C   0  0  0  0  0  0  0  0  0  0  0  0
    9.2861   -1.2743   25.3585 C   0  0  0  0  0  0  0  0  0  0  0  0
    1.8892  -10.3985   17.7511 N   0  0  0  0  0  0  0  0  0  0  0  0
    9.6210   -0.6952   24.0976 C   0  0  0  0  0  0  0  0  0  0  0  0
    7.0792   -9.0217   17.1429 C   0  0  0  0  0  0  0  0  0  0  0  0
    3.1713  -10.1816   17.6634 C   0  0  0  0  0  0  0  0  0  0  0  0
    2.7878   -8.3822   16.2137 C   0  0  0  0  0  0  0  0  0  0  0  0
    9.4601   -2.6590   25.6528 C   0  0  0  0  0  0  0  0  0  0  0  0
   10.1182   -1.5672   23.1165 C   0  0  0  0  0  0  0  0  0  0  0  0
    1.0552   -9.6360   17.0650 C   0  0  0  0  0  0  0  0  0  0  0  0
    3.6519   -9.1783   16.9039 C   0  0  0  0  0  0  0  0  0  0  0  0
    7.8675   -7.0096   15.9415 C   0  0  0  0  0  0  0  0  0  0  0  0
    5.9733   -9.6553   17.3832 N   0  0  0  0  0  0  0  0  0  0  0  0
   10.2411   -2.9363   23.4301 C   0  0  0  0  0  0  0  0  0  0  0  0
   10.7288   -3.8197   19.9525 C   0  0  0  0  0  0  0  0  0  0  0  0
   10.1189   -5.0054   19.6987 C   0  0  0  0  0  0  0  0  0  0  0  0
  1  3  4  0
  1  7  4  0
  2 21  4  0
  2 27  4  0
  3  9  4  0
  3 10  4  0
  4  8  4  0
  4 18  4  0
  4 25  1  0
  5  9  4  0
  5 12  4  0
  6 13  1  0
  6 27  1  0
  7 28  4  0
  8 11  4  0
  9 29  4  0
 10 12  4  0
 11 24  1  0
 11 26  4  0
 12 25  1  0
 13 28  1  0
 14 20  4  0
 14 23  4  0
 15 17  4  0
 15 21  4  0
 16 19  4  0
 16 23  4  0
 17 22  4  0
 18 26  4  0
 19 24  4  0
 20 24  4  0
 22 27  4  0
 28 29  4  0
M  END
$$$$

 Created by Python create_sdf_string function

 29 33  0  0  0  0  0  0  0  0999 V2000
   10.7215   -3.3326   17.6437 C   0  0  0  0  0  0  0  0  0  0  0  0
    9.9489   -3.4675   24.6487 N   0  0  0  0  0  0  0  0  0  0  0  0
   10.0172   -4.4740   17.4101 C   0  0  0  0  0  0  0  0  0  0  0  0
    6.9051   -7.9575   16.4222 C   0  0  0  0  0  0  0  0  0  0  0  0
    8.9969   -6.3552   17.9668 N   0  0  0  0  0  0  0  0  0  0  0  0
   10.6702   -3.9051   22.4070 C   0  0  0  0  0  0  0  0  0  0  0  0
   11.0625   -3.0028   18.8894 C   0  0  0  0  0  0  0  0  0  0  0  0
    5.6180   -7.9194   16.1754 O   0  0  0  0  0  0  0  0  0  0  0  0
    9.7259   -5.3080   18.4485 C   0  0  0  0  0  0  0  0  0  0  0  0
    9.4578   -5.0200   16.3036 N   0  0  0  0  0  0  0  0  0  0  0  0
    5.0287   -8.9365   16.8223 C   0  0  0  0  0  0  0  0  0  0  0  0
    8.7742   -6.1498   16.6764 C   0  0  0  0  0  0  0  0  0  0  0  0
   10.9418   -3.4032   21.2053 O   0  0  0  0  0  0  0  0  0  0  0  0
    1.4797   -8.6258   16.2950 C   0  0  0  0  0  0  0  0  0  0  0  0
    9.2861   -1.2743   25.3585 C   0  0  0  0  0  0  0  0  0  0  0  0
    1.8892  -10.3985   17.7511 N   0  0  0  0  0  0  0  0  0  0  0  0
    9.6210   -0.6952   24.0976 C   0  0  0  0  0  0  0  0  0  0  0  0
    7.0792   -9.0217   17.1429 C   0  0  0  0  0  0  0  0  0  0  0  0
    3.1713  -10.1816   17.6634 C   0  0  0  0  0  0  0  0  0  0  0  0
    2.7878   -8.3822   16.2137 C   0  0  0  0  0  0  0  0  0  0  0  0
    9.4601   -2.6590   25.6528 C   0  0  0  0  0  0  0  0  0  0  0  0
   10.1182   -1.5672   23.1165 C   0  0  0  0  0  0  0  0  0  0  0  0
    1.0552   -9.6360   17.0650 C   0  0  0  0  0  0  0  0  0  0  0  0
    3.6519   -9.1783   16.9039 C   0  0  0  0  0  0  0  0  0  0  0  0
    7.8675   -7.0096   15.9415 C   0  0  0  0  0  0  0  0  0  0  0  0
    5.9733   -9.6553   17.3832 N   0  0  0  0  0  0  0  0  0  0  0  0
   10.2411   -2.9363   23.4301 C   0  0  0  0  0  0  0  0  0  0  0  0
   10.7288   -3.8197   19.9525 C   0  0  0  0  0  0  0  0  0  0  0  0
   10.1189   -5.0054   19.6987 C   0  0  0  0  0  0  0  0  0  0  0  0
  1  3  4  0
  1  7  4  0
  2 21  4  0
  2 27  4  0
  3  9  4  0
  3 10  4  0
  4  8  4  0
  4 18  4  0
  4 25  1  0
  5  9  4  0
  5 12  4  0
  6 13  1  0
  6 27  1  0
  7 28  4  0
  8 11  4  0
  9 29  4  0
 10 12  4  0
 11 24  1  0
 11 26  4  0
 12 25  1  0
 13 28  1  0
 14 20  4  0
 14 23  4  0
 15 17  4  0
 15 21  4  0
 16 19  4  0
 16 23  4  0
 17 22  4  0
 18 26  4  0
 19 24  4  0
 20 24  4  0
 22 27  4  0
 28 29  4  0
M  END
$$$$

 Created by Python create_sdf_string function

 29 33  0  0  0  0  0  0  0  0999 V2000
   10.7215   -3.3326   17.6437 C   0  0  0  0  0  0  0  0  0  0  0  0
    9.9489   -3.4675   24.6487 N   0  0  0  0  0  0  0  0  0  0  0  0
   10.0172   -4.4740   17.4101 C   0  0  0  0  0  0  0  0  0  0  0  0
    6.9051   -7.9575   16.4222 C   0  0  0  0  0  0  0  0  0  0  0  0
    8.9969   -6.3552   17.9668 N   0  0  0  0  0  0  0  0  0  0  0  0
   10.6702   -3.9051   22.4070 C   0  0  0  0  0  0  0  0  0  0  0  0
   11.0625   -3.0028   18.8894 C   0  0  0  0  0  0  0  0  0  0  0  0
    5.6180   -7.9194   16.1754 O   0  0  0  0  0  0  0  0  0  0  0  0
    9.7259   -5.3080   18.4485 C   0  0  0  0  0  0  0  0  0  0  0  0
    9.4578   -5.0200   16.3036 N   0  0  0  0  0  0  0  0  0  0  0  0
    5.0287   -8.9365   16.8223 C   0  0  0  0  0  0  0  0  0  0  0  0
    8.7742   -6.1498   16.6764 C   0  0  0  0  0  0  0  0  0  0  0  0
   10.9418   -3.4032   21.2053 O   0  0  0  0  0  0  0  0  0  0  0  0
    1.4797   -8.6258   16.2950 C   0  0  0  0  0  0  0  0  0  0  0  0
    9.2861   -1.2743   25.3585 C   0  0  0  0  0  0  0  0  0  0  0  0
    1.8892  -10.3985   17.7511 N   0  0  0  0  0  0  0  0  0  0  0  0
    9.6210   -0.6952   24.0976 C   0  0  0  0  0  0  0  0  0  0  0  0
    7.0792   -9.0217   17.1429 C   0  0  0  0  0  0  0  0  0  0  0  0
    3.1713  -10.1816   17.6634 C   0  0  0  0  0  0  0  0  0  0  0  0
    2.7878   -8.3822   16.2137 C   0  0  0  0  0  0  0  0  0  0  0  0
    9.4601   -2.6590   25.6528 C   0  0  0  0  0  0  0  0  0  0  0  0
   10.1182   -1.5672   23.1165 C   0  0  0  0  0  0  0  0  0  0  0  0
    1.0552   -9.6360   17.0650 C   0  0  0  0  0  0  0  0  0  0  0  0
    3.6519   -9.1783   16.9039 C   0  0  0  0  0  0  0  0  0  0  0  0
    7.8675   -7.0096   15.9415 C   0  0  0  0  0  0  0  0  0  0  0  0
    5.9733   -9.6553   17.3832 N   0  0  0  0  0  0  0  0  0  0  0  0
   10.2411   -2.9363   23.4301 C   0  0  0  0  0  0  0  0  0  0  0  0
   10.7288   -3.8197   19.9525 C   0  0  0  0  0  0  0  0  0  0  0  0
   10.1189   -5.0054   19.6987 C   0  0  0  0  0  0  0  0  0  0  0  0
  1  3  4  0
  1  7  4  0
  2 21  4  0
  2 27  4  0
  3  9  4  0
  3 10  4  0
  4  8  4  0
  4 18  4  0
  4 25  1  0
  5  9  4  0
  5 12  4  0
  6 13  1  0
  6 27  1  0
  7 28  4  0
  8 11  4  0
  9 29  4  0
 10 12  4  0
 11 24  1  0
 11 26  4  0
 12 25  1  0
 13 28  1  0
 14 20  4  0
 14 23  4  0
 15 17  4  0
 15 21  4  0
 16 19  4  0
 16 23  4  0
 17 22  4  0
 18 26  4  0
 19 24  4  0
 20 24  4  0
 22 27  4  0
 28 29  4  0
M  END
$$$$

 Created by Python create_sdf_string function

 29 33  0  0  0  0  0  0  0  0999 V2000
   10.7215   -3.3326   17.6437 C   0  0  0  0  0  0  0  0  0  0  0  0
    9.9489   -3.4675   24.6487 N   0  0  0  0  0  0  0  0  0  0  0  0
   10.0172   -4.4740   17.4101 C   0  0  0  0  0  0  0  0  0  0  0  0
    6.9051   -7.9575   16.4222 C   0  0  0  0  0  0  0  0  0  0  0  0
    8.9969   -6.3552   17.9668 N   0  0  0  0  0  0  0  0  0  0  0  0
   10.6702   -3.9051   22.4070 C   0  0  0  0  0  0  0  0  0  0  0  0
   11.0625   -3.0028   18.8894 C   0  0  0  0  0  0  0  0  0  0  0  0
    5.6180   -7.9194   16.1754 O   0  0  0  0  0  0  0  0  0  0  0  0
    9.7259   -5.3080   18.4485 C   0  0  0  0  0  0  0  0  0  0  0  0
    9.4578   -5.0200   16.3036 N   0  0  0  0  0  0  0  0  0  0  0  0
    5.0287   -8.9365   16.8223 C   0  0  0  0  0  0  0  0  0  0  0  0
    8.7742   -6.1498   16.6764 C   0  0  0  0  0  0  0  0  0  0  0  0
   10.9418   -3.4032   21.2053 O   0  0  0  0  0  0  0  0  0  0  0  0
    1.4797   -8.6258   16.2950 C   0  0  0  0  0  0  0  0  0  0  0  0
    9.2861   -1.2743   25.3585 C   0  0  0  0  0  0  0  0  0  0  0  0
    1.8892  -10.3985   17.7511 N   0  0  0  0  0  0  0  0  0  0  0  0
    9.6210   -0.6952   24.0976 C   0  0  0  0  0  0  0  0  0  0  0  0
    7.0792   -9.0217   17.1429 C   0  0  0  0  0  0  0  0  0  0  0  0
    3.1713  -10.1816   17.6634 C   0  0  0  0  0  0  0  0  0  0  0  0
    2.7878   -8.3822   16.2137 C   0  0  0  0  0  0  0  0  0  0  0  0
    9.4601   -2.6590   25.6528 C   0  0  0  0  0  0  0  0  0  0  0  0
   10.1182   -1.5672   23.1165 C   0  0  0  0  0  0  0  0  0  0  0  0
    1.0552   -9.6360   17.0650 C   0  0  0  0  0  0  0  0  0  0  0  0
    3.6519   -9.1783   16.9039 C   0  0  0  0  0  0  0  0  0  0  0  0
    7.8675   -7.0096   15.9415 C   0  0  0  0  0  0  0  0  0  0  0  0
    5.9733   -9.6553   17.3832 N   0  0  0  0  0  0  0  0  0  0  0  0
   10.2411   -2.9363   23.4301 C   0  0  0  0  0  0  0  0  0  0  0  0
   10.7288   -3.8197   19.9525 C   0  0  0  0  0  0  0  0  0  0  0  0
   10.1189   -5.0054   19.6987 C   0  0  0  0  0  0  0  0  0  0  0  0
  1  3  4  0
  1  7  4  0
  2 21  4  0
  2 27  4  0
  3  9  4  0
  3 10  4  0
  4  8  4  0
  4 18  4  0
  4 25  1  0
  5  9  4  0
  5 12  4  0
  6 13  1  0
  6 27  1  0
  7 28  4  0
  8 11  4  0
  9 29  4  0
 10 12  4  0
 11 24  1  0
 11 26  4  0
 12 25  1  0
 13 28  1  0
 14 20  4  0
 14 23  4  0
 15 17  4  0
 15 21  4  0
 16 19  4  0
 16 23  4  0
 17 22  4  0
 18 26  4  0
 19 24  4  0
 20 24  4  0
 22 27  4  0
 28 29  4  0
M  END
$$$$

 Created by Python create_sdf_string function

 29 33  0  0  0  0  0  0  0  0999 V2000
   10.7215   -3.3326   17.6437 C   0  0  0  0  0  0  0  0  0  0  0  0
    9.9489   -3.4675   24.6487 N   0  0  0  0  0  0  0  0  0  0  0  0
   10.0172   -4.4740   17.4101 C   0  0  0  0  0  0  0  0  0  0  0  0
    6.9051   -7.9575   16.4222 C   0  0  0  0  0  0  0  0  0  0  0  0
    8.9969   -6.3552   17.9668 N   0  0  0  0  0  0  0  0  0  0  0  0
   10.6702   -3.9051   22.4070 C   0  0  0  0  0  0  0  0  0  0  0  0
   11.0625   -3.0028   18.8894 C   0  0  0  0  0  0  0  0  0  0  0  0
    5.6180   -7.9194   16.1754 O   0  0  0  0  0  0  0  0  0  0  0  0
    9.7259   -5.3080   18.4485 C   0  0  0  0  0  0  0  0  0  0  0  0
    9.4578   -5.0200   16.3036 N   0  0  0  0  0  0  0  0  0  0  0  0
    5.0287   -8.9365   16.8223 C   0  0  0  0  0  0  0  0  0  0  0  0
    8.7742   -6.1498   16.6764 C   0  0  0  0  0  0  0  0  0  0  0  0
   10.9418   -3.4032   21.2053 O   0  0  0  0  0  0  0  0  0  0  0  0
    1.4797   -8.6258   16.2950 C   0  0  0  0  0  0  0  0  0  0  0  0
    9.2861   -1.2743   25.3585 C   0  0  0  0  0  0  0  0  0  0  0  0
    1.8892  -10.3985   17.7511 N   0  0  0  0  0  0  0  0  0  0  0  0
    9.6210   -0.6952   24.0976 C   0  0  0  0  0  0  0  0  0  0  0  0
    7.0792   -9.0217   17.1429 C   0  0  0  0  0  0  0  0  0  0  0  0
    3.1713  -10.1816   17.6634 C   0  0  0  0  0  0  0  0  0  0  0  0
    2.7878   -8.3822   16.2137 C   0  0  0  0  0  0  0  0  0  0  0  0
    9.4601   -2.6590   25.6528 C   0  0  0  0  0  0  0  0  0  0  0  0
   10.1182   -1.5672   23.1165 C   0  0  0  0  0  0  0  0  0  0  0  0
    1.0552   -9.6360   17.0650 C   0  0  0  0  0  0  0  0  0  0  0  0
    3.6519   -9.1783   16.9039 C   0  0  0  0  0  0  0  0  0  0  0  0
    7.8675   -7.0096   15.9415 C   0  0  0  0  0  0  0  0  0  0  0  0
    5.9733   -9.6553   17.3832 N   0  0  0  0  0  0  0  0  0  0  0  0
   10.2411   -2.9363   23.4301 C   0  0  0  0  0  0  0  0  0  0  0  0
   10.7288   -3.8197   19.9525 C   0  0  0  0  0  0  0  0  0  0  0  0
   10.1189   -5.0054   19.6987 C   0  0  0  0  0  0  0  0  0  0  0  0
  1  3  4  0
  1  7  4  0
  2 21  4  0
  2 27  4  0
  3  9  4  0
  3 10  4  0
  4  8  4  0
  4 18  4  0
  4 25  1  0
  5  9  4  0
  5 12  4  0
  6 13  1  0
  6 27  1  0
  7 28  4  0
  8 11  4  0
  9 29  4  0
 10 12  4  0
 11 24  1  0
 11 26  4  0
 12 25  1  0
 13 28  1  0
 14 20  4  0
 14 23  4  0
 15 17  4  0
 15 21  4  0
 16 19  4  0
 16 23  4  0
 17 22  4  0
 18 26  4  0
 19 24  4  0
 20 24  4  0
 22 27  4  0
 28 29  4  0
M  END
$$$$

 Created by Python create_sdf_string function

 29 33  0  0  0  0  0  0  0  0999 V2000
   10.7215   -3.3326   17.6437 C   0  0  0  0  0  0  0  0  0  0  0  0
    9.9489   -3.4675   24.6487 N   0  0  0  0  0  0  0  0  0  0  0  0
   10.0172   -4.4740   17.4101 C   0  0  0  0  0  0  0  0  0  0  0  0
    6.9051   -7.9575   16.4222 C   0  0  0  0  0  0  0  0  0  0  0  0
    8.9969   -6.3552   17.9668 N   0  0  0  0  0  0  0  0  0  0  0  0
   10.6702   -3.9051   22.4070 C   0  0  0  0  0  0  0  0  0  0  0  0
   11.0625   -3.0028   18.8894 C   0  0  0  0  0  0  0  0  0  0  0  0
    5.6180   -7.9194   16.1754 O   0  0  0  0  0  0  0  0  0  0  0  0
    9.7259   -5.3080   18.4485 C   0  0  0  0  0  0  0  0  0  0  0  0
    9.4578   -5.0200   16.3036 N   0  0  0  0  0  0  0  0  0  0  0  0
    5.0287   -8.9365   16.8223 C   0  0  0  0  0  0  0  0  0  0  0  0
    8.7742   -6.1498   16.6764 C   0  0  0  0  0  0  0  0  0  0  0  0
   10.9418   -3.4032   21.2053 O   0  0  0  0  0  0  0  0  0  0  0  0
    1.4797   -8.6258   16.2950 C   0  0  0  0  0  0  0  0  0  0  0  0
    9.2861   -1.2743   25.3585 C   0  0  0  0  0  0  0  0  0  0  0  0
    1.8892  -10.3985   17.7511 N   0  0  0  0  0  0  0  0  0  0  0  0
    9.6210   -0.6952   24.0976 C   0  0  0  0  0  0  0  0  0  0  0  0
    7.0792   -9.0217   17.1429 C   0  0  0  0  0  0  0  0  0  0  0  0
    3.1713  -10.1816   17.6634 C   0  0  0  0  0  0  0  0  0  0  0  0
    2.7878   -8.3822   16.2137 C   0  0  0  0  0  0  0  0  0  0  0  0
    9.4601   -2.6590   25.6528 C   0  0  0  0  0  0  0  0  0  0  0  0
   10.1182   -1.5672   23.1165 C   0  0  0  0  0  0  0  0  0  0  0  0
    1.0552   -9.6360   17.0650 C   0  0  0  0  0  0  0  0  0  0  0  0
    3.6519   -9.1783   16.9039 C   0  0  0  0  0  0  0  0  0  0  0  0
    7.8675   -7.0096   15.9415 C   0  0  0  0  0  0  0  0  0  0  0  0
    5.9733   -9.6553   17.3832 N   0  0  0  0  0  0  0  0  0  0  0  0
   10.2411   -2.9363   23.4301 C   0  0  0  0  0  0  0  0  0  0  0  0
   10.7288   -3.8197   19.9525 C   0  0  0  0  0  0  0  0  0  0  0  0
   10.1189   -5.0054   19.6987 C   0  0  0  0  0  0  0  0  0  0  0  0
  1  3  4  0
  1  7  4  0
  2 21  4  0
  2 27  4  0
  3  9  4  0
  3 10  4  0
  4  8  4  0
  4 18  4  0
  4 25  1  0
  5  9  4  0
  5 12  4  0
  6 13  1  0
  6 27  1  0
  7 28  4  0
  8 11  4  0
  9 29  4  0
 10 12  4  0
 11 24  1  0
 11 26  4  0
 12 25  1  0
 13 28  1  0
 14 20  4  0
 14 23  4  0
 15 17  4  0
 15 21  4  0
 16 19  4  0
 16 23  4  0
 17 22  4  0
 18 26  4  0
 19 24  4  0
 20 24  4  0
 22 27  4  0
 28 29  4  0
M  END
$$$$

 Created by Python create_sdf_string function

 29 33  0  0  0  0  0  0  0  0999 V2000
   10.7215   -3.3326   17.6437 C   0  0  0  0  0  0  0  0  0  0  0  0
    9.9489   -3.4675   24.6487 N   0  0  0  0  0  0  0  0  0  0  0  0
   10.0172   -4.4740   17.4101 C   0  0  0  0  0  0  0  0  0  0  0  0
    6.9051   -7.9575   16.4222 C   0  0  0  0  0  0  0  0  0  0  0  0
    8.9969   -6.3552   17.9668 N   0  0  0  0  0  0  0  0  0  0  0  0
   10.6702   -3.9051   22.4070 C   0  0  0  0  0  0  0  0  0  0  0  0
   11.0625   -3.0028   18.8894 C   0  0  0  0  0  0  0  0  0  0  0  0
    5.6180   -7.9194   16.1754 O   0  0  0  0  0  0  0  0  0  0  0  0
    9.7259   -5.3080   18.4485 C   0  0  0  0  0  0  0  0  0  0  0  0
    9.4578   -5.0200   16.3036 N   0  0  0  0  0  0  0  0  0  0  0  0
    5.0287   -8.9365   16.8223 C   0  0  0  0  0  0  0  0  0  0  0  0
    8.7742   -6.1498   16.6764 C   0  0  0  0  0  0  0  0  0  0  0  0
   10.9418   -3.4032   21.2053 O   0  0  0  0  0  0  0  0  0  0  0  0
    1.4797   -8.6258   16.2950 C   0  0  0  0  0  0  0  0  0  0  0  0
    9.2861   -1.2743   25.3585 C   0  0  0  0  0  0  0  0  0  0  0  0
    1.8892  -10.3985   17.7511 N   0  0  0  0  0  0  0  0  0  0  0  0
    9.6210   -0.6952   24.0976 C   0  0  0  0  0  0  0  0  0  0  0  0
    7.0792   -9.0217   17.1429 C   0  0  0  0  0  0  0  0  0  0  0  0
    3.1713  -10.1816   17.6634 C   0  0  0  0  0  0  0  0  0  0  0  0
    2.7878   -8.3822   16.2137 C   0  0  0  0  0  0  0  0  0  0  0  0
    9.4601   -2.6590   25.6528 C   0  0  0  0  0  0  0  0  0  0  0  0
   10.1182   -1.5672   23.1165 C   0  0  0  0  0  0  0  0  0  0  0  0
    1.0552   -9.6360   17.0650 C   0  0  0  0  0  0  0  0  0  0  0  0
    3.6519   -9.1783   16.9039 C   0  0  0  0  0  0  0  0  0  0  0  0
    7.8675   -7.0096   15.9415 C   0  0  0  0  0  0  0  0  0  0  0  0
    5.9733   -9.6553   17.3832 N   0  0  0  0  0  0  0  0  0  0  0  0
   10.2411   -2.9363   23.4301 C   0  0  0  0  0  0  0  0  0  0  0  0
   10.7288   -3.8197   19.9525 C   0  0  0  0  0  0  0  0  0  0  0  0
   10.1189   -5.0054   19.6987 C   0  0  0  0  0  0  0  0  0  0  0  0
  1  3  4  0
  1  7  4  0
  2 21  4  0
  2 27  4  0
  3  9  4  0
  3 10  4  0
  4  8  4  0
  4 18  4  0
  4 25  1  0
  5  9  4  0
  5 12  4  0
  6 13  1  0
  6 27  1  0
  7 28  4  0
  8 11  4  0
  9 29  4  0
 10 12  4  0
 11 24  1  0
 11 26  4  0
 12 25  1  0
 13 28  1  0
 14 20  4  0
 14 23  4  0
 15 17  4  0
 15 21  4  0
 16 19  4  0
 16 23  4  0
 17 22  4  0
 18 26  4  0
 19 24  4  0
 20 24  4  0
 22 27  4  0
 28 29  4  0
M  END
$$$$

 Created by Python create_sdf_string function

 29 33  0  0  0  0  0  0  0  0999 V2000
   10.7215   -3.3326   17.6437 C   0  0  0  0  0  0  0  0  0  0  0  0
    9.9489   -3.4675   24.6487 N   0  0  0  0  0  0  0  0  0  0  0  0
   10.0172   -4.4740   17.4101 C   0  0  0  0  0  0  0  0  0  0  0  0
    6.9051   -7.9575   16.4222 C   0  0  0  0  0  0  0  0  0  0  0  0
    8.9969   -6.3552   17.9668 N   0  0  0  0  0  0  0  0  0  0  0  0
   10.6702   -3.9051   22.4070 C   0  0  0  0  0  0  0  0  0  0  0  0
   11.0625   -3.0028   18.8894 C   0  0  0  0  0  0  0  0  0  0  0  0
    5.6180   -7.9194   16.1754 O   0  0  0  0  0  0  0  0  0  0  0  0
    9.7259   -5.3080   18.4485 C   0  0  0  0  0  0  0  0  0  0  0  0
    9.4578   -5.0200   16.3036 N   0  0  0  0  0  0  0  0  0  0  0  0
    5.0287   -8.9365   16.8223 C   0  0  0  0  0  0  0  0  0  0  0  0
    8.7742   -6.1498   16.6764 C   0  0  0  0  0  0  0  0  0  0  0  0
   10.9418   -3.4032   21.2053 O   0  0  0  0  0  0  0  0  0  0  0  0
    1.4797   -8.6258   16.2950 C   0  0  0  0  0  0  0  0  0  0  0  0
    9.2861   -1.2743   25.3585 C   0  0  0  0  0  0  0  0  0  0  0  0
    1.8892  -10.3985   17.7511 N   0  0  0  0  0  0  0  0  0  0  0  0
    9.6210   -0.6952   24.0976 C   0  0  0  0  0  0  0  0  0  0  0  0
    7.0792   -9.0217   17.1429 C   0  0  0  0  0  0  0  0  0  0  0  0
    3.1713  -10.1816   17.6634 C   0  0  0  0  0  0  0  0  0  0  0  0
    2.7878   -8.3822   16.2137 C   0  0  0  0  0  0  0  0  0  0  0  0
    9.4601   -2.6590   25.6528 C   0  0  0  0  0  0  0  0  0  0  0  0
   10.1182   -1.5672   23.1165 C   0  0  0  0  0  0  0  0  0  0  0  0
    1.0552   -9.6360   17.0650 C   0  0  0  0  0  0  0  0  0  0  0  0
    3.6519   -9.1783   16.9039 C   0  0  0  0  0  0  0  0  0  0  0  0
    7.8675   -7.0096   15.9415 C   0  0  0  0  0  0  0  0  0  0  0  0
    5.9733   -9.6553   17.3832 N   0  0  0  0  0  0  0  0  0  0  0  0
   10.2411   -2.9363   23.4301 C   0  0  0  0  0  0  0  0  0  0  0  0
   10.7288   -3.8197   19.9525 C   0  0  0  0  0  0  0  0  0  0  0  0
   10.1189   -5.0054   19.6987 C   0  0  0  0  0  0  0  0  0  0  0  0
  1  3  4  0
  1  7  4  0
  2 21  4  0
  2 27  4  0
  3  9  4  0
  3 10  4  0
  4  8  4  0
  4 18  4  0
  4 25  1  0
  5  9  4  0
  5 12  4  0
  6 13  1  0
  6 27  1  0
  7 28  4  0
  8 11  4  0
  9 29  4  0
 10 12  4  0
 11 24  1  0
 11 26  4  0
 12 25  1  0
 13 28  1  0
 14 20  4  0
 14 23  4  0
 15 17  4  0
 15 21  4  0
 16 19  4  0
 16 23  4  0
 17 22  4  0
 18 26  4  0
 19 24  4  0
 20 24  4  0
 22 27  4  0
 28 29  4  0
M  END
$$$$

 Created by Python create_sdf_string function

 29 33  0  0  0  0  0  0  0  0999 V2000
   10.7215   -3.3326   17.6437 C   0  0  0  0  0  0  0  0  0  0  0  0
    9.9489   -3.4675   24.6487 N   0  0  0  0  0  0  0  0  0  0  0  0
   10.0172   -4.4740   17.4101 C   0  0  0  0  0  0  0  0  0  0  0  0
    6.9051   -7.9575   16.4222 C   0  0  0  0  0  0  0  0  0  0  0  0
    8.9969   -6.3552   17.9668 N   0  0  0  0  0  0  0  0  0  0  0  0
   10.6702   -3.9051   22.4070 C   0  0  0  0  0  0  0  0  0  0  0  0
   11.0625   -3.0028   18.8894 C   0  0  0  0  0  0  0  0  0  0  0  0
    5.6180   -7.9194   16.1754 O   0  0  0  0  0  0  0  0  0  0  0  0
    9.7259   -5.3080   18.4485 C   0  0  0  0  0  0  0  0  0  0  0  0
    9.4578   -5.0200   16.3036 N   0  0  0  0  0  0  0  0  0  0  0  0
    5.0287   -8.9365   16.8223 C   0  0  0  0  0  0  0  0  0  0  0  0
    8.7742   -6.1498   16.6764 C   0  0  0  0  0  0  0  0  0  0  0  0
   10.9418   -3.4032   21.2053 O   0  0  0  0  0  0  0  0  0  0  0  0
    1.4797   -8.6258   16.2950 C   0  0  0  0  0  0  0  0  0  0  0  0
    9.2861   -1.2743   25.3585 C   0  0  0  0  0  0  0  0  0  0  0  0
    1.8892  -10.3985   17.7511 N   0  0  0  0  0  0  0  0  0  0  0  0
    9.6210   -0.6952   24.0976 C   0  0  0  0  0  0  0  0  0  0  0  0
    7.0792   -9.0217   17.1429 C   0  0  0  0  0  0  0  0  0  0  0  0
    3.1713  -10.1816   17.6634 C   0  0  0  0  0  0  0  0  0  0  0  0
    2.7878   -8.3822   16.2137 C   0  0  0  0  0  0  0  0  0  0  0  0
    9.4601   -2.6590   25.6528 C   0  0  0  0  0  0  0  0  0  0  0  0
   10.1182   -1.5672   23.1165 C   0  0  0  0  0  0  0  0  0  0  0  0
    1.0552   -9.6360   17.0650 C   0  0  0  0  0  0  0  0  0  0  0  0
    3.6519   -9.1783   16.9039 C   0  0  0  0  0  0  0  0  0  0  0  0
    7.8675   -7.0096   15.9415 C   0  0  0  0  0  0  0  0  0  0  0  0
    5.9733   -9.6553   17.3832 N   0  0  0  0  0  0  0  0  0  0  0  0
   10.2411   -2.9363   23.4301 C   0  0  0  0  0  0  0  0  0  0  0  0
   10.7288   -3.8197   19.9525 C   0  0  0  0  0  0  0  0  0  0  0  0
   10.1189   -5.0054   19.6987 C   0  0  0  0  0  0  0  0  0  0  0  0
  1  3  4  0
  1  7  4  0
  2 21  4  0
  2 27  4  0
  3  9  4  0
  3 10  4  0
  4  8  4  0
  4 18  4  0
  4 25  1  0
  5  9  4  0
  5 12  4  0
  6 13  1  0
  6 27  1  0
  7 28  4  0
  8 11  4  0
  9 29  4  0
 10 12  4  0
 11 24  1  0
 11 26  4  0
 12 25  1  0
 13 28  1  0
 14 20  4  0
 14 23  4  0
 15 17  4  0
 15 21  4  0
 16 19  4  0
 16 23  4  0
 17 22  4  0
 18 26  4  0
 19 24  4  0
 20 24  4  0
 22 27  4  0
 28 29  4  0
M  END
$$$$

 Created by Python create_sdf_string function

 29 33  0  0  0  0  0  0  0  0999 V2000
   10.7215   -3.3326   17.6437 C   0  0  0  0  0  0  0  0  0  0  0  0
    9.9489   -3.4675   24.6487 N   0  0  0  0  0  0  0  0  0  0  0  0
   10.0172   -4.4740   17.4101 C   0  0  0  0  0  0  0  0  0  0  0  0
    6.9051   -7.9575   16.4222 C   0  0  0  0  0  0  0  0  0  0  0  0
    8.9969   -6.3552   17.9668 N   0  0  0  0  0  0  0  0  0  0  0  0
   10.6702   -3.9051   22.4070 C   0  0  0  0  0  0  0  0  0  0  0  0
   11.0625   -3.0028   18.8894 C   0  0  0  0  0  0  0  0  0  0  0  0
    5.6180   -7.9194   16.1754 O   0  0  0  0  0  0  0  0  0  0  0  0
    9.7259   -5.3080   18.4485 C   0  0  0  0  0  0  0  0  0  0  0  0
    9.4578   -5.0200   16.3036 N   0  0  0  0  0  0  0  0  0  0  0  0
    5.0287   -8.9365   16.8223 C   0  0  0  0  0  0  0  0  0  0  0  0
    8.7742   -6.1498   16.6764 C   0  0  0  0  0  0  0  0  0  0  0  0
   10.9418   -3.4032   21.2053 O   0  0  0  0  0  0  0  0  0  0  0  0
    1.4797   -8.6258   16.2950 C   0  0  0  0  0  0  0  0  0  0  0  0
    9.2861   -1.2743   25.3585 C   0  0  0  0  0  0  0  0  0  0  0  0
    1.8892  -10.3985   17.7511 N   0  0  0  0  0  0  0  0  0  0  0  0
    9.6210   -0.6952   24.0976 C   0  0  0  0  0  0  0  0  0  0  0  0
    7.0792   -9.0217   17.1429 C   0  0  0  0  0  0  0  0  0  0  0  0
    3.1713  -10.1816   17.6634 C   0  0  0  0  0  0  0  0  0  0  0  0
    2.7878   -8.3822   16.2137 C   0  0  0  0  0  0  0  0  0  0  0  0
    9.4601   -2.6590   25.6528 C   0  0  0  0  0  0  0  0  0  0  0  0
   10.1182   -1.5672   23.1165 C   0  0  0  0  0  0  0  0  0  0  0  0
    1.0552   -9.6360   17.0650 C   0  0  0  0  0  0  0  0  0  0  0  0
    3.6519   -9.1783   16.9039 C   0  0  0  0  0  0  0  0  0  0  0  0
    7.8675   -7.0096   15.9415 C   0  0  0  0  0  0  0  0  0  0  0  0
    5.9733   -9.6553   17.3832 N   0  0  0  0  0  0  0  0  0  0  0  0
   10.2411   -2.9363   23.4301 C   0  0  0  0  0  0  0  0  0  0  0  0
   10.7288   -3.8197   19.9525 C   0  0  0  0  0  0  0  0  0  0  0  0
   10.1189   -5.0054   19.6987 C   0  0  0  0  0  0  0  0  0  0  0  0
  1  3  4  0
  1  7  4  0
  2 21  4  0
  2 27  4  0
  3  9  4  0
  3 10  4  0
  4  8  4  0
  4 18  4  0
  4 25  1  0
  5  9  4  0
  5 12  4  0
  6 13  1  0
  6 27  1  0
  7 28  4  0
  8 11  4  0
  9 29  4  0
 10 12  4  0
 11 24  1  0
 11 26  4  0
 12 25  1  0
 13 28  1  0
 14 20  4  0
 14 23  4  0
 15 17  4  0
 15 21  4  0
 16 19  4  0
 16 23  4  0
 17 22  4  0
 18 26  4  0
 19 24  4  0
 20 24  4  0
 22 27  4  0
 28 29  4  0
M  END
$$$$

 Created by Python create_sdf_string function

 29 33  0  0  0  0  0  0  0  0999 V2000
   10.7215   -3.3326   17.6437 C   0  0  0  0  0  0  0  0  0  0  0  0
    9.9489   -3.4675   24.6487 N   0  0  0  0  0  0  0  0  0  0  0  0
   10.0172   -4.4740   17.4101 C   0  0  0  0  0  0  0  0  0  0  0  0
    6.9051   -7.9575   16.4222 C   0  0  0  0  0  0  0  0  0  0  0  0
    8.9969   -6.3552   17.9668 N   0  0  0  0  0  0  0  0  0  0  0  0
   10.6702   -3.9051   22.4070 C   0  0  0  0  0  0  0  0  0  0  0  0
   11.0625   -3.0028   18.8894 C   0  0  0  0  0  0  0  0  0  0  0  0
    5.6180   -7.9194   16.1754 O   0  0  0  0  0  0  0  0  0  0  0  0
    9.7259   -5.3080   18.4485 C   0  0  0  0  0  0  0  0  0  0  0  0
    9.4578   -5.0200   16.3036 N   0  0  0  0  0  0  0  0  0  0  0  0
    5.0287   -8.9365   16.8223 C   0  0  0  0  0  0  0  0  0  0  0  0
    8.7742   -6.1498   16.6764 C   0  0  0  0  0  0  0  0  0  0  0  0
   10.9418   -3.4032   21.2053 O   0  0  0  0  0  0  0  0  0  0  0  0
    1.4797   -8.6258   16.2950 C   0  0  0  0  0  0  0  0  0  0  0  0
    9.2861   -1.2743   25.3585 C   0  0  0  0  0  0  0  0  0  0  0  0
    1.8892  -10.3985   17.7511 N   0  0  0  0  0  0  0  0  0  0  0  0
    9.6210   -0.6952   24.0976 C   0  0  0  0  0  0  0  0  0  0  0  0
    7.0792   -9.0217   17.1429 C   0  0  0  0  0  0  0  0  0  0  0  0
    3.1713  -10.1816   17.6634 C   0  0  0  0  0  0  0  0  0  0  0  0
    2.7878   -8.3822   16.2137 C   0  0  0  0  0  0  0  0  0  0  0  0
    9.4601   -2.6590   25.6528 C   0  0  0  0  0  0  0  0  0  0  0  0
   10.1182   -1.5672   23.1165 C   0  0  0  0  0  0  0  0  0  0  0  0
    1.0552   -9.6360   17.0650 C   0  0  0  0  0  0  0  0  0  0  0  0
    3.6519   -9.1783   16.9039 C   0  0  0  0  0  0  0  0  0  0  0  0
    7.8675   -7.0096   15.9415 C   0  0  0  0  0  0  0  0  0  0  0  0
    5.9733   -9.6553   17.3832 N   0  0  0  0  0  0  0  0  0  0  0  0
   10.2411   -2.9363   23.4301 C   0  0  0  0  0  0  0  0  0  0  0  0
   10.7288   -3.8197   19.9525 C   0  0  0  0  0  0  0  0  0  0  0  0
   10.1189   -5.0054   19.6987 C   0  0  0  0  0  0  0  0  0  0  0  0
  1  3  4  0
  1  7  4  0
  2 21  4  0
  2 27  4  0
  3  9  4  0
  3 10  4  0
  4  8  4  0
  4 18  4  0
  4 25  1  0
  5  9  4  0
  5 12  4  0
  6 13  1  0
  6 27  1  0
  7 28  4  0
  8 11  4  0
  9 29  4  0
 10 12  4  0
 11 24  1  0
 11 26  4  0
 12 25  1  0
 13 28  1  0
 14 20  4  0
 14 23  4  0
 15 17  4  0
 15 21  4  0
 16 19  4  0
 16 23  4  0
 17 22  4  0
 18 26  4  0
 19 24  4  0
 20 24  4  0
 22 27  4  0
 28 29  4  0
M  END
$$$$

 Created by Python create_sdf_string function

 29 33  0  0  0  0  0  0  0  0999 V2000
   10.7215   -3.3326   17.6437 C   0  0  0  0  0  0  0  0  0  0  0  0
    9.9489   -3.4675   24.6487 N   0  0  0  0  0  0  0  0  0  0  0  0
   10.0172   -4.4740   17.4101 C   0  0  0  0  0  0  0  0  0  0  0  0
    6.9051   -7.9575   16.4222 C   0  0  0  0  0  0  0  0  0  0  0  0
    8.9969   -6.3552   17.9668 N   0  0  0  0  0  0  0  0  0  0  0  0
   10.6702   -3.9051   22.4070 C   0  0  0  0  0  0  0  0  0  0  0  0
   11.0625   -3.0028   18.8894 C   0  0  0  0  0  0  0  0  0  0  0  0
    5.6180   -7.9194   16.1754 O   0  0  0  0  0  0  0  0  0  0  0  0
    9.7259   -5.3080   18.4485 C   0  0  0  0  0  0  0  0  0  0  0  0
    9.4578   -5.0200   16.3036 N   0  0  0  0  0  0  0  0  0  0  0  0
    5.0287   -8.9365   16.8223 C   0  0  0  0  0  0  0  0  0  0  0  0
    8.7742   -6.1498   16.6764 C   0  0  0  0  0  0  0  0  0  0  0  0
   10.9418   -3.4032   21.2053 O   0  0  0  0  0  0  0  0  0  0  0  0
    1.4797   -8.6258   16.2950 C   0  0  0  0  0  0  0  0  0  0  0  0
    9.2861   -1.2743   25.3585 C   0  0  0  0  0  0  0  0  0  0  0  0
    1.8892  -10.3985   17.7511 N   0  0  0  0  0  0  0  0  0  0  0  0
    9.6210   -0.6952   24.0976 C   0  0  0  0  0  0  0  0  0  0  0  0
    7.0792   -9.0217   17.1429 C   0  0  0  0  0  0  0  0  0  0  0  0
    3.1713  -10.1816   17.6634 C   0  0  0  0  0  0  0  0  0  0  0  0
    2.7878   -8.3822   16.2137 C   0  0  0  0  0  0  0  0  0  0  0  0
    9.4601   -2.6590   25.6528 C   0  0  0  0  0  0  0  0  0  0  0  0
   10.1182   -1.5672   23.1165 C   0  0  0  0  0  0  0  0  0  0  0  0
    1.0552   -9.6360   17.0650 C   0  0  0  0  0  0  0  0  0  0  0  0
    3.6519   -9.1783   16.9039 C   0  0  0  0  0  0  0  0  0  0  0  0
    7.8675   -7.0096   15.9415 C   0  0  0  0  0  0  0  0  0  0  0  0
    5.9733   -9.6553   17.3832 N   0  0  0  0  0  0  0  0  0  0  0  0
   10.2411   -2.9363   23.4301 C   0  0  0  0  0  0  0  0  0  0  0  0
   10.7288   -3.8197   19.9525 C   0  0  0  0  0  0  0  0  0  0  0  0
   10.1189   -5.0054   19.6987 C   0  0  0  0  0  0  0  0  0  0  0  0
  1  3  4  0
  1  7  4  0
  2 21  4  0
  2 27  4  0
  3  9  4  0
  3 10  4  0
  4  8  4  0
  4 18  4  0
  4 25  1  0
  5  9  4  0
  5 12  4  0
  6 13  1  0
  6 27  1  0
  7 28  4  0
  8 11  4  0
  9 29  4  0
 10 12  4  0
 11 24  1  0
 11 26  4  0
 12 25  1  0
 13 28  1  0
 14 20  4  0
 14 23  4  0
 15 17  4  0
 15 21  4  0
 16 19  4  0
 16 23  4  0
 17 22  4  0
 18 26  4  0
 19 24  4  0
 20 24  4  0
 22 27  4  0
 28 29  4  0
M  END
$$$$

 Created by Python create_sdf_string function

 29 33  0  0  0  0  0  0  0  0999 V2000
   10.7215   -3.3326   17.6437 C   0  0  0  0  0  0  0  0  0  0  0  0
    9.9489   -3.4675   24.6487 N   0  0  0  0  0  0  0  0  0  0  0  0
   10.0172   -4.4740   17.4101 C   0  0  0  0  0  0  0  0  0  0  0  0
    6.9051   -7.9575   16.4222 C   0  0  0  0  0  0  0  0  0  0  0  0
    8.9969   -6.3552   17.9668 N   0  0  0  0  0  0  0  0  0  0  0  0
   10.6702   -3.9051   22.4070 C   0  0  0  0  0  0  0  0  0  0  0  0
   11.0625   -3.0028   18.8894 C   0  0  0  0  0  0  0  0  0  0  0  0
    5.6180   -7.9194   16.1754 O   0  0  0  0  0  0  0  0  0  0  0  0
    9.7259   -5.3080   18.4485 C   0  0  0  0  0  0  0  0  0  0  0  0
    9.4578   -5.0200   16.3036 N   0  0  0  0  0  0  0  0  0  0  0  0
    5.0287   -8.9365   16.8223 C   0  0  0  0  0  0  0  0  0  0  0  0
    8.7742   -6.1498   16.6764 C   0  0  0  0  0  0  0  0  0  0  0  0
   10.9418   -3.4032   21.2053 O   0  0  0  0  0  0  0  0  0  0  0  0
    1.4797   -8.6258   16.2950 C   0  0  0  0  0  0  0  0  0  0  0  0
    9.2861   -1.2743   25.3585 C   0  0  0  0  0  0  0  0  0  0  0  0
    1.8892  -10.3985   17.7511 N   0  0  0  0  0  0  0  0  0  0  0  0
    9.6210   -0.6952   24.0976 C   0  0  0  0  0  0  0  0  0  0  0  0
    7.0792   -9.0217   17.1429 C   0  0  0  0  0  0  0  0  0  0  0  0
    3.1713  -10.1816   17.6634 C   0  0  0  0  0  0  0  0  0  0  0  0
    2.7878   -8.3822   16.2137 C   0  0  0  0  0  0  0  0  0  0  0  0
    9.4601   -2.6590   25.6528 C   0  0  0  0  0  0  0  0  0  0  0  0
   10.1182   -1.5672   23.1165 C   0  0  0  0  0  0  0  0  0  0  0  0
    1.0552   -9.6360   17.0650 C   0  0  0  0  0  0  0  0  0  0  0  0
    3.6519   -9.1783   16.9039 C   0  0  0  0  0  0  0  0  0  0  0  0
    7.8675   -7.0096   15.9415 C   0  0  0  0  0  0  0  0  0  0  0  0
    5.9733   -9.6553   17.3832 N   0  0  0  0  0  0  0  0  0  0  0  0
   10.2411   -2.9363   23.4301 C   0  0  0  0  0  0  0  0  0  0  0  0
   10.7288   -3.8197   19.9525 C   0  0  0  0  0  0  0  0  0  0  0  0
   10.1189   -5.0054   19.6987 C   0  0  0  0  0  0  0  0  0  0  0  0
  1  3  4  0
  1  7  4  0
  2 21  4  0
  2 27  4  0
  3  9  4  0
  3 10  4  0
  4  8  4  0
  4 18  4  0
  4 25  1  0
  5  9  4  0
  5 12  4  0
  6 13  1  0
  6 27  1  0
  7 28  4  0
  8 11  4  0
  9 29  4  0
 10 12  4  0
 11 24  1  0
 11 26  4  0
 12 25  1  0
 13 28  1  0
 14 20  4  0
 14 23  4  0
 15 17  4  0
 15 21  4  0
 16 19  4  0
 16 23  4  0
 17 22  4  0
 18 26  4  0
 19 24  4  0
 20 24  4  0
 22 27  4  0
 28 29  4  0
M  END
$$$$

 Created by Python create_sdf_string function

 29 33  0  0  0  0  0  0  0  0999 V2000
   10.7215   -3.3326   17.6437 C   0  0  0  0  0  0  0  0  0  0  0  0
    9.9489   -3.4675   24.6487 N   0  0  0  0  0  0  0  0  0  0  0  0
   10.0172   -4.4740   17.4101 C   0  0  0  0  0  0  0  0  0  0  0  0
    6.9051   -7.9575   16.4222 C   0  0  0  0  0  0  0  0  0  0  0  0
    8.9969   -6.3552   17.9668 N   0  0  0  0  0  0  0  0  0  0  0  0
   10.6702   -3.9051   22.4070 C   0  0  0  0  0  0  0  0  0  0  0  0
   11.0625   -3.0028   18.8894 C   0  0  0  0  0  0  0  0  0  0  0  0
    5.6180   -7.9194   16.1754 O   0  0  0  0  0  0  0  0  0  0  0  0
    9.7259   -5.3080   18.4485 C   0  0  0  0  0  0  0  0  0  0  0  0
    9.4578   -5.0200   16.3036 N   0  0  0  0  0  0  0  0  0  0  0  0
    5.0287   -8.9365   16.8223 C   0  0  0  0  0  0  0  0  0  0  0  0
    8.7742   -6.1498   16.6764 C   0  0  0  0  0  0  0  0  0  0  0  0
   10.9418   -3.4032   21.2053 O   0  0  0  0  0  0  0  0  0  0  0  0
    1.4797   -8.6258   16.2950 C   0  0  0  0  0  0  0  0  0  0  0  0
    9.2861   -1.2743   25.3585 C   0  0  0  0  0  0  0  0  0  0  0  0
    1.8892  -10.3985   17.7511 N   0  0  0  0  0  0  0  0  0  0  0  0
    9.6210   -0.6952   24.0976 C   0  0  0  0  0  0  0  0  0  0  0  0
    7.0792   -9.0217   17.1429 C   0  0  0  0  0  0  0  0  0  0  0  0
    3.1713  -10.1816   17.6634 C   0  0  0  0  0  0  0  0  0  0  0  0
    2.7878   -8.3822   16.2137 C   0  0  0  0  0  0  0  0  0  0  0  0
    9.4601   -2.6590   25.6528 C   0  0  0  0  0  0  0  0  0  0  0  0
   10.1182   -1.5672   23.1165 C   0  0  0  0  0  0  0  0  0  0  0  0
    1.0552   -9.6360   17.0650 C   0  0  0  0  0  0  0  0  0  0  0  0
    3.6519   -9.1783   16.9039 C   0  0  0  0  0  0  0  0  0  0  0  0
    7.8675   -7.0096   15.9415 C   0  0  0  0  0  0  0  0  0  0  0  0
    5.9733   -9.6553   17.3832 N   0  0  0  0  0  0  0  0  0  0  0  0
   10.2411   -2.9363   23.4301 C   0  0  0  0  0  0  0  0  0  0  0  0
   10.7288   -3.8197   19.9525 C   0  0  0  0  0  0  0  0  0  0  0  0
   10.1189   -5.0054   19.6987 C   0  0  0  0  0  0  0  0  0  0  0  0
  1  3  4  0
  1  7  4  0
  2 21  4  0
  2 27  4  0
  3  9  4  0
  3 10  4  0
  4  8  4  0
  4 18  4  0
  4 25  1  0
  5  9  4  0
  5 12  4  0
  6 13  1  0
  6 27  1  0
  7 28  4  0
  8 11  4  0
  9 29  4  0
 10 12  4  0
 11 24  1  0
 11 26  4  0
 12 25  1  0
 13 28  1  0
 14 20  4  0
 14 23  4  0
 15 17  4  0
 15 21  4  0
 16 19  4  0
 16 23  4  0
 17 22  4  0
 18 26  4  0
 19 24  4  0
 20 24  4  0
 22 27  4  0
 28 29  4  0
M  END
$$$$

 Created by Python create_sdf_string function

 29 33  0  0  0  0  0  0  0  0999 V2000
   10.7215   -3.3326   17.6437 C   0  0  0  0  0  0  0  0  0  0  0  0
    9.9489   -3.4675   24.6487 N   0  0  0  0  0  0  0  0  0  0  0  0
   10.0172   -4.4740   17.4101 C   0  0  0  0  0  0  0  0  0  0  0  0
    6.9051   -7.9575   16.4222 C   0  0  0  0  0  0  0  0  0  0  0  0
    8.9969   -6.3552   17.9668 N   0  0  0  0  0  0  0  0  0  0  0  0
   10.6702   -3.9051   22.4070 C   0  0  0  0  0  0  0  0  0  0  0  0
   11.0625   -3.0028   18.8894 C   0  0  0  0  0  0  0  0  0  0  0  0
    5.6180   -7.9194   16.1754 O   0  0  0  0  0  0  0  0  0  0  0  0
    9.7259   -5.3080   18.4485 C   0  0  0  0  0  0  0  0  0  0  0  0
    9.4578   -5.0200   16.3036 N   0  0  0  0  0  0  0  0  0  0  0  0
    5.0287   -8.9365   16.8223 C   0  0  0  0  0  0  0  0  0  0  0  0
    8.7742   -6.1498   16.6764 C   0  0  0  0  0  0  0  0  0  0  0  0
   10.9418   -3.4032   21.2053 O   0  0  0  0  0  0  0  0  0  0  0  0
    1.4797   -8.6258   16.2950 C   0  0  0  0  0  0  0  0  0  0  0  0
    9.2861   -1.2743   25.3585 C   0  0  0  0  0  0  0  0  0  0  0  0
    1.8892  -10.3985   17.7511 N   0  0  0  0  0  0  0  0  0  0  0  0
    9.6210   -0.6952   24.0976 C   0  0  0  0  0  0  0  0  0  0  0  0
    7.0792   -9.0217   17.1429 C   0  0  0  0  0  0  0  0  0  0  0  0
    3.1713  -10.1816   17.6634 C   0  0  0  0  0  0  0  0  0  0  0  0
    2.7878   -8.3822   16.2137 C   0  0  0  0  0  0  0  0  0  0  0  0
    9.4601   -2.6590   25.6528 C   0  0  0  0  0  0  0  0  0  0  0  0
   10.1182   -1.5672   23.1165 C   0  0  0  0  0  0  0  0  0  0  0  0
    1.0552   -9.6360   17.0650 C   0  0  0  0  0  0  0  0  0  0  0  0
    3.6519   -9.1783   16.9039 C   0  0  0  0  0  0  0  0  0  0  0  0
    7.8675   -7.0096   15.9415 C   0  0  0  0  0  0  0  0  0  0  0  0
    5.9733   -9.6553   17.3832 N   0  0  0  0  0  0  0  0  0  0  0  0
   10.2411   -2.9363   23.4301 C   0  0  0  0  0  0  0  0  0  0  0  0
   10.7288   -3.8197   19.9525 C   0  0  0  0  0  0  0  0  0  0  0  0
   10.1189   -5.0054   19.6987 C   0  0  0  0  0  0  0  0  0  0  0  0
  1  3  4  0
  1  7  4  0
  2 21  4  0
  2 27  4  0
  3  9  4  0
  3 10  4  0
  4  8  4  0
  4 18  4  0
  4 25  1  0
  5  9  4  0
  5 12  4  0
  6 13  1  0
  6 27  1  0
  7 28  4  0
  8 11  4  0
  9 29  4  0
 10 12  4  0
 11 24  1  0
 11 26  4  0
 12 25  1  0
 13 28  1  0
 14 20  4  0
 14 23  4  0
 15 17  4  0
 15 21  4  0
 16 19  4  0
 16 23  4  0
 17 22  4  0
 18 26  4  0
 19 24  4  0
 20 24  4  0
 22 27  4  0
 28 29  4  0
M  END
$$$$

 Created by Python create_sdf_string function

 29 33  0  0  0  0  0  0  0  0999 V2000
   10.7215   -3.3326   17.6437 C   0  0  0  0  0  0  0  0  0  0  0  0
    9.9489   -3.4675   24.6487 N   0  0  0  0  0  0  0  0  0  0  0  0
   10.0172   -4.4740   17.4101 C   0  0  0  0  0  0  0  0  0  0  0  0
    6.9051   -7.9575   16.4222 C   0  0  0  0  0  0  0  0  0  0  0  0
    8.9969   -6.3552   17.9668 N   0  0  0  0  0  0  0  0  0  0  0  0
   10.6702   -3.9051   22.4070 C   0  0  0  0  0  0  0  0  0  0  0  0
   11.0625   -3.0028   18.8894 C   0  0  0  0  0  0  0  0  0  0  0  0
    5.6180   -7.9194   16.1754 O   0  0  0  0  0  0  0  0  0  0  0  0
    9.7259   -5.3080   18.4485 C   0  0  0  0  0  0  0  0  0  0  0  0
    9.4578   -5.0200   16.3036 N   0  0  0  0  0  0  0  0  0  0  0  0
    5.0287   -8.9365   16.8223 C   0  0  0  0  0  0  0  0  0  0  0  0
    8.7742   -6.1498   16.6764 C   0  0  0  0  0  0  0  0  0  0  0  0
   10.9418   -3.4032   21.2053 O   0  0  0  0  0  0  0  0  0  0  0  0
    1.4797   -8.6258   16.2950 C   0  0  0  0  0  0  0  0  0  0  0  0
    9.2861   -1.2743   25.3585 C   0  0  0  0  0  0  0  0  0  0  0  0
    1.8892  -10.3985   17.7511 N   0  0  0  0  0  0  0  0  0  0  0  0
    9.6210   -0.6952   24.0976 C   0  0  0  0  0  0  0  0  0  0  0  0
    7.0792   -9.0217   17.1429 C   0  0  0  0  0  0  0  0  0  0  0  0
    3.1713  -10.1816   17.6634 C   0  0  0  0  0  0  0  0  0  0  0  0
    2.7878   -8.3822   16.2137 C   0  0  0  0  0  0  0  0  0  0  0  0
    9.4601   -2.6590   25.6528 C   0  0  0  0  0  0  0  0  0  0  0  0
   10.1182   -1.5672   23.1165 C   0  0  0  0  0  0  0  0  0  0  0  0
    1.0552   -9.6360   17.0650 C   0  0  0  0  0  0  0  0  0  0  0  0
    3.6519   -9.1783   16.9039 C   0  0  0  0  0  0  0  0  0  0  0  0
    7.8675   -7.0096   15.9415 C   0  0  0  0  0  0  0  0  0  0  0  0
    5.9733   -9.6553   17.3832 N   0  0  0  0  0  0  0  0  0  0  0  0
   10.2411   -2.9363   23.4301 C   0  0  0  0  0  0  0  0  0  0  0  0
   10.7288   -3.8197   19.9525 C   0  0  0  0  0  0  0  0  0  0  0  0
   10.1189   -5.0054   19.6987 C   0  0  0  0  0  0  0  0  0  0  0  0
  1  3  4  0
  1  7  4  0
  2 21  4  0
  2 27  4  0
  3  9  4  0
  3 10  4  0
  4  8  4  0
  4 18  4  0
  4 25  1  0
  5  9  4  0
  5 12  4  0
  6 13  1  0
  6 27  1  0
  7 28  4  0
  8 11  4  0
  9 29  4  0
 10 12  4  0
 11 24  1  0
 11 26  4  0
 12 25  1  0
 13 28  1  0
 14 20  4  0
 14 23  4  0
 15 17  4  0
 15 21  4  0
 16 19  4  0
 16 23  4  0
 17 22  4  0
 18 26  4  0
 19 24  4  0
 20 24  4  0
 22 27  4  0
 28 29  4  0
M  END
$$$$

 Created by Python create_sdf_string function

 29 33  0  0  0  0  0  0  0  0999 V2000
   10.7215   -3.3326   17.6437 C   0  0  0  0  0  0  0  0  0  0  0  0
    9.9489   -3.4675   24.6487 N   0  0  0  0  0  0  0  0  0  0  0  0
   10.0172   -4.4740   17.4101 C   0  0  0  0  0  0  0  0  0  0  0  0
    6.9051   -7.9575   16.4222 C   0  0  0  0  0  0  0  0  0  0  0  0
    8.9969   -6.3552   17.9668 N   0  0  0  0  0  0  0  0  0  0  0  0
   10.6702   -3.9051   22.4070 C   0  0  0  0  0  0  0  0  0  0  0  0
   11.0625   -3.0028   18.8894 C   0  0  0  0  0  0  0  0  0  0  0  0
    5.6180   -7.9194   16.1754 O   0  0  0  0  0  0  0  0  0  0  0  0
    9.7259   -5.3080   18.4485 C   0  0  0  0  0  0  0  0  0  0  0  0
    9.4578   -5.0200   16.3036 N   0  0  0  0  0  0  0  0  0  0  0  0
    5.0287   -8.9365   16.8223 C   0  0  0  0  0  0  0  0  0  0  0  0
    8.7742   -6.1498   16.6764 C   0  0  0  0  0  0  0  0  0  0  0  0
   10.9418   -3.4032   21.2053 O   0  0  0  0  0  0  0  0  0  0  0  0
    1.4797   -8.6258   16.2950 C   0  0  0  0  0  0  0  0  0  0  0  0
    9.2861   -1.2743   25.3585 C   0  0  0  0  0  0  0  0  0  0  0  0
    1.8892  -10.3985   17.7511 N   0  0  0  0  0  0  0  0  0  0  0  0
    9.6210   -0.6952   24.0976 C   0  0  0  0  0  0  0  0  0  0  0  0
    7.0792   -9.0217   17.1429 C   0  0  0  0  0  0  0  0  0  0  0  0
    3.1713  -10.1816   17.6634 C   0  0  0  0  0  0  0  0  0  0  0  0
    2.7878   -8.3822   16.2137 C   0  0  0  0  0  0  0  0  0  0  0  0
    9.4601   -2.6590   25.6528 C   0  0  0  0  0  0  0  0  0  0  0  0
   10.1182   -1.5672   23.1165 C   0  0  0  0  0  0  0  0  0  0  0  0
    1.0552   -9.6360   17.0650 C   0  0  0  0  0  0  0  0  0  0  0  0
    3.6519   -9.1783   16.9039 C   0  0  0  0  0  0  0  0  0  0  0  0
    7.8675   -7.0096   15.9415 C   0  0  0  0  0  0  0  0  0  0  0  0
    5.9733   -9.6553   17.3832 N   0  0  0  0  0  0  0  0  0  0  0  0
   10.2411   -2.9363   23.4301 C   0  0  0  0  0  0  0  0  0  0  0  0
   10.7288   -3.8197   19.9525 C   0  0  0  0  0  0  0  0  0  0  0  0
   10.1189   -5.0054   19.6987 C   0  0  0  0  0  0  0  0  0  0  0  0
  1  3  4  0
  1  7  4  0
  2 21  4  0
  2 27  4  0
  3  9  4  0
  3 10  4  0
  4  8  4  0
  4 18  4  0
  4 25  1  0
  5  9  4  0
  5 12  4  0
  6 13  1  0
  6 27  1  0
  7 28  4  0
  8 11  4  0
  9 29  4  0
 10 12  4  0
 11 24  1  0
 11 26  4  0
 12 25  1  0
 13 28  1  0
 14 20  4  0
 14 23  4  0
 15 17  4  0
 15 21  4  0
 16 19  4  0
 16 23  4  0
 17 22  4  0
 18 26  4  0
 19 24  4  0
 20 24  4  0
 22 27  4  0
 28 29  4  0
M  END
$$$$

 Created by Python create_sdf_string function

 29 33  0  0  0  0  0  0  0  0999 V2000
   10.7215   -3.3326   17.6437 C   0  0  0  0  0  0  0  0  0  0  0  0
    9.9489   -3.4675   24.6487 N   0  0  0  0  0  0  0  0  0  0  0  0
   10.0172   -4.4740   17.4101 C   0  0  0  0  0  0  0  0  0  0  0  0
    6.9051   -7.9575   16.4222 C   0  0  0  0  0  0  0  0  0  0  0  0
    8.9969   -6.3552   17.9668 N   0  0  0  0  0  0  0  0  0  0  0  0
   10.6702   -3.9051   22.4070 C   0  0  0  0  0  0  0  0  0  0  0  0
   11.0625   -3.0028   18.8894 C   0  0  0  0  0  0  0  0  0  0  0  0
    5.6180   -7.9194   16.1754 O   0  0  0  0  0  0  0  0  0  0  0  0
    9.7259   -5.3080   18.4485 C   0  0  0  0  0  0  0  0  0  0  0  0
    9.4578   -5.0200   16.3036 N   0  0  0  0  0  0  0  0  0  0  0  0
    5.0287   -8.9365   16.8223 C   0  0  0  0  0  0  0  0  0  0  0  0
    8.7742   -6.1498   16.6764 C   0  0  0  0  0  0  0  0  0  0  0  0
   10.9418   -3.4032   21.2053 O   0  0  0  0  0  0  0  0  0  0  0  0
    1.4797   -8.6258   16.2950 C   0  0  0  0  0  0  0  0  0  0  0  0
    9.2861   -1.2743   25.3585 C   0  0  0  0  0  0  0  0  0  0  0  0
    1.8892  -10.3985   17.7511 N   0  0  0  0  0  0  0  0  0  0  0  0
    9.6210   -0.6952   24.0976 C   0  0  0  0  0  0  0  0  0  0  0  0
    7.0792   -9.0217   17.1429 C   0  0  0  0  0  0  0  0  0  0  0  0
    3.1713  -10.1816   17.6634 C   0  0  0  0  0  0  0  0  0  0  0  0
    2.7878   -8.3822   16.2137 C   0  0  0  0  0  0  0  0  0  0  0  0
    9.4601   -2.6590   25.6528 C   0  0  0  0  0  0  0  0  0  0  0  0
   10.1182   -1.5672   23.1165 C   0  0  0  0  0  0  0  0  0  0  0  0
    1.0552   -9.6360   17.0650 C   0  0  0  0  0  0  0  0  0  0  0  0
    3.6519   -9.1783   16.9039 C   0  0  0  0  0  0  0  0  0  0  0  0
    7.8675   -7.0096   15.9415 C   0  0  0  0  0  0  0  0  0  0  0  0
    5.9733   -9.6553   17.3832 N   0  0  0  0  0  0  0  0  0  0  0  0
   10.2411   -2.9363   23.4301 C   0  0  0  0  0  0  0  0  0  0  0  0
   10.7288   -3.8197   19.9525 C   0  0  0  0  0  0  0  0  0  0  0  0
   10.1189   -5.0054   19.6987 C   0  0  0  0  0  0  0  0  0  0  0  0
  1  3  4  0
  1  7  4  0
  2 21  4  0
  2 27  4  0
  3  9  4  0
  3 10  4  0
  4  8  4  0
  4 18  4  0
  4 25  1  0
  5  9  4  0
  5 12  4  0
  6 13  1  0
  6 27  1  0
  7 28  4  0
  8 11  4  0
  9 29  4  0
 10 12  4  0
 11 24  1  0
 11 26  4  0
 12 25  1  0
 13 28  1  0
 14 20  4  0
 14 23  4  0
 15 17  4  0
 15 21  4  0
 16 19  4  0
 16 23  4  0
 17 22  4  0
 18 26  4  0
 19 24  4  0
 20 24  4  0
 22 27  4  0
 28 29  4  0
M  END
$$$$

 Created by Python create_sdf_string function

 29 33  0  0  0  0  0  0  0  0999 V2000
   10.7215   -3.3326   17.6437 C   0  0  0  0  0  0  0  0  0  0  0  0
    9.9489   -3.4675   24.6487 N   0  0  0  0  0  0  0  0  0  0  0  0
   10.0172   -4.4740   17.4101 C   0  0  0  0  0  0  0  0  0  0  0  0
    6.9051   -7.9575   16.4222 C   0  0  0  0  0  0  0  0  0  0  0  0
    8.9969   -6.3552   17.9668 N   0  0  0  0  0  0  0  0  0  0  0  0
   10.6702   -3.9051   22.4070 C   0  0  0  0  0  0  0  0  0  0  0  0
   11.0625   -3.0028   18.8894 C   0  0  0  0  0  0  0  0  0  0  0  0
    5.6180   -7.9194   16.1754 O   0  0  0  0  0  0  0  0  0  0  0  0
    9.7259   -5.3080   18.4485 C   0  0  0  0  0  0  0  0  0  0  0  0
    9.4578   -5.0200   16.3036 N   0  0  0  0  0  0  0  0  0  0  0  0
    5.0287   -8.9365   16.8223 C   0  0  0  0  0  0  0  0  0  0  0  0
    8.7742   -6.1498   16.6764 C   0  0  0  0  0  0  0  0  0  0  0  0
   10.9418   -3.4032   21.2053 O   0  0  0  0  0  0  0  0  0  0  0  0
    1.4797   -8.6258   16.2950 C   0  0  0  0  0  0  0  0  0  0  0  0
    9.2861   -1.2743   25.3585 C   0  0  0  0  0  0  0  0  0  0  0  0
    1.8892  -10.3985   17.7511 N   0  0  0  0  0  0  0  0  0  0  0  0
    9.6210   -0.6952   24.0976 C   0  0  0  0  0  0  0  0  0  0  0  0
    7.0792   -9.0217   17.1429 C   0  0  0  0  0  0  0  0  0  0  0  0
    3.1713  -10.1816   17.6634 C   0  0  0  0  0  0  0  0  0  0  0  0
    2.7878   -8.3822   16.2137 C   0  0  0  0  0  0  0  0  0  0  0  0
    9.4601   -2.6590   25.6528 C   0  0  0  0  0  0  0  0  0  0  0  0
   10.1182   -1.5672   23.1165 C   0  0  0  0  0  0  0  0  0  0  0  0
    1.0552   -9.6360   17.0650 C   0  0  0  0  0  0  0  0  0  0  0  0
    3.6519   -9.1783   16.9039 C   0  0  0  0  0  0  0  0  0  0  0  0
    7.8675   -7.0096   15.9415 C   0  0  0  0  0  0  0  0  0  0  0  0
    5.9733   -9.6553   17.3832 N   0  0  0  0  0  0  0  0  0  0  0  0
   10.2411   -2.9363   23.4301 C   0  0  0  0  0  0  0  0  0  0  0  0
   10.7288   -3.8197   19.9525 C   0  0  0  0  0  0  0  0  0  0  0  0
   10.1189   -5.0054   19.6987 C   0  0  0  0  0  0  0  0  0  0  0  0
  1  3  4  0
  1  7  4  0
  2 21  4  0
  2 27  4  0
  3  9  4  0
  3 10  4  0
  4  8  4  0
  4 18  4  0
  4 25  1  0
  5  9  4  0
  5 12  4  0
  6 13  1  0
  6 27  1  0
  7 28  4  0
  8 11  4  0
  9 29  4  0
 10 12  4  0
 11 24  1  0
 11 26  4  0
 12 25  1  0
 13 28  1  0
 14 20  4  0
 14 23  4  0
 15 17  4  0
 15 21  4  0
 16 19  4  0
 16 23  4  0
 17 22  4  0
 18 26  4  0
 19 24  4  0
 20 24  4  0
 22 27  4  0
 28 29  4  0
M  END
$$$$

 Created by Python create_sdf_string function

 29 33  0  0  0  0  0  0  0  0999 V2000
   10.7215   -3.3326   17.6437 C   0  0  0  0  0  0  0  0  0  0  0  0
    9.9489   -3.4675   24.6487 N   0  0  0  0  0  0  0  0  0  0  0  0
   10.0172   -4.4740   17.4101 C   0  0  0  0  0  0  0  0  0  0  0  0
    6.9051   -7.9575   16.4222 C   0  0  0  0  0  0  0  0  0  0  0  0
    8.9969   -6.3552   17.9668 N   0  0  0  0  0  0  0  0  0  0  0  0
   10.6702   -3.9051   22.4070 C   0  0  0  0  0  0  0  0  0  0  0  0
   11.0625   -3.0028   18.8894 C   0  0  0  0  0  0  0  0  0  0  0  0
    5.6180   -7.9194   16.1754 O   0  0  0  0  0  0  0  0  0  0  0  0
    9.7259   -5.3080   18.4485 C   0  0  0  0  0  0  0  0  0  0  0  0
    9.4578   -5.0200   16.3036 N   0  0  0  0  0  0  0  0  0  0  0  0
    5.0287   -8.9365   16.8223 C   0  0  0  0  0  0  0  0  0  0  0  0
    8.7742   -6.1498   16.6764 C   0  0  0  0  0  0  0  0  0  0  0  0
   10.9418   -3.4032   21.2053 O   0  0  0  0  0  0  0  0  0  0  0  0
    1.4797   -8.6258   16.2950 C   0  0  0  0  0  0  0  0  0  0  0  0
    9.2861   -1.2743   25.3585 C   0  0  0  0  0  0  0  0  0  0  0  0
    1.8892  -10.3985   17.7511 N   0  0  0  0  0  0  0  0  0  0  0  0
    9.6210   -0.6952   24.0976 C   0  0  0  0  0  0  0  0  0  0  0  0
    7.0792   -9.0217   17.1429 C   0  0  0  0  0  0  0  0  0  0  0  0
    3.1713  -10.1816   17.6634 C   0  0  0  0  0  0  0  0  0  0  0  0
    2.7878   -8.3822   16.2137 C   0  0  0  0  0  0  0  0  0  0  0  0
    9.4601   -2.6590   25.6528 C   0  0  0  0  0  0  0  0  0  0  0  0
   10.1182   -1.5672   23.1165 C   0  0  0  0  0  0  0  0  0  0  0  0
    1.0552   -9.6360   17.0650 C   0  0  0  0  0  0  0  0  0  0  0  0
    3.6519   -9.1783   16.9039 C   0  0  0  0  0  0  0  0  0  0  0  0
    7.8675   -7.0096   15.9415 C   0  0  0  0  0  0  0  0  0  0  0  0
    5.9733   -9.6553   17.3832 N   0  0  0  0  0  0  0  0  0  0  0  0
   10.2411   -2.9363   23.4301 C   0  0  0  0  0  0  0  0  0  0  0  0
   10.7288   -3.8197   19.9525 C   0  0  0  0  0  0  0  0  0  0  0  0
   10.1189   -5.0054   19.6987 C   0  0  0  0  0  0  0  0  0  0  0  0
  1  3  4  0
  1  7  4  0
  2 21  4  0
  2 27  4  0
  3  9  4  0
  3 10  4  0
  4  8  4  0
  4 18  4  0
  4 25  1  0
  5  9  4  0
  5 12  4  0
  6 13  1  0
  6 27  1  0
  7 28  4  0
  8 11  4  0
  9 29  4  0
 10 12  4  0
 11 24  1  0
 11 26  4  0
 12 25  1  0
 13 28  1  0
 14 20  4  0
 14 23  4  0
 15 17  4  0
 15 21  4  0
 16 19  4  0
 16 23  4  0
 17 22  4  0
 18 26  4  0
 19 24  4  0
 20 24  4  0
 22 27  4  0
 28 29  4  0
M  END
$$$$

 Created by Python create_sdf_string function

 29 33  0  0  0  0  0  0  0  0999 V2000
   10.7215   -3.3326   17.6437 C   0  0  0  0  0  0  0  0  0  0  0  0
    9.9489   -3.4675   24.6487 N   0  0  0  0  0  0  0  0  0  0  0  0
   10.0172   -4.4740   17.4101 C   0  0  0  0  0  0  0  0  0  0  0  0
    6.9051   -7.9575   16.4222 C   0  0  0  0  0  0  0  0  0  0  0  0
    8.9969   -6.3552   17.9668 N   0  0  0  0  0  0  0  0  0  0  0  0
   10.6702   -3.9051   22.4070 C   0  0  0  0  0  0  0  0  0  0  0  0
   11.0625   -3.0028   18.8894 C   0  0  0  0  0  0  0  0  0  0  0  0
    5.6180   -7.9194   16.1754 O   0  0  0  0  0  0  0  0  0  0  0  0
    9.7259   -5.3080   18.4485 C   0  0  0  0  0  0  0  0  0  0  0  0
    9.4578   -5.0200   16.3036 N   0  0  0  0  0  0  0  0  0  0  0  0
    5.0287   -8.9365   16.8223 C   0  0  0  0  0  0  0  0  0  0  0  0
    8.7742   -6.1498   16.6764 C   0  0  0  0  0  0  0  0  0  0  0  0
   10.9418   -3.4032   21.2053 O   0  0  0  0  0  0  0  0  0  0  0  0
    1.4797   -8.6258   16.2950 C   0  0  0  0  0  0  0  0  0  0  0  0
    9.2861   -1.2743   25.3585 C   0  0  0  0  0  0  0  0  0  0  0  0
    1.8892  -10.3985   17.7511 N   0  0  0  0  0  0  0  0  0  0  0  0
    9.6210   -0.6952   24.0976 C   0  0  0  0  0  0  0  0  0  0  0  0
    7.0792   -9.0217   17.1429 C   0  0  0  0  0  0  0  0  0  0  0  0
    3.1713  -10.1816   17.6634 C   0  0  0  0  0  0  0  0  0  0  0  0
    2.7878   -8.3822   16.2137 C   0  0  0  0  0  0  0  0  0  0  0  0
    9.4601   -2.6590   25.6528 C   0  0  0  0  0  0  0  0  0  0  0  0
   10.1182   -1.5672   23.1165 C   0  0  0  0  0  0  0  0  0  0  0  0
    1.0552   -9.6360   17.0650 C   0  0  0  0  0  0  0  0  0  0  0  0
    3.6519   -9.1783   16.9039 C   0  0  0  0  0  0  0  0  0  0  0  0
    7.8675   -7.0096   15.9415 C   0  0  0  0  0  0  0  0  0  0  0  0
    5.9733   -9.6553   17.3832 N   0  0  0  0  0  0  0  0  0  0  0  0
   10.2411   -2.9363   23.4301 C   0  0  0  0  0  0  0  0  0  0  0  0
   10.7288   -3.8197   19.9525 C   0  0  0  0  0  0  0  0  0  0  0  0
   10.1189   -5.0054   19.6987 C   0  0  0  0  0  0  0  0  0  0  0  0
  1  3  4  0
  1  7  4  0
  2 21  4  0
  2 27  4  0
  3  9  4  0
  3 10  4  0
  4  8  4  0
  4 18  4  0
  4 25  1  0
  5  9  4  0
  5 12  4  0
  6 13  1  0
  6 27  1  0
  7 28  4  0
  8 11  4  0
  9 29  4  0
 10 12  4  0
 11 24  1  0
 11 26  4  0
 12 25  1  0
 13 28  1  0
 14 20  4  0
 14 23  4  0
 15 17  4  0
 15 21  4  0
 16 19  4  0
 16 23  4  0
 17 22  4  0
 18 26  4  0
 19 24  4  0
 20 24  4  0
 22 27  4  0
 28 29  4  0
M  END
$$$$

 Created by Python create_sdf_string function

 29 33  0  0  0  0  0  0  0  0999 V2000
   10.7215   -3.3326   17.6437 C   0  0  0  0  0  0  0  0  0  0  0  0
    9.9489   -3.4675   24.6487 N   0  0  0  0  0  0  0  0  0  0  0  0
   10.0172   -4.4740   17.4101 C   0  0  0  0  0  0  0  0  0  0  0  0
    6.9051   -7.9575   16.4222 C   0  0  0  0  0  0  0  0  0  0  0  0
    8.9969   -6.3552   17.9668 N   0  0  0  0  0  0  0  0  0  0  0  0
   10.6702   -3.9051   22.4070 C   0  0  0  0  0  0  0  0  0  0  0  0
   11.0625   -3.0028   18.8894 C   0  0  0  0  0  0  0  0  0  0  0  0
    5.6180   -7.9194   16.1754 O   0  0  0  0  0  0  0  0  0  0  0  0
    9.7259   -5.3080   18.4485 C   0  0  0  0  0  0  0  0  0  0  0  0
    9.4578   -5.0200   16.3036 N   0  0  0  0  0  0  0  0  0  0  0  0
    5.0287   -8.9365   16.8223 C   0  0  0  0  0  0  0  0  0  0  0  0
    8.7742   -6.1498   16.6764 C   0  0  0  0  0  0  0  0  0  0  0  0
   10.9418   -3.4032   21.2053 O   0  0  0  0  0  0  0  0  0  0  0  0
    1.4797   -8.6258   16.2950 C   0  0  0  0  0  0  0  0  0  0  0  0
    9.2861   -1.2743   25.3585 C   0  0  0  0  0  0  0  0  0  0  0  0
    1.8892  -10.3985   17.7511 N   0  0  0  0  0  0  0  0  0  0  0  0
    9.6210   -0.6952   24.0976 C   0  0  0  0  0  0  0  0  0  0  0  0
    7.0792   -9.0217   17.1429 C   0  0  0  0  0  0  0  0  0  0  0  0
    3.1713  -10.1816   17.6634 C   0  0  0  0  0  0  0  0  0  0  0  0
    2.7878   -8.3822   16.2137 C   0  0  0  0  0  0  0  0  0  0  0  0
    9.4601   -2.6590   25.6528 C   0  0  0  0  0  0  0  0  0  0  0  0
   10.1182   -1.5672   23.1165 C   0  0  0  0  0  0  0  0  0  0  0  0
    1.0552   -9.6360   17.0650 C   0  0  0  0  0  0  0  0  0  0  0  0
    3.6519   -9.1783   16.9039 C   0  0  0  0  0  0  0  0  0  0  0  0
    7.8675   -7.0096   15.9415 C   0  0  0  0  0  0  0  0  0  0  0  0
    5.9733   -9.6553   17.3832 N   0  0  0  0  0  0  0  0  0  0  0  0
   10.2411   -2.9363   23.4301 C   0  0  0  0  0  0  0  0  0  0  0  0
   10.7288   -3.8197   19.9525 C   0  0  0  0  0  0  0  0  0  0  0  0
   10.1189   -5.0054   19.6987 C   0  0  0  0  0  0  0  0  0  0  0  0
  1  3  4  0
  1  7  4  0
  2 21  4  0
  2 27  4  0
  3  9  4  0
  3 10  4  0
  4  8  4  0
  4 18  4  0
  4 25  1  0
  5  9  4  0
  5 12  4  0
  6 13  1  0
  6 27  1  0
  7 28  4  0
  8 11  4  0
  9 29  4  0
 10 12  4  0
 11 24  1  0
 11 26  4  0
 12 25  1  0
 13 28  1  0
 14 20  4  0
 14 23  4  0
 15 17  4  0
 15 21  4  0
 16 19  4  0
 16 23  4  0
 17 22  4  0
 18 26  4  0
 19 24  4  0
 20 24  4  0
 22 27  4  0
 28 29  4  0
M  END
$$$$

 Created by Python create_sdf_string function

 29 33  0  0  0  0  0  0  0  0999 V2000
   10.7215   -3.3326   17.6437 C   0  0  0  0  0  0  0  0  0  0  0  0
    9.9489   -3.4675   24.6487 N   0  0  0  0  0  0  0  0  0  0  0  0
   10.0172   -4.4740   17.4101 C   0  0  0  0  0  0  0  0  0  0  0  0
    6.9051   -7.9575   16.4222 C   0  0  0  0  0  0  0  0  0  0  0  0
    8.9969   -6.3552   17.9668 N   0  0  0  0  0  0  0  0  0  0  0  0
   10.6702   -3.9051   22.4070 C   0  0  0  0  0  0  0  0  0  0  0  0
   11.0625   -3.0028   18.8894 C   0  0  0  0  0  0  0  0  0  0  0  0
    5.6180   -7.9194   16.1754 O   0  0  0  0  0  0  0  0  0  0  0  0
    9.7259   -5.3080   18.4485 C   0  0  0  0  0  0  0  0  0  0  0  0
    9.4578   -5.0200   16.3036 N   0  0  0  0  0  0  0  0  0  0  0  0
    5.0287   -8.9365   16.8223 C   0  0  0  0  0  0  0  0  0  0  0  0
    8.7742   -6.1498   16.6764 C   0  0  0  0  0  0  0  0  0  0  0  0
   10.9418   -3.4032   21.2053 O   0  0  0  0  0  0  0  0  0  0  0  0
    1.4797   -8.6258   16.2950 C   0  0  0  0  0  0  0  0  0  0  0  0
    9.2861   -1.2743   25.3585 C   0  0  0  0  0  0  0  0  0  0  0  0
    1.8892  -10.3985   17.7511 N   0  0  0  0  0  0  0  0  0  0  0  0
    9.6210   -0.6952   24.0976 C   0  0  0  0  0  0  0  0  0  0  0  0
    7.0792   -9.0217   17.1429 C   0  0  0  0  0  0  0  0  0  0  0  0
    3.1713  -10.1816   17.6634 C   0  0  0  0  0  0  0  0  0  0  0  0
    2.7878   -8.3822   16.2137 C   0  0  0  0  0  0  0  0  0  0  0  0
    9.4601   -2.6590   25.6528 C   0  0  0  0  0  0  0  0  0  0  0  0
   10.1182   -1.5672   23.1165 C   0  0  0  0  0  0  0  0  0  0  0  0
    1.0552   -9.6360   17.0650 C   0  0  0  0  0  0  0  0  0  0  0  0
    3.6519   -9.1783   16.9039 C   0  0  0  0  0  0  0  0  0  0  0  0
    7.8675   -7.0096   15.9415 C   0  0  0  0  0  0  0  0  0  0  0  0
    5.9733   -9.6553   17.3832 N   0  0  0  0  0  0  0  0  0  0  0  0
   10.2411   -2.9363   23.4301 C   0  0  0  0  0  0  0  0  0  0  0  0
   10.7288   -3.8197   19.9525 C   0  0  0  0  0  0  0  0  0  0  0  0
   10.1189   -5.0054   19.6987 C   0  0  0  0  0  0  0  0  0  0  0  0
  1  3  4  0
  1  7  4  0
  2 21  4  0
  2 27  4  0
  3  9  4  0
  3 10  4  0
  4  8  4  0
  4 18  4  0
  4 25  1  0
  5  9  4  0
  5 12  4  0
  6 13  1  0
  6 27  1  0
  7 28  4  0
  8 11  4  0
  9 29  4  0
 10 12  4  0
 11 24  1  0
 11 26  4  0
 12 25  1  0
 13 28  1  0
 14 20  4  0
 14 23  4  0
 15 17  4  0
 15 21  4  0
 16 19  4  0
 16 23  4  0
 17 22  4  0
 18 26  4  0
 19 24  4  0
 20 24  4  0
 22 27  4  0
 28 29  4  0
M  END
$$$$

 Created by Python create_sdf_string function

 29 33  0  0  0  0  0  0  0  0999 V2000
   10.7215   -3.3326   17.6437 C   0  0  0  0  0  0  0  0  0  0  0  0
    9.9489   -3.4675   24.6487 N   0  0  0  0  0  0  0  0  0  0  0  0
   10.0172   -4.4740   17.4101 C   0  0  0  0  0  0  0  0  0  0  0  0
    6.9051   -7.9575   16.4222 C   0  0  0  0  0  0  0  0  0  0  0  0
    8.9969   -6.3552   17.9668 N   0  0  0  0  0  0  0  0  0  0  0  0
   10.6702   -3.9051   22.4070 C   0  0  0  0  0  0  0  0  0  0  0  0
   11.0625   -3.0028   18.8894 C   0  0  0  0  0  0  0  0  0  0  0  0
    5.6180   -7.9194   16.1754 O   0  0  0  0  0  0  0  0  0  0  0  0
    9.7259   -5.3080   18.4485 C   0  0  0  0  0  0  0  0  0  0  0  0
    9.4578   -5.0200   16.3036 N   0  0  0  0  0  0  0  0  0  0  0  0
    5.0287   -8.9365   16.8223 C   0  0  0  0  0  0  0  0  0  0  0  0
    8.7742   -6.1498   16.6764 C   0  0  0  0  0  0  0  0  0  0  0  0
   10.9418   -3.4032   21.2053 O   0  0  0  0  0  0  0  0  0  0  0  0
    1.4797   -8.6258   16.2950 C   0  0  0  0  0  0  0  0  0  0  0  0
    9.2861   -1.2743   25.3585 C   0  0  0  0  0  0  0  0  0  0  0  0
    1.8892  -10.3985   17.7511 N   0  0  0  0  0  0  0  0  0  0  0  0
    9.6210   -0.6952   24.0976 C   0  0  0  0  0  0  0  0  0  0  0  0
    7.0792   -9.0217   17.1429 C   0  0  0  0  0  0  0  0  0  0  0  0
    3.1713  -10.1816   17.6634 C   0  0  0  0  0  0  0  0  0  0  0  0
    2.7878   -8.3822   16.2137 C   0  0  0  0  0  0  0  0  0  0  0  0
    9.4601   -2.6590   25.6528 C   0  0  0  0  0  0  0  0  0  0  0  0
   10.1182   -1.5672   23.1165 C   0  0  0  0  0  0  0  0  0  0  0  0
    1.0552   -9.6360   17.0650 C   0  0  0  0  0  0  0  0  0  0  0  0
    3.6519   -9.1783   16.9039 C   0  0  0  0  0  0  0  0  0  0  0  0
    7.8675   -7.0096   15.9415 C   0  0  0  0  0  0  0  0  0  0  0  0
    5.9733   -9.6553   17.3832 N   0  0  0  0  0  0  0  0  0  0  0  0
   10.2411   -2.9363   23.4301 C   0  0  0  0  0  0  0  0  0  0  0  0
   10.7288   -3.8197   19.9525 C   0  0  0  0  0  0  0  0  0  0  0  0
   10.1189   -5.0054   19.6987 C   0  0  0  0  0  0  0  0  0  0  0  0
  1  3  4  0
  1  7  4  0
  2 21  4  0
  2 27  4  0
  3  9  4  0
  3 10  4  0
  4  8  4  0
  4 18  4  0
  4 25  1  0
  5  9  4  0
  5 12  4  0
  6 13  1  0
  6 27  1  0
  7 28  4  0
  8 11  4  0
  9 29  4  0
 10 12  4  0
 11 24  1  0
 11 26  4  0
 12 25  1  0
 13 28  1  0
 14 20  4  0
 14 23  4  0
 15 17  4  0
 15 21  4  0
 16 19  4  0
 16 23  4  0
 17 22  4  0
 18 26  4  0
 19 24  4  0
 20 24  4  0
 22 27  4  0
 28 29  4  0
M  END
$$$$

 Created by Python create_sdf_string function

 29 33  0  0  0  0  0  0  0  0999 V2000
   10.7215   -3.3326   17.6437 C   0  0  0  0  0  0  0  0  0  0  0  0
    9.9489   -3.4675   24.6487 N   0  0  0  0  0  0  0  0  0  0  0  0
   10.0172   -4.4740   17.4101 C   0  0  0  0  0  0  0  0  0  0  0  0
    6.9051   -7.9575   16.4222 C   0  0  0  0  0  0  0  0  0  0  0  0
    8.9969   -6.3552   17.9668 N   0  0  0  0  0  0  0  0  0  0  0  0
   10.6702   -3.9051   22.4070 C   0  0  0  0  0  0  0  0  0  0  0  0
   11.0625   -3.0028   18.8894 C   0  0  0  0  0  0  0  0  0  0  0  0
    5.6180   -7.9194   16.1754 O   0  0  0  0  0  0  0  0  0  0  0  0
    9.7259   -5.3080   18.4485 C   0  0  0  0  0  0  0  0  0  0  0  0
    9.4578   -5.0200   16.3036 N   0  0  0  0  0  0  0  0  0  0  0  0
    5.0287   -8.9365   16.8223 C   0  0  0  0  0  0  0  0  0  0  0  0
    8.7742   -6.1498   16.6764 C   0  0  0  0  0  0  0  0  0  0  0  0
   10.9418   -3.4032   21.2053 O   0  0  0  0  0  0  0  0  0  0  0  0
    1.4797   -8.6258   16.2950 C   0  0  0  0  0  0  0  0  0  0  0  0
    9.2861   -1.2743   25.3585 C   0  0  0  0  0  0  0  0  0  0  0  0
    1.8892  -10.3985   17.7511 N   0  0  0  0  0  0  0  0  0  0  0  0
    9.6210   -0.6952   24.0976 C   0  0  0  0  0  0  0  0  0  0  0  0
    7.0792   -9.0217   17.1429 C   0  0  0  0  0  0  0  0  0  0  0  0
    3.1713  -10.1816   17.6634 C   0  0  0  0  0  0  0  0  0  0  0  0
    2.7878   -8.3822   16.2137 C   0  0  0  0  0  0  0  0  0  0  0  0
    9.4601   -2.6590   25.6528 C   0  0  0  0  0  0  0  0  0  0  0  0
   10.1182   -1.5672   23.1165 C   0  0  0  0  0  0  0  0  0  0  0  0
    1.0552   -9.6360   17.0650 C   0  0  0  0  0  0  0  0  0  0  0  0
    3.6519   -9.1783   16.9039 C   0  0  0  0  0  0  0  0  0  0  0  0
    7.8675   -7.0096   15.9415 C   0  0  0  0  0  0  0  0  0  0  0  0
    5.9733   -9.6553   17.3832 N   0  0  0  0  0  0  0  0  0  0  0  0
   10.2411   -2.9363   23.4301 C   0  0  0  0  0  0  0  0  0  0  0  0
   10.7288   -3.8197   19.9525 C   0  0  0  0  0  0  0  0  0  0  0  0
   10.1189   -5.0054   19.6987 C   0  0  0  0  0  0  0  0  0  0  0  0
  1  3  4  0
  1  7  4  0
  2 21  4  0
  2 27  4  0
  3  9  4  0
  3 10  4  0
  4  8  4  0
  4 18  4  0
  4 25  1  0
  5  9  4  0
  5 12  4  0
  6 13  1  0
  6 27  1  0
  7 28  4  0
  8 11  4  0
  9 29  4  0
 10 12  4  0
 11 24  1  0
 11 26  4  0
 12 25  1  0
 13 28  1  0
 14 20  4  0
 14 23  4  0
 15 17  4  0
 15 21  4  0
 16 19  4  0
 16 23  4  0
 17 22  4  0
 18 26  4  0
 19 24  4  0
 20 24  4  0
 22 27  4  0
 28 29  4  0
M  END
$$$$

 Created by Python create_sdf_string function

 29 33  0  0  0  0  0  0  0  0999 V2000
   10.7215   -3.3326   17.6437 C   0  0  0  0  0  0  0  0  0  0  0  0
    9.9489   -3.4675   24.6487 N   0  0  0  0  0  0  0  0  0  0  0  0
   10.0172   -4.4740   17.4101 C   0  0  0  0  0  0  0  0  0  0  0  0
    6.9051   -7.9575   16.4222 C   0  0  0  0  0  0  0  0  0  0  0  0
    8.9969   -6.3552   17.9668 N   0  0  0  0  0  0  0  0  0  0  0  0
   10.6702   -3.9051   22.4070 C   0  0  0  0  0  0  0  0  0  0  0  0
   11.0625   -3.0028   18.8894 C   0  0  0  0  0  0  0  0  0  0  0  0
    5.6180   -7.9194   16.1754 O   0  0  0  0  0  0  0  0  0  0  0  0
    9.7259   -5.3080   18.4485 C   0  0  0  0  0  0  0  0  0  0  0  0
    9.4578   -5.0200   16.3036 N   0  0  0  0  0  0  0  0  0  0  0  0
    5.0287   -8.9365   16.8223 C   0  0  0  0  0  0  0  0  0  0  0  0
    8.7742   -6.1498   16.6764 C   0  0  0  0  0  0  0  0  0  0  0  0
   10.9418   -3.4032   21.2053 O   0  0  0  0  0  0  0  0  0  0  0  0
    1.4797   -8.6258   16.2950 C   0  0  0  0  0  0  0  0  0  0  0  0
    9.2861   -1.2743   25.3585 C   0  0  0  0  0  0  0  0  0  0  0  0
    1.8892  -10.3985   17.7511 N   0  0  0  0  0  0  0  0  0  0  0  0
    9.6210   -0.6952   24.0976 C   0  0  0  0  0  0  0  0  0  0  0  0
    7.0792   -9.0217   17.1429 C   0  0  0  0  0  0  0  0  0  0  0  0
    3.1713  -10.1816   17.6634 C   0  0  0  0  0  0  0  0  0  0  0  0
    2.7878   -8.3822   16.2137 C   0  0  0  0  0  0  0  0  0  0  0  0
    9.4601   -2.6590   25.6528 C   0  0  0  0  0  0  0  0  0  0  0  0
   10.1182   -1.5672   23.1165 C   0  0  0  0  0  0  0  0  0  0  0  0
    1.0552   -9.6360   17.0650 C   0  0  0  0  0  0  0  0  0  0  0  0
    3.6519   -9.1783   16.9039 C   0  0  0  0  0  0  0  0  0  0  0  0
    7.8675   -7.0096   15.9415 C   0  0  0  0  0  0  0  0  0  0  0  0
    5.9733   -9.6553   17.3832 N   0  0  0  0  0  0  0  0  0  0  0  0
   10.2411   -2.9363   23.4301 C   0  0  0  0  0  0  0  0  0  0  0  0
   10.7288   -3.8197   19.9525 C   0  0  0  0  0  0  0  0  0  0  0  0
   10.1189   -5.0054   19.6987 C   0  0  0  0  0  0  0  0  0  0  0  0
  1  3  4  0
  1  7  4  0
  2 21  4  0
  2 27  4  0
  3  9  4  0
  3 10  4  0
  4  8  4  0
  4 18  4  0
  4 25  1  0
  5  9  4  0
  5 12  4  0
  6 13  1  0
  6 27  1  0
  7 28  4  0
  8 11  4  0
  9 29  4  0
 10 12  4  0
 11 24  1  0
 11 26  4  0
 12 25  1  0
 13 28  1  0
 14 20  4  0
 14 23  4  0
 15 17  4  0
 15 21  4  0
 16 19  4  0
 16 23  4  0
 17 22  4  0
 18 26  4  0
 19 24  4  0
 20 24  4  0
 22 27  4  0
 28 29  4  0
M  END
$$$$

 Created by Python create_sdf_string function

 29 33  0  0  0  0  0  0  0  0999 V2000
   10.7215   -3.3326   17.6437 C   0  0  0  0  0  0  0  0  0  0  0  0
    9.9489   -3.4675   24.6487 N   0  0  0  0  0  0  0  0  0  0  0  0
   10.0172   -4.4740   17.4101 C   0  0  0  0  0  0  0  0  0  0  0  0
    6.9051   -7.9575   16.4222 C   0  0  0  0  0  0  0  0  0  0  0  0
    8.9969   -6.3552   17.9668 N   0  0  0  0  0  0  0  0  0  0  0  0
   10.6702   -3.9051   22.4070 C   0  0  0  0  0  0  0  0  0  0  0  0
   11.0625   -3.0028   18.8894 C   0  0  0  0  0  0  0  0  0  0  0  0
    5.6180   -7.9194   16.1754 O   0  0  0  0  0  0  0  0  0  0  0  0
    9.7259   -5.3080   18.4485 C   0  0  0  0  0  0  0  0  0  0  0  0
    9.4578   -5.0200   16.3036 N   0  0  0  0  0  0  0  0  0  0  0  0
    5.0287   -8.9365   16.8223 C   0  0  0  0  0  0  0  0  0  0  0  0
    8.7742   -6.1498   16.6764 C   0  0  0  0  0  0  0  0  0  0  0  0
   10.9418   -3.4032   21.2053 O   0  0  0  0  0  0  0  0  0  0  0  0
    1.4797   -8.6258   16.2950 C   0  0  0  0  0  0  0  0  0  0  0  0
    9.2861   -1.2743   25.3585 C   0  0  0  0  0  0  0  0  0  0  0  0
    1.8892  -10.3985   17.7511 N   0  0  0  0  0  0  0  0  0  0  0  0
    9.6210   -0.6952   24.0976 C   0  0  0  0  0  0  0  0  0  0  0  0
    7.0792   -9.0217   17.1429 C   0  0  0  0  0  0  0  0  0  0  0  0
    3.1713  -10.1816   17.6634 C   0  0  0  0  0  0  0  0  0  0  0  0
    2.7878   -8.3822   16.2137 C   0  0  0  0  0  0  0  0  0  0  0  0
    9.4601   -2.6590   25.6528 C   0  0  0  0  0  0  0  0  0  0  0  0
   10.1182   -1.5672   23.1165 C   0  0  0  0  0  0  0  0  0  0  0  0
    1.0552   -9.6360   17.0650 C   0  0  0  0  0  0  0  0  0  0  0  0
    3.6519   -9.1783   16.9039 C   0  0  0  0  0  0  0  0  0  0  0  0
    7.8675   -7.0096   15.9415 C   0  0  0  0  0  0  0  0  0  0  0  0
    5.9733   -9.6553   17.3832 N   0  0  0  0  0  0  0  0  0  0  0  0
   10.2411   -2.9363   23.4301 C   0  0  0  0  0  0  0  0  0  0  0  0
   10.7288   -3.8197   19.9525 C   0  0  0  0  0  0  0  0  0  0  0  0
   10.1189   -5.0054   19.6987 C   0  0  0  0  0  0  0  0  0  0  0  0
  1  3  4  0
  1  7  4  0
  2 21  4  0
  2 27  4  0
  3  9  4  0
  3 10  4  0
  4  8  4  0
  4 18  4  0
  4 25  1  0
  5  9  4  0
  5 12  4  0
  6 13  1  0
  6 27  1  0
  7 28  4  0
  8 11  4  0
  9 29  4  0
 10 12  4  0
 11 24  1  0
 11 26  4  0
 12 25  1  0
 13 28  1  0
 14 20  4  0
 14 23  4  0
 15 17  4  0
 15 21  4  0
 16 19  4  0
 16 23  4  0
 17 22  4  0
 18 26  4  0
 19 24  4  0
 20 24  4  0
 22 27  4  0
 28 29  4  0
M  END
$$$$

 Created by Python create_sdf_string function

 29 33  0  0  0  0  0  0  0  0999 V2000
   10.7215   -3.3326   17.6437 C   0  0  0  0  0  0  0  0  0  0  0  0
    9.9489   -3.4675   24.6487 N   0  0  0  0  0  0  0  0  0  0  0  0
   10.0172   -4.4740   17.4101 C   0  0  0  0  0  0  0  0  0  0  0  0
    6.9051   -7.9575   16.4222 C   0  0  0  0  0  0  0  0  0  0  0  0
    8.9969   -6.3552   17.9668 N   0  0  0  0  0  0  0  0  0  0  0  0
   10.6702   -3.9051   22.4070 C   0  0  0  0  0  0  0  0  0  0  0  0
   11.0625   -3.0028   18.8894 C   0  0  0  0  0  0  0  0  0  0  0  0
    5.6180   -7.9194   16.1754 O   0  0  0  0  0  0  0  0  0  0  0  0
    9.7259   -5.3080   18.4485 C   0  0  0  0  0  0  0  0  0  0  0  0
    9.4578   -5.0200   16.3036 N   0  0  0  0  0  0  0  0  0  0  0  0
    5.0287   -8.9365   16.8223 C   0  0  0  0  0  0  0  0  0  0  0  0
    8.7742   -6.1498   16.6764 C   0  0  0  0  0  0  0  0  0  0  0  0
   10.9418   -3.4032   21.2053 O   0  0  0  0  0  0  0  0  0  0  0  0
    1.4797   -8.6258   16.2950 C   0  0  0  0  0  0  0  0  0  0  0  0
    9.2861   -1.2743   25.3585 C   0  0  0  0  0  0  0  0  0  0  0  0
    1.8892  -10.3985   17.7511 N   0  0  0  0  0  0  0  0  0  0  0  0
    9.6210   -0.6952   24.0976 C   0  0  0  0  0  0  0  0  0  0  0  0
    7.0792   -9.0217   17.1429 C   0  0  0  0  0  0  0  0  0  0  0  0
    3.1713  -10.1816   17.6634 C   0  0  0  0  0  0  0  0  0  0  0  0
    2.7878   -8.3822   16.2137 C   0  0  0  0  0  0  0  0  0  0  0  0
    9.4601   -2.6590   25.6528 C   0  0  0  0  0  0  0  0  0  0  0  0
   10.1182   -1.5672   23.1165 C   0  0  0  0  0  0  0  0  0  0  0  0
    1.0552   -9.6360   17.0650 C   0  0  0  0  0  0  0  0  0  0  0  0
    3.6519   -9.1783   16.9039 C   0  0  0  0  0  0  0  0  0  0  0  0
    7.8675   -7.0096   15.9415 C   0  0  0  0  0  0  0  0  0  0  0  0
    5.9733   -9.6553   17.3832 N   0  0  0  0  0  0  0  0  0  0  0  0
   10.2411   -2.9363   23.4301 C   0  0  0  0  0  0  0  0  0  0  0  0
   10.7288   -3.8197   19.9525 C   0  0  0  0  0  0  0  0  0  0  0  0
   10.1189   -5.0054   19.6987 C   0  0  0  0  0  0  0  0  0  0  0  0
  1  3  4  0
  1  7  4  0
  2 21  4  0
  2 27  4  0
  3  9  4  0
  3 10  4  0
  4  8  4  0
  4 18  4  0
  4 25  1  0
  5  9  4  0
  5 12  4  0
  6 13  1  0
  6 27  1  0
  7 28  4  0
  8 11  4  0
  9 29  4  0
 10 12  4  0
 11 24  1  0
 11 26  4  0
 12 25  1  0
 13 28  1  0
 14 20  4  0
 14 23  4  0
 15 17  4  0
 15 21  4  0
 16 19  4  0
 16 23  4  0
 17 22  4  0
 18 26  4  0
 19 24  4  0
 20 24  4  0
 22 27  4  0
 28 29  4  0
M  END
$$$$

 Created by Python create_sdf_string function

 29 33  0  0  0  0  0  0  0  0999 V2000
   10.7215   -3.3326   17.6437 C   0  0  0  0  0  0  0  0  0  0  0  0
    9.9489   -3.4675   24.6487 N   0  0  0  0  0  0  0  0  0  0  0  0
   10.0172   -4.4740   17.4101 C   0  0  0  0  0  0  0  0  0  0  0  0
    6.9051   -7.9575   16.4222 C   0  0  0  0  0  0  0  0  0  0  0  0
    8.9969   -6.3552   17.9668 N   0  0  0  0  0  0  0  0  0  0  0  0
   10.6702   -3.9051   22.4070 C   0  0  0  0  0  0  0  0  0  0  0  0
   11.0625   -3.0028   18.8894 C   0  0  0  0  0  0  0  0  0  0  0  0
    5.6180   -7.9194   16.1754 O   0  0  0  0  0  0  0  0  0  0  0  0
    9.7259   -5.3080   18.4485 C   0  0  0  0  0  0  0  0  0  0  0  0
    9.4578   -5.0200   16.3036 N   0  0  0  0  0  0  0  0  0  0  0  0
    5.0287   -8.9365   16.8223 C   0  0  0  0  0  0  0  0  0  0  0  0
    8.7742   -6.1498   16.6764 C   0  0  0  0  0  0  0  0  0  0  0  0
   10.9418   -3.4032   21.2053 O   0  0  0  0  0  0  0  0  0  0  0  0
    1.4797   -8.6258   16.2950 C   0  0  0  0  0  0  0  0  0  0  0  0
    9.2861   -1.2743   25.3585 C   0  0  0  0  0  0  0  0  0  0  0  0
    1.8892  -10.3985   17.7511 N   0  0  0  0  0  0  0  0  0  0  0  0
    9.6210   -0.6952   24.0976 C   0  0  0  0  0  0  0  0  0  0  0  0
    7.0792   -9.0217   17.1429 C   0  0  0  0  0  0  0  0  0  0  0  0
    3.1713  -10.1816   17.6634 C   0  0  0  0  0  0  0  0  0  0  0  0
    2.7878   -8.3822   16.2137 C   0  0  0  0  0  0  0  0  0  0  0  0
    9.4601   -2.6590   25.6528 C   0  0  0  0  0  0  0  0  0  0  0  0
   10.1182   -1.5672   23.1165 C   0  0  0  0  0  0  0  0  0  0  0  0
    1.0552   -9.6360   17.0650 C   0  0  0  0  0  0  0  0  0  0  0  0
    3.6519   -9.1783   16.9039 C   0  0  0  0  0  0  0  0  0  0  0  0
    7.8675   -7.0096   15.9415 C   0  0  0  0  0  0  0  0  0  0  0  0
    5.9733   -9.6553   17.3832 N   0  0  0  0  0  0  0  0  0  0  0  0
   10.2411   -2.9363   23.4301 C   0  0  0  0  0  0  0  0  0  0  0  0
   10.7288   -3.8197   19.9525 C   0  0  0  0  0  0  0  0  0  0  0  0
   10.1189   -5.0054   19.6987 C   0  0  0  0  0  0  0  0  0  0  0  0
  1  3  4  0
  1  7  4  0
  2 21  4  0
  2 27  4  0
  3  9  4  0
  3 10  4  0
  4  8  4  0
  4 18  4  0
  4 25  1  0
  5  9  4  0
  5 12  4  0
  6 13  1  0
  6 27  1  0
  7 28  4  0
  8 11  4  0
  9 29  4  0
 10 12  4  0
 11 24  1  0
 11 26  4  0
 12 25  1  0
 13 28  1  0
 14 20  4  0
 14 23  4  0
 15 17  4  0
 15 21  4  0
 16 19  4  0
 16 23  4  0
 17 22  4  0
 18 26  4  0
 19 24  4  0
 20 24  4  0
 22 27  4  0
 28 29  4  0
M  END
$$$$

 Created by Python create_sdf_string function

 29 33  0  0  0  0  0  0  0  0999 V2000
   10.7215   -3.3326   17.6437 C   0  0  0  0  0  0  0  0  0  0  0  0
    9.9489   -3.4675   24.6487 N   0  0  0  0  0  0  0  0  0  0  0  0
   10.0172   -4.4740   17.4101 C   0  0  0  0  0  0  0  0  0  0  0  0
    6.9051   -7.9575   16.4222 C   0  0  0  0  0  0  0  0  0  0  0  0
    8.9969   -6.3552   17.9668 N   0  0  0  0  0  0  0  0  0  0  0  0
   10.6702   -3.9051   22.4070 C   0  0  0  0  0  0  0  0  0  0  0  0
   11.0625   -3.0028   18.8894 C   0  0  0  0  0  0  0  0  0  0  0  0
    5.6180   -7.9194   16.1754 O   0  0  0  0  0  0  0  0  0  0  0  0
    9.7259   -5.3080   18.4485 C   0  0  0  0  0  0  0  0  0  0  0  0
    9.4578   -5.0200   16.3036 N   0  0  0  0  0  0  0  0  0  0  0  0
    5.0287   -8.9365   16.8223 C   0  0  0  0  0  0  0  0  0  0  0  0
    8.7742   -6.1498   16.6764 C   0  0  0  0  0  0  0  0  0  0  0  0
   10.9418   -3.4032   21.2053 O   0  0  0  0  0  0  0  0  0  0  0  0
    1.4797   -8.6258   16.2950 C   0  0  0  0  0  0  0  0  0  0  0  0
    9.2861   -1.2743   25.3585 C   0  0  0  0  0  0  0  0  0  0  0  0
    1.8892  -10.3985   17.7511 N   0  0  0  0  0  0  0  0  0  0  0  0
    9.6210   -0.6952   24.0976 C   0  0  0  0  0  0  0  0  0  0  0  0
    7.0792   -9.0217   17.1429 C   0  0  0  0  0  0  0  0  0  0  0  0
    3.1713  -10.1816   17.6634 C   0  0  0  0  0  0  0  0  0  0  0  0
    2.7878   -8.3822   16.2137 C   0  0  0  0  0  0  0  0  0  0  0  0
    9.4601   -2.6590   25.6528 C   0  0  0  0  0  0  0  0  0  0  0  0
   10.1182   -1.5672   23.1165 C   0  0  0  0  0  0  0  0  0  0  0  0
    1.0552   -9.6360   17.0650 C   0  0  0  0  0  0  0  0  0  0  0  0
    3.6519   -9.1783   16.9039 C   0  0  0  0  0  0  0  0  0  0  0  0
    7.8675   -7.0096   15.9415 C   0  0  0  0  0  0  0  0  0  0  0  0
    5.9733   -9.6553   17.3832 N   0  0  0  0  0  0  0  0  0  0  0  0
   10.2411   -2.9363   23.4301 C   0  0  0  0  0  0  0  0  0  0  0  0
   10.7288   -3.8197   19.9525 C   0  0  0  0  0  0  0  0  0  0  0  0
   10.1189   -5.0054   19.6987 C   0  0  0  0  0  0  0  0  0  0  0  0
  1  3  4  0
  1  7  4  0
  2 21  4  0
  2 27  4  0
  3  9  4  0
  3 10  4  0
  4  8  4  0
  4 18  4  0
  4 25  1  0
  5  9  4  0
  5 12  4  0
  6 13  1  0
  6 27  1  0
  7 28  4  0
  8 11  4  0
  9 29  4  0
 10 12  4  0
 11 24  1  0
 11 26  4  0
 12 25  1  0
 13 28  1  0
 14 20  4  0
 14 23  4  0
 15 17  4  0
 15 21  4  0
 16 19  4  0
 16 23  4  0
 17 22  4  0
 18 26  4  0
 19 24  4  0
 20 24  4  0
 22 27  4  0
 28 29  4  0
M  END
$$$$

 Created by Python create_sdf_string function

 29 33  0  0  0  0  0  0  0  0999 V2000
   10.7215   -3.3326   17.6437 C   0  0  0  0  0  0  0  0  0  0  0  0
    9.9489   -3.4675   24.6487 N   0  0  0  0  0  0  0  0  0  0  0  0
   10.0172   -4.4740   17.4101 C   0  0  0  0  0  0  0  0  0  0  0  0
    6.9051   -7.9575   16.4222 C   0  0  0  0  0  0  0  0  0  0  0  0
    8.9969   -6.3552   17.9668 N   0  0  0  0  0  0  0  0  0  0  0  0
   10.6702   -3.9051   22.4070 C   0  0  0  0  0  0  0  0  0  0  0  0
   11.0625   -3.0028   18.8894 C   0  0  0  0  0  0  0  0  0  0  0  0
    5.6180   -7.9194   16.1754 O   0  0  0  0  0  0  0  0  0  0  0  0
    9.7259   -5.3080   18.4485 C   0  0  0  0  0  0  0  0  0  0  0  0
    9.4578   -5.0200   16.3036 N   0  0  0  0  0  0  0  0  0  0  0  0
    5.0287   -8.9365   16.8223 C   0  0  0  0  0  0  0  0  0  0  0  0
    8.7742   -6.1498   16.6764 C   0  0  0  0  0  0  0  0  0  0  0  0
   10.9418   -3.4032   21.2053 O   0  0  0  0  0  0  0  0  0  0  0  0
    1.4797   -8.6258   16.2950 C   0  0  0  0  0  0  0  0  0  0  0  0
    9.2861   -1.2743   25.3585 C   0  0  0  0  0  0  0  0  0  0  0  0
    1.8892  -10.3985   17.7511 N   0  0  0  0  0  0  0  0  0  0  0  0
    9.6210   -0.6952   24.0976 C   0  0  0  0  0  0  0  0  0  0  0  0
    7.0792   -9.0217   17.1429 C   0  0  0  0  0  0  0  0  0  0  0  0
    3.1713  -10.1816   17.6634 C   0  0  0  0  0  0  0  0  0  0  0  0
    2.7878   -8.3822   16.2137 C   0  0  0  0  0  0  0  0  0  0  0  0
    9.4601   -2.6590   25.6528 C   0  0  0  0  0  0  0  0  0  0  0  0
   10.1182   -1.5672   23.1165 C   0  0  0  0  0  0  0  0  0  0  0  0
    1.0552   -9.6360   17.0650 C   0  0  0  0  0  0  0  0  0  0  0  0
    3.6519   -9.1783   16.9039 C   0  0  0  0  0  0  0  0  0  0  0  0
    7.8675   -7.0096   15.9415 C   0  0  0  0  0  0  0  0  0  0  0  0
    5.9733   -9.6553   17.3832 N   0  0  0  0  0  0  0  0  0  0  0  0
   10.2411   -2.9363   23.4301 C   0  0  0  0  0  0  0  0  0  0  0  0
   10.7288   -3.8197   19.9525 C   0  0  0  0  0  0  0  0  0  0  0  0
   10.1189   -5.0054   19.6987 C   0  0  0  0  0  0  0  0  0  0  0  0
  1  3  4  0
  1  7  4  0
  2 21  4  0
  2 27  4  0
  3  9  4  0
  3 10  4  0
  4  8  4  0
  4 18  4  0
  4 25  1  0
  5  9  4  0
  5 12  4  0
  6 13  1  0
  6 27  1  0
  7 28  4  0
  8 11  4  0
  9 29  4  0
 10 12  4  0
 11 24  1  0
 11 26  4  0
 12 25  1  0
 13 28  1  0
 14 20  4  0
 14 23  4  0
 15 17  4  0
 15 21  4  0
 16 19  4  0
 16 23  4  0
 17 22  4  0
 18 26  4  0
 19 24  4  0
 20 24  4  0
 22 27  4  0
 28 29  4  0
M  END
$$$$

 Created by Python create_sdf_string function

 29 33  0  0  0  0  0  0  0  0999 V2000
   10.7215   -3.3326   17.6437 C   0  0  0  0  0  0  0  0  0  0  0  0
    9.9489   -3.4675   24.6487 N   0  0  0  0  0  0  0  0  0  0  0  0
   10.0172   -4.4740   17.4101 C   0  0  0  0  0  0  0  0  0  0  0  0
    6.9051   -7.9575   16.4222 C   0  0  0  0  0  0  0  0  0  0  0  0
    8.9969   -6.3552   17.9668 N   0  0  0  0  0  0  0  0  0  0  0  0
   10.6702   -3.9051   22.4070 C   0  0  0  0  0  0  0  0  0  0  0  0
   11.0625   -3.0028   18.8894 C   0  0  0  0  0  0  0  0  0  0  0  0
    5.6180   -7.9194   16.1754 O   0  0  0  0  0  0  0  0  0  0  0  0
    9.7259   -5.3080   18.4485 C   0  0  0  0  0  0  0  0  0  0  0  0
    9.4578   -5.0200   16.3036 N   0  0  0  0  0  0  0  0  0  0  0  0
    5.0287   -8.9365   16.8223 C   0  0  0  0  0  0  0  0  0  0  0  0
    8.7742   -6.1498   16.6764 C   0  0  0  0  0  0  0  0  0  0  0  0
   10.9418   -3.4032   21.2053 O   0  0  0  0  0  0  0  0  0  0  0  0
    1.4797   -8.6258   16.2950 C   0  0  0  0  0  0  0  0  0  0  0  0
    9.2861   -1.2743   25.3585 C   0  0  0  0  0  0  0  0  0  0  0  0
    1.8892  -10.3985   17.7511 N   0  0  0  0  0  0  0  0  0  0  0  0
    9.6210   -0.6952   24.0976 C   0  0  0  0  0  0  0  0  0  0  0  0
    7.0792   -9.0217   17.1429 C   0  0  0  0  0  0  0  0  0  0  0  0
    3.1713  -10.1816   17.6634 C   0  0  0  0  0  0  0  0  0  0  0  0
    2.7878   -8.3822   16.2137 C   0  0  0  0  0  0  0  0  0  0  0  0
    9.4601   -2.6590   25.6528 C   0  0  0  0  0  0  0  0  0  0  0  0
   10.1182   -1.5672   23.1165 C   0  0  0  0  0  0  0  0  0  0  0  0
    1.0552   -9.6360   17.0650 C   0  0  0  0  0  0  0  0  0  0  0  0
    3.6519   -9.1783   16.9039 C   0  0  0  0  0  0  0  0  0  0  0  0
    7.8675   -7.0096   15.9415 C   0  0  0  0  0  0  0  0  0  0  0  0
    5.9733   -9.6553   17.3832 N   0  0  0  0  0  0  0  0  0  0  0  0
   10.2411   -2.9363   23.4301 C   0  0  0  0  0  0  0  0  0  0  0  0
   10.7288   -3.8197   19.9525 C   0  0  0  0  0  0  0  0  0  0  0  0
   10.1189   -5.0054   19.6987 C   0  0  0  0  0  0  0  0  0  0  0  0
  1  3  4  0
  1  7  4  0
  2 21  4  0
  2 27  4  0
  3  9  4  0
  3 10  4  0
  4  8  4  0
  4 18  4  0
  4 25  1  0
  5  9  4  0
  5 12  4  0
  6 13  1  0
  6 27  1  0
  7 28  4  0
  8 11  4  0
  9 29  4  0
 10 12  4  0
 11 24  1  0
 11 26  4  0
 12 25  1  0
 13 28  1  0
 14 20  4  0
 14 23  4  0
 15 17  4  0
 15 21  4  0
 16 19  4  0
 16 23  4  0
 17 22  4  0
 18 26  4  0
 19 24  4  0
 20 24  4  0
 22 27  4  0
 28 29  4  0
M  END
$$$$

 Created by Python create_sdf_string function

 29 33  0  0  0  0  0  0  0  0999 V2000
   10.7215   -3.3326   17.6437 C   0  0  0  0  0  0  0  0  0  0  0  0
    9.9489   -3.4675   24.6487 N   0  0  0  0  0  0  0  0  0  0  0  0
   10.0172   -4.4740   17.4101 C   0  0  0  0  0  0  0  0  0  0  0  0
    6.9051   -7.9575   16.4222 C   0  0  0  0  0  0  0  0  0  0  0  0
    8.9969   -6.3552   17.9668 N   0  0  0  0  0  0  0  0  0  0  0  0
   10.6702   -3.9051   22.4070 C   0  0  0  0  0  0  0  0  0  0  0  0
   11.0625   -3.0028   18.8894 C   0  0  0  0  0  0  0  0  0  0  0  0
    5.6180   -7.9194   16.1754 O   0  0  0  0  0  0  0  0  0  0  0  0
    9.7259   -5.3080   18.4485 C   0  0  0  0  0  0  0  0  0  0  0  0
    9.4578   -5.0200   16.3036 N   0  0  0  0  0  0  0  0  0  0  0  0
    5.0287   -8.9365   16.8223 C   0  0  0  0  0  0  0  0  0  0  0  0
    8.7742   -6.1498   16.6764 C   0  0  0  0  0  0  0  0  0  0  0  0
   10.9418   -3.4032   21.2053 O   0  0  0  0  0  0  0  0  0  0  0  0
    1.4797   -8.6258   16.2950 C   0  0  0  0  0  0  0  0  0  0  0  0
    9.2861   -1.2743   25.3585 C   0  0  0  0  0  0  0  0  0  0  0  0
    1.8892  -10.3985   17.7511 N   0  0  0  0  0  0  0  0  0  0  0  0
    9.6210   -0.6952   24.0976 C   0  0  0  0  0  0  0  0  0  0  0  0
    7.0792   -9.0217   17.1429 C   0  0  0  0  0  0  0  0  0  0  0  0
    3.1713  -10.1816   17.6634 C   0  0  0  0  0  0  0  0  0  0  0  0
    2.7878   -8.3822   16.2137 C   0  0  0  0  0  0  0  0  0  0  0  0
    9.4601   -2.6590   25.6528 C   0  0  0  0  0  0  0  0  0  0  0  0
   10.1182   -1.5672   23.1165 C   0  0  0  0  0  0  0  0  0  0  0  0
    1.0552   -9.6360   17.0650 C   0  0  0  0  0  0  0  0  0  0  0  0
    3.6519   -9.1783   16.9039 C   0  0  0  0  0  0  0  0  0  0  0  0
    7.8675   -7.0096   15.9415 C   0  0  0  0  0  0  0  0  0  0  0  0
    5.9733   -9.6553   17.3832 N   0  0  0  0  0  0  0  0  0  0  0  0
   10.2411   -2.9363   23.4301 C   0  0  0  0  0  0  0  0  0  0  0  0
   10.7288   -3.8197   19.9525 C   0  0  0  0  0  0  0  0  0  0  0  0
   10.1189   -5.0054   19.6987 C   0  0  0  0  0  0  0  0  0  0  0  0
  1  3  4  0
  1  7  4  0
  2 21  4  0
  2 27  4  0
  3  9  4  0
  3 10  4  0
  4  8  4  0
  4 18  4  0
  4 25  1  0
  5  9  4  0
  5 12  4  0
  6 13  1  0
  6 27  1  0
  7 28  4  0
  8 11  4  0
  9 29  4  0
 10 12  4  0
 11 24  1  0
 11 26  4  0
 12 25  1  0
 13 28  1  0
 14 20  4  0
 14 23  4  0
 15 17  4  0
 15 21  4  0
 16 19  4  0
 16 23  4  0
 17 22  4  0
 18 26  4  0
 19 24  4  0
 20 24  4  0
 22 27  4  0
 28 29  4  0
M  END
$$$$

 Created by Python create_sdf_string function

 29 33  0  0  0  0  0  0  0  0999 V2000
   10.7215   -3.3326   17.6437 C   0  0  0  0  0  0  0  0  0  0  0  0
    9.9489   -3.4675   24.6487 N   0  0  0  0  0  0  0  0  0  0  0  0
   10.0172   -4.4740   17.4101 C   0  0  0  0  0  0  0  0  0  0  0  0
    6.9051   -7.9575   16.4222 C   0  0  0  0  0  0  0  0  0  0  0  0
    8.9969   -6.3552   17.9668 N   0  0  0  0  0  0  0  0  0  0  0  0
   10.6702   -3.9051   22.4070 C   0  0  0  0  0  0  0  0  0  0  0  0
   11.0625   -3.0028   18.8894 C   0  0  0  0  0  0  0  0  0  0  0  0
    5.6180   -7.9194   16.1754 O   0  0  0  0  0  0  0  0  0  0  0  0
    9.7259   -5.3080   18.4485 C   0  0  0  0  0  0  0  0  0  0  0  0
    9.4578   -5.0200   16.3036 N   0  0  0  0  0  0  0  0  0  0  0  0
    5.0287   -8.9365   16.8223 C   0  0  0  0  0  0  0  0  0  0  0  0
    8.7742   -6.1498   16.6764 C   0  0  0  0  0  0  0  0  0  0  0  0
   10.9418   -3.4032   21.2053 O   0  0  0  0  0  0  0  0  0  0  0  0
    1.4797   -8.6258   16.2950 C   0  0  0  0  0  0  0  0  0  0  0  0
    9.2861   -1.2743   25.3585 C   0  0  0  0  0  0  0  0  0  0  0  0
    1.8892  -10.3985   17.7511 N   0  0  0  0  0  0  0  0  0  0  0  0
    9.6210   -0.6952   24.0976 C   0  0  0  0  0  0  0  0  0  0  0  0
    7.0792   -9.0217   17.1429 C   0  0  0  0  0  0  0  0  0  0  0  0
    3.1713  -10.1816   17.6634 C   0  0  0  0  0  0  0  0  0  0  0  0
    2.7878   -8.3822   16.2137 C   0  0  0  0  0  0  0  0  0  0  0  0
    9.4601   -2.6590   25.6528 C   0  0  0  0  0  0  0  0  0  0  0  0
   10.1182   -1.5672   23.1165 C   0  0  0  0  0  0  0  0  0  0  0  0
    1.0552   -9.6360   17.0650 C   0  0  0  0  0  0  0  0  0  0  0  0
    3.6519   -9.1783   16.9039 C   0  0  0  0  0  0  0  0  0  0  0  0
    7.8675   -7.0096   15.9415 C   0  0  0  0  0  0  0  0  0  0  0  0
    5.9733   -9.6553   17.3832 N   0  0  0  0  0  0  0  0  0  0  0  0
   10.2411   -2.9363   23.4301 C   0  0  0  0  0  0  0  0  0  0  0  0
   10.7288   -3.8197   19.9525 C   0  0  0  0  0  0  0  0  0  0  0  0
   10.1189   -5.0054   19.6987 C   0  0  0  0  0  0  0  0  0  0  0  0
  1  3  4  0
  1  7  4  0
  2 21  4  0
  2 27  4  0
  3  9  4  0
  3 10  4  0
  4  8  4  0
  4 18  4  0
  4 25  1  0
  5  9  4  0
  5 12  4  0
  6 13  1  0
  6 27  1  0
  7 28  4  0
  8 11  4  0
  9 29  4  0
 10 12  4  0
 11 24  1  0
 11 26  4  0
 12 25  1  0
 13 28  1  0
 14 20  4  0
 14 23  4  0
 15 17  4  0
 15 21  4  0
 16 19  4  0
 16 23  4  0
 17 22  4  0
 18 26  4  0
 19 24  4  0
 20 24  4  0
 22 27  4  0
 28 29  4  0
M  END
$$$$

 Created by Python create_sdf_string function

 29 33  0  0  0  0  0  0  0  0999 V2000
   10.7215   -3.3326   17.6437 C   0  0  0  0  0  0  0  0  0  0  0  0
    9.9489   -3.4675   24.6487 N   0  0  0  0  0  0  0  0  0  0  0  0
   10.0172   -4.4740   17.4101 C   0  0  0  0  0  0  0  0  0  0  0  0
    6.9051   -7.9575   16.4222 C   0  0  0  0  0  0  0  0  0  0  0  0
    8.9969   -6.3552   17.9668 N   0  0  0  0  0  0  0  0  0  0  0  0
   10.6702   -3.9051   22.4070 C   0  0  0  0  0  0  0  0  0  0  0  0
   11.0625   -3.0028   18.8894 C   0  0  0  0  0  0  0  0  0  0  0  0
    5.6180   -7.9194   16.1754 O   0  0  0  0  0  0  0  0  0  0  0  0
    9.7259   -5.3080   18.4485 C   0  0  0  0  0  0  0  0  0  0  0  0
    9.4578   -5.0200   16.3036 N   0  0  0  0  0  0  0  0  0  0  0  0
    5.0287   -8.9365   16.8223 C   0  0  0  0  0  0  0  0  0  0  0  0
    8.7742   -6.1498   16.6764 C   0  0  0  0  0  0  0  0  0  0  0  0
   10.9418   -3.4032   21.2053 O   0  0  0  0  0  0  0  0  0  0  0  0
    1.4797   -8.6258   16.2950 C   0  0  0  0  0  0  0  0  0  0  0  0
    9.2861   -1.2743   25.3585 C   0  0  0  0  0  0  0  0  0  0  0  0
    1.8892  -10.3985   17.7511 N   0  0  0  0  0  0  0  0  0  0  0  0
    9.6210   -0.6952   24.0976 C   0  0  0  0  0  0  0  0  0  0  0  0
    7.0792   -9.0217   17.1429 C   0  0  0  0  0  0  0  0  0  0  0  0
    3.1713  -10.1816   17.6634 C   0  0  0  0  0  0  0  0  0  0  0  0
    2.7878   -8.3822   16.2137 C   0  0  0  0  0  0  0  0  0  0  0  0
    9.4601   -2.6590   25.6528 C   0  0  0  0  0  0  0  0  0  0  0  0
   10.1182   -1.5672   23.1165 C   0  0  0  0  0  0  0  0  0  0  0  0
    1.0552   -9.6360   17.0650 C   0  0  0  0  0  0  0  0  0  0  0  0
    3.6519   -9.1783   16.9039 C   0  0  0  0  0  0  0  0  0  0  0  0
    7.8675   -7.0096   15.9415 C   0  0  0  0  0  0  0  0  0  0  0  0
    5.9733   -9.6553   17.3832 N   0  0  0  0  0  0  0  0  0  0  0  0
   10.2411   -2.9363   23.4301 C   0  0  0  0  0  0  0  0  0  0  0  0
   10.7288   -3.8197   19.9525 C   0  0  0  0  0  0  0  0  0  0  0  0
   10.1189   -5.0054   19.6987 C   0  0  0  0  0  0  0  0  0  0  0  0
  1  3  4  0
  1  7  4  0
  2 21  4  0
  2 27  4  0
  3  9  4  0
  3 10  4  0
  4  8  4  0
  4 18  4  0
  4 25  1  0
  5  9  4  0
  5 12  4  0
  6 13  1  0
  6 27  1  0
  7 28  4  0
  8 11  4  0
  9 29  4  0
 10 12  4  0
 11 24  1  0
 11 26  4  0
 12 25  1  0
 13 28  1  0
 14 20  4  0
 14 23  4  0
 15 17  4  0
 15 21  4  0
 16 19  4  0
 16 23  4  0
 17 22  4  0
 18 26  4  0
 19 24  4  0
 20 24  4  0
 22 27  4  0
 28 29  4  0
M  END
$$$$

 Created by Python create_sdf_string function

 29 33  0  0  0  0  0  0  0  0999 V2000
   10.7215   -3.3326   17.6437 C   0  0  0  0  0  0  0  0  0  0  0  0
    9.9489   -3.4675   24.6487 N   0  0  0  0  0  0  0  0  0  0  0  0
   10.0172   -4.4740   17.4101 C   0  0  0  0  0  0  0  0  0  0  0  0
    6.9051   -7.9575   16.4222 C   0  0  0  0  0  0  0  0  0  0  0  0
    8.9969   -6.3552   17.9668 N   0  0  0  0  0  0  0  0  0  0  0  0
   10.6702   -3.9051   22.4070 C   0  0  0  0  0  0  0  0  0  0  0  0
   11.0625   -3.0028   18.8894 C   0  0  0  0  0  0  0  0  0  0  0  0
    5.6180   -7.9194   16.1754 O   0  0  0  0  0  0  0  0  0  0  0  0
    9.7259   -5.3080   18.4485 C   0  0  0  0  0  0  0  0  0  0  0  0
    9.4578   -5.0200   16.3036 N   0  0  0  0  0  0  0  0  0  0  0  0
    5.0287   -8.9365   16.8223 C   0  0  0  0  0  0  0  0  0  0  0  0
    8.7742   -6.1498   16.6764 C   0  0  0  0  0  0  0  0  0  0  0  0
   10.9418   -3.4032   21.2053 O   0  0  0  0  0  0  0  0  0  0  0  0
    1.4797   -8.6258   16.2950 C   0  0  0  0  0  0  0  0  0  0  0  0
    9.2861   -1.2743   25.3585 C   0  0  0  0  0  0  0  0  0  0  0  0
    1.8892  -10.3985   17.7511 N   0  0  0  0  0  0  0  0  0  0  0  0
    9.6210   -0.6952   24.0976 C   0  0  0  0  0  0  0  0  0  0  0  0
    7.0792   -9.0217   17.1429 C   0  0  0  0  0  0  0  0  0  0  0  0
    3.1713  -10.1816   17.6634 C   0  0  0  0  0  0  0  0  0  0  0  0
    2.7878   -8.3822   16.2137 C   0  0  0  0  0  0  0  0  0  0  0  0
    9.4601   -2.6590   25.6528 C   0  0  0  0  0  0  0  0  0  0  0  0
   10.1182   -1.5672   23.1165 C   0  0  0  0  0  0  0  0  0  0  0  0
    1.0552   -9.6360   17.0650 C   0  0  0  0  0  0  0  0  0  0  0  0
    3.6519   -9.1783   16.9039 C   0  0  0  0  0  0  0  0  0  0  0  0
    7.8675   -7.0096   15.9415 C   0  0  0  0  0  0  0  0  0  0  0  0
    5.9733   -9.6553   17.3832 N   0  0  0  0  0  0  0  0  0  0  0  0
   10.2411   -2.9363   23.4301 C   0  0  0  0  0  0  0  0  0  0  0  0
   10.7288   -3.8197   19.9525 C   0  0  0  0  0  0  0  0  0  0  0  0
   10.1189   -5.0054   19.6987 C   0  0  0  0  0  0  0  0  0  0  0  0
  1  3  4  0
  1  7  4  0
  2 21  4  0
  2 27  4  0
  3  9  4  0
  3 10  4  0
  4  8  4  0
  4 18  4  0
  4 25  1  0
  5  9  4  0
  5 12  4  0
  6 13  1  0
  6 27  1  0
  7 28  4  0
  8 11  4  0
  9 29  4  0
 10 12  4  0
 11 24  1  0
 11 26  4  0
 12 25  1  0
 13 28  1  0
 14 20  4  0
 14 23  4  0
 15 17  4  0
 15 21  4  0
 16 19  4  0
 16 23  4  0
 17 22  4  0
 18 26  4  0
 19 24  4  0
 20 24  4  0
 22 27  4  0
 28 29  4  0
M  END
$$$$

 Created by Python create_sdf_string function

 29 33  0  0  0  0  0  0  0  0999 V2000
   10.7215   -3.3326   17.6437 C   0  0  0  0  0  0  0  0  0  0  0  0
    9.9489   -3.4675   24.6487 N   0  0  0  0  0  0  0  0  0  0  0  0
   10.0172   -4.4740   17.4101 C   0  0  0  0  0  0  0  0  0  0  0  0
    6.9051   -7.9575   16.4222 C   0  0  0  0  0  0  0  0  0  0  0  0
    8.9969   -6.3552   17.9668 N   0  0  0  0  0  0  0  0  0  0  0  0
   10.6702   -3.9051   22.4070 C   0  0  0  0  0  0  0  0  0  0  0  0
   11.0625   -3.0028   18.8894 C   0  0  0  0  0  0  0  0  0  0  0  0
    5.6180   -7.9194   16.1754 O   0  0  0  0  0  0  0  0  0  0  0  0
    9.7259   -5.3080   18.4485 C   0  0  0  0  0  0  0  0  0  0  0  0
    9.4578   -5.0200   16.3036 N   0  0  0  0  0  0  0  0  0  0  0  0
    5.0287   -8.9365   16.8223 C   0  0  0  0  0  0  0  0  0  0  0  0
    8.7742   -6.1498   16.6764 C   0  0  0  0  0  0  0  0  0  0  0  0
   10.9418   -3.4032   21.2053 O   0  0  0  0  0  0  0  0  0  0  0  0
    1.4797   -8.6258   16.2950 C   0  0  0  0  0  0  0  0  0  0  0  0
    9.2861   -1.2743   25.3585 C   0  0  0  0  0  0  0  0  0  0  0  0
    1.8892  -10.3985   17.7511 N   0  0  0  0  0  0  0  0  0  0  0  0
    9.6210   -0.6952   24.0976 C   0  0  0  0  0  0  0  0  0  0  0  0
    7.0792   -9.0217   17.1429 C   0  0  0  0  0  0  0  0  0  0  0  0
    3.1713  -10.1816   17.6634 C   0  0  0  0  0  0  0  0  0  0  0  0
    2.7878   -8.3822   16.2137 C   0  0  0  0  0  0  0  0  0  0  0  0
    9.4601   -2.6590   25.6528 C   0  0  0  0  0  0  0  0  0  0  0  0
   10.1182   -1.5672   23.1165 C   0  0  0  0  0  0  0  0  0  0  0  0
    1.0552   -9.6360   17.0650 C   0  0  0  0  0  0  0  0  0  0  0  0
    3.6519   -9.1783   16.9039 C   0  0  0  0  0  0  0  0  0  0  0  0
    7.8675   -7.0096   15.9415 C   0  0  0  0  0  0  0  0  0  0  0  0
    5.9733   -9.6553   17.3832 N   0  0  0  0  0  0  0  0  0  0  0  0
   10.2411   -2.9363   23.4301 C   0  0  0  0  0  0  0  0  0  0  0  0
   10.7288   -3.8197   19.9525 C   0  0  0  0  0  0  0  0  0  0  0  0
   10.1189   -5.0054   19.6987 C   0  0  0  0  0  0  0  0  0  0  0  0
  1  3  4  0
  1  7  4  0
  2 21  4  0
  2 27  4  0
  3  9  4  0
  3 10  4  0
  4  8  4  0
  4 18  4  0
  4 25  1  0
  5  9  4  0
  5 12  4  0
  6 13  1  0
  6 27  1  0
  7 28  4  0
  8 11  4  0
  9 29  4  0
 10 12  4  0
 11 24  1  0
 11 26  4  0
 12 25  1  0
 13 28  1  0
 14 20  4  0
 14 23  4  0
 15 17  4  0
 15 21  4  0
 16 19  4  0
 16 23  4  0
 17 22  4  0
 18 26  4  0
 19 24  4  0
 20 24  4  0
 22 27  4  0
 28 29  4  0
M  END
$$$$

 Created by Python create_sdf_string function

 29 33  0  0  0  0  0  0  0  0999 V2000
   10.7215   -3.3326   17.6437 C   0  0  0  0  0  0  0  0  0  0  0  0
    9.9489   -3.4675   24.6487 N   0  0  0  0  0  0  0  0  0  0  0  0
   10.0172   -4.4740   17.4101 C   0  0  0  0  0  0  0  0  0  0  0  0
    6.9051   -7.9575   16.4222 C   0  0  0  0  0  0  0  0  0  0  0  0
    8.9969   -6.3552   17.9668 N   0  0  0  0  0  0  0  0  0  0  0  0
   10.6702   -3.9051   22.4070 C   0  0  0  0  0  0  0  0  0  0  0  0
   11.0625   -3.0028   18.8894 C   0  0  0  0  0  0  0  0  0  0  0  0
    5.6180   -7.9194   16.1754 O   0  0  0  0  0  0  0  0  0  0  0  0
    9.7259   -5.3080   18.4485 C   0  0  0  0  0  0  0  0  0  0  0  0
    9.4578   -5.0200   16.3036 N   0  0  0  0  0  0  0  0  0  0  0  0
    5.0287   -8.9365   16.8223 C   0  0  0  0  0  0  0  0  0  0  0  0
    8.7742   -6.1498   16.6764 C   0  0  0  0  0  0  0  0  0  0  0  0
   10.9418   -3.4032   21.2053 O   0  0  0  0  0  0  0  0  0  0  0  0
    1.4797   -8.6258   16.2950 C   0  0  0  0  0  0  0  0  0  0  0  0
    9.2861   -1.2743   25.3585 C   0  0  0  0  0  0  0  0  0  0  0  0
    1.8892  -10.3985   17.7511 N   0  0  0  0  0  0  0  0  0  0  0  0
    9.6210   -0.6952   24.0976 C   0  0  0  0  0  0  0  0  0  0  0  0
    7.0792   -9.0217   17.1429 C   0  0  0  0  0  0  0  0  0  0  0  0
    3.1713  -10.1816   17.6634 C   0  0  0  0  0  0  0  0  0  0  0  0
    2.7878   -8.3822   16.2137 C   0  0  0  0  0  0  0  0  0  0  0  0
    9.4601   -2.6590   25.6528 C   0  0  0  0  0  0  0  0  0  0  0  0
   10.1182   -1.5672   23.1165 C   0  0  0  0  0  0  0  0  0  0  0  0
    1.0552   -9.6360   17.0650 C   0  0  0  0  0  0  0  0  0  0  0  0
    3.6519   -9.1783   16.9039 C   0  0  0  0  0  0  0  0  0  0  0  0
    7.8675   -7.0096   15.9415 C   0  0  0  0  0  0  0  0  0  0  0  0
    5.9733   -9.6553   17.3832 N   0  0  0  0  0  0  0  0  0  0  0  0
   10.2411   -2.9363   23.4301 C   0  0  0  0  0  0  0  0  0  0  0  0
   10.7288   -3.8197   19.9525 C   0  0  0  0  0  0  0  0  0  0  0  0
   10.1189   -5.0054   19.6987 C   0  0  0  0  0  0  0  0  0  0  0  0
  1  3  4  0
  1  7  4  0
  2 21  4  0
  2 27  4  0
  3  9  4  0
  3 10  4  0
  4  8  4  0
  4 18  4  0
  4 25  1  0
  5  9  4  0
  5 12  4  0
  6 13  1  0
  6 27  1  0
  7 28  4  0
  8 11  4  0
  9 29  4  0
 10 12  4  0
 11 24  1  0
 11 26  4  0
 12 25  1  0
 13 28  1  0
 14 20  4  0
 14 23  4  0
 15 17  4  0
 15 21  4  0
 16 19  4  0
 16 23  4  0
 17 22  4  0
 18 26  4  0
 19 24  4  0
 20 24  4  0
 22 27  4  0
 28 29  4  0
M  END
$$$$

 Created by Python create_sdf_string function

 29 33  0  0  0  0  0  0  0  0999 V2000
   10.7215   -3.3326   17.6437 C   0  0  0  0  0  0  0  0  0  0  0  0
    9.9489   -3.4675   24.6487 N   0  0  0  0  0  0  0  0  0  0  0  0
   10.0172   -4.4740   17.4101 C   0  0  0  0  0  0  0  0  0  0  0  0
    6.9051   -7.9575   16.4222 C   0  0  0  0  0  0  0  0  0  0  0  0
    8.9969   -6.3552   17.9668 N   0  0  0  0  0  0  0  0  0  0  0  0
   10.6702   -3.9051   22.4070 C   0  0  0  0  0  0  0  0  0  0  0  0
   11.0625   -3.0028   18.8894 C   0  0  0  0  0  0  0  0  0  0  0  0
    5.6180   -7.9194   16.1754 O   0  0  0  0  0  0  0  0  0  0  0  0
    9.7259   -5.3080   18.4485 C   0  0  0  0  0  0  0  0  0  0  0  0
    9.4578   -5.0200   16.3036 N   0  0  0  0  0  0  0  0  0  0  0  0
    5.0287   -8.9365   16.8223 C   0  0  0  0  0  0  0  0  0  0  0  0
    8.7742   -6.1498   16.6764 C   0  0  0  0  0  0  0  0  0  0  0  0
   10.9418   -3.4032   21.2053 O   0  0  0  0  0  0  0  0  0  0  0  0
    1.4797   -8.6258   16.2950 C   0  0  0  0  0  0  0  0  0  0  0  0
    9.2861   -1.2743   25.3585 C   0  0  0  0  0  0  0  0  0  0  0  0
    1.8892  -10.3985   17.7511 N   0  0  0  0  0  0  0  0  0  0  0  0
    9.6210   -0.6952   24.0976 C   0  0  0  0  0  0  0  0  0  0  0  0
    7.0792   -9.0217   17.1429 C   0  0  0  0  0  0  0  0  0  0  0  0
    3.1713  -10.1816   17.6634 C   0  0  0  0  0  0  0  0  0  0  0  0
    2.7878   -8.3822   16.2137 C   0  0  0  0  0  0  0  0  0  0  0  0
    9.4601   -2.6590   25.6528 C   0  0  0  0  0  0  0  0  0  0  0  0
   10.1182   -1.5672   23.1165 C   0  0  0  0  0  0  0  0  0  0  0  0
    1.0552   -9.6360   17.0650 C   0  0  0  0  0  0  0  0  0  0  0  0
    3.6519   -9.1783   16.9039 C   0  0  0  0  0  0  0  0  0  0  0  0
    7.8675   -7.0096   15.9415 C   0  0  0  0  0  0  0  0  0  0  0  0
    5.9733   -9.6553   17.3832 N   0  0  0  0  0  0  0  0  0  0  0  0
   10.2411   -2.9363   23.4301 C   0  0  0  0  0  0  0  0  0  0  0  0
   10.7288   -3.8197   19.9525 C   0  0  0  0  0  0  0  0  0  0  0  0
   10.1189   -5.0054   19.6987 C   0  0  0  0  0  0  0  0  0  0  0  0
  1  3  4  0
  1  7  4  0
  2 21  4  0
  2 27  4  0
  3  9  4  0
  3 10  4  0
  4  8  4  0
  4 18  4  0
  4 25  1  0
  5  9  4  0
  5 12  4  0
  6 13  1  0
  6 27  1  0
  7 28  4  0
  8 11  4  0
  9 29  4  0
 10 12  4  0
 11 24  1  0
 11 26  4  0
 12 25  1  0
 13 28  1  0
 14 20  4  0
 14 23  4  0
 15 17  4  0
 15 21  4  0
 16 19  4  0
 16 23  4  0
 17 22  4  0
 18 26  4  0
 19 24  4  0
 20 24  4  0
 22 27  4  0
 28 29  4  0
M  END
$$$$

 Created by Python create_sdf_string function

 29 33  0  0  0  0  0  0  0  0999 V2000
   10.7215   -3.3326   17.6437 C   0  0  0  0  0  0  0  0  0  0  0  0
    9.9489   -3.4675   24.6487 N   0  0  0  0  0  0  0  0  0  0  0  0
   10.0172   -4.4740   17.4101 C   0  0  0  0  0  0  0  0  0  0  0  0
    6.9051   -7.9575   16.4222 C   0  0  0  0  0  0  0  0  0  0  0  0
    8.9969   -6.3552   17.9668 N   0  0  0  0  0  0  0  0  0  0  0  0
   10.6702   -3.9051   22.4070 C   0  0  0  0  0  0  0  0  0  0  0  0
   11.0625   -3.0028   18.8894 C   0  0  0  0  0  0  0  0  0  0  0  0
    5.6180   -7.9194   16.1754 O   0  0  0  0  0  0  0  0  0  0  0  0
    9.7259   -5.3080   18.4485 C   0  0  0  0  0  0  0  0  0  0  0  0
    9.4578   -5.0200   16.3036 N   0  0  0  0  0  0  0  0  0  0  0  0
    5.0287   -8.9365   16.8223 C   0  0  0  0  0  0  0  0  0  0  0  0
    8.7742   -6.1498   16.6764 C   0  0  0  0  0  0  0  0  0  0  0  0
   10.9418   -3.4032   21.2053 O   0  0  0  0  0  0  0  0  0  0  0  0
    1.4797   -8.6258   16.2950 C   0  0  0  0  0  0  0  0  0  0  0  0
    9.2861   -1.2743   25.3585 C   0  0  0  0  0  0  0  0  0  0  0  0
    1.8892  -10.3985   17.7511 N   0  0  0  0  0  0  0  0  0  0  0  0
    9.6210   -0.6952   24.0976 C   0  0  0  0  0  0  0  0  0  0  0  0
    7.0792   -9.0217   17.1429 C   0  0  0  0  0  0  0  0  0  0  0  0
    3.1713  -10.1816   17.6634 C   0  0  0  0  0  0  0  0  0  0  0  0
    2.7878   -8.3822   16.2137 C   0  0  0  0  0  0  0  0  0  0  0  0
    9.4601   -2.6590   25.6528 C   0  0  0  0  0  0  0  0  0  0  0  0
   10.1182   -1.5672   23.1165 C   0  0  0  0  0  0  0  0  0  0  0  0
    1.0552   -9.6360   17.0650 C   0  0  0  0  0  0  0  0  0  0  0  0
    3.6519   -9.1783   16.9039 C   0  0  0  0  0  0  0  0  0  0  0  0
    7.8675   -7.0096   15.9415 C   0  0  0  0  0  0  0  0  0  0  0  0
    5.9733   -9.6553   17.3832 N   0  0  0  0  0  0  0  0  0  0  0  0
   10.2411   -2.9363   23.4301 C   0  0  0  0  0  0  0  0  0  0  0  0
   10.7288   -3.8197   19.9525 C   0  0  0  0  0  0  0  0  0  0  0  0
   10.1189   -5.0054   19.6987 C   0  0  0  0  0  0  0  0  0  0  0  0
  1  3  4  0
  1  7  4  0
  2 21  4  0
  2 27  4  0
  3  9  4  0
  3 10  4  0
  4  8  4  0
  4 18  4  0
  4 25  1  0
  5  9  4  0
  5 12  4  0
  6 13  1  0
  6 27  1  0
  7 28  4  0
  8 11  4  0
  9 29  4  0
 10 12  4  0
 11 24  1  0
 11 26  4  0
 12 25  1  0
 13 28  1  0
 14 20  4  0
 14 23  4  0
 15 17  4  0
 15 21  4  0
 16 19  4  0
 16 23  4  0
 17 22  4  0
 18 26  4  0
 19 24  4  0
 20 24  4  0
 22 27  4  0
 28 29  4  0
M  END
$$$$

 Created by Python create_sdf_string function

 29 33  0  0  0  0  0  0  0  0999 V2000
   10.7215   -3.3326   17.6437 C   0  0  0  0  0  0  0  0  0  0  0  0
    9.9489   -3.4675   24.6487 N   0  0  0  0  0  0  0  0  0  0  0  0
   10.0172   -4.4740   17.4101 C   0  0  0  0  0  0  0  0  0  0  0  0
    6.9051   -7.9575   16.4222 C   0  0  0  0  0  0  0  0  0  0  0  0
    8.9969   -6.3552   17.9668 N   0  0  0  0  0  0  0  0  0  0  0  0
   10.6702   -3.9051   22.4070 C   0  0  0  0  0  0  0  0  0  0  0  0
   11.0625   -3.0028   18.8894 C   0  0  0  0  0  0  0  0  0  0  0  0
    5.6180   -7.9194   16.1754 O   0  0  0  0  0  0  0  0  0  0  0  0
    9.7259   -5.3080   18.4485 C   0  0  0  0  0  0  0  0  0  0  0  0
    9.4578   -5.0200   16.3036 N   0  0  0  0  0  0  0  0  0  0  0  0
    5.0287   -8.9365   16.8223 C   0  0  0  0  0  0  0  0  0  0  0  0
    8.7742   -6.1498   16.6764 C   0  0  0  0  0  0  0  0  0  0  0  0
   10.9418   -3.4032   21.2053 O   0  0  0  0  0  0  0  0  0  0  0  0
    1.4797   -8.6258   16.2950 C   0  0  0  0  0  0  0  0  0  0  0  0
    9.2861   -1.2743   25.3585 C   0  0  0  0  0  0  0  0  0  0  0  0
    1.8892  -10.3985   17.7511 N   0  0  0  0  0  0  0  0  0  0  0  0
    9.6210   -0.6952   24.0976 C   0  0  0  0  0  0  0  0  0  0  0  0
    7.0792   -9.0217   17.1429 C   0  0  0  0  0  0  0  0  0  0  0  0
    3.1713  -10.1816   17.6634 C   0  0  0  0  0  0  0  0  0  0  0  0
    2.7878   -8.3822   16.2137 C   0  0  0  0  0  0  0  0  0  0  0  0
    9.4601   -2.6590   25.6528 C   0  0  0  0  0  0  0  0  0  0  0  0
   10.1182   -1.5672   23.1165 C   0  0  0  0  0  0  0  0  0  0  0  0
    1.0552   -9.6360   17.0650 C   0  0  0  0  0  0  0  0  0  0  0  0
    3.6519   -9.1783   16.9039 C   0  0  0  0  0  0  0  0  0  0  0  0
    7.8675   -7.0096   15.9415 C   0  0  0  0  0  0  0  0  0  0  0  0
    5.9733   -9.6553   17.3832 N   0  0  0  0  0  0  0  0  0  0  0  0
   10.2411   -2.9363   23.4301 C   0  0  0  0  0  0  0  0  0  0  0  0
   10.7288   -3.8197   19.9525 C   0  0  0  0  0  0  0  0  0  0  0  0
   10.1189   -5.0054   19.6987 C   0  0  0  0  0  0  0  0  0  0  0  0
  1  3  4  0
  1  7  4  0
  2 21  4  0
  2 27  4  0
  3  9  4  0
  3 10  4  0
  4  8  4  0
  4 18  4  0
  4 25  1  0
  5  9  4  0
  5 12  4  0
  6 13  1  0
  6 27  1  0
  7 28  4  0
  8 11  4  0
  9 29  4  0
 10 12  4  0
 11 24  1  0
 11 26  4  0
 12 25  1  0
 13 28  1  0
 14 20  4  0
 14 23  4  0
 15 17  4  0
 15 21  4  0
 16 19  4  0
 16 23  4  0
 17 22  4  0
 18 26  4  0
 19 24  4  0
 20 24  4  0
 22 27  4  0
 28 29  4  0
M  END
$$$$

 Created by Python create_sdf_string function

 29 33  0  0  0  0  0  0  0  0999 V2000
   10.7215   -3.3326   17.6437 C   0  0  0  0  0  0  0  0  0  0  0  0
    9.9489   -3.4675   24.6487 N   0  0  0  0  0  0  0  0  0  0  0  0
   10.0172   -4.4740   17.4101 C   0  0  0  0  0  0  0  0  0  0  0  0
    6.9051   -7.9575   16.4222 C   0  0  0  0  0  0  0  0  0  0  0  0
    8.9969   -6.3552   17.9668 N   0  0  0  0  0  0  0  0  0  0  0  0
   10.6702   -3.9051   22.4070 C   0  0  0  0  0  0  0  0  0  0  0  0
   11.0625   -3.0028   18.8894 C   0  0  0  0  0  0  0  0  0  0  0  0
    5.6180   -7.9194   16.1754 O   0  0  0  0  0  0  0  0  0  0  0  0
    9.7259   -5.3080   18.4485 C   0  0  0  0  0  0  0  0  0  0  0  0
    9.4578   -5.0200   16.3036 N   0  0  0  0  0  0  0  0  0  0  0  0
    5.0287   -8.9365   16.8223 C   0  0  0  0  0  0  0  0  0  0  0  0
    8.7742   -6.1498   16.6764 C   0  0  0  0  0  0  0  0  0  0  0  0
   10.9418   -3.4032   21.2053 O   0  0  0  0  0  0  0  0  0  0  0  0
    1.4797   -8.6258   16.2950 C   0  0  0  0  0  0  0  0  0  0  0  0
    9.2861   -1.2743   25.3585 C   0  0  0  0  0  0  0  0  0  0  0  0
    1.8892  -10.3985   17.7511 N   0  0  0  0  0  0  0  0  0  0  0  0
    9.6210   -0.6952   24.0976 C   0  0  0  0  0  0  0  0  0  0  0  0
    7.0792   -9.0217   17.1429 C   0  0  0  0  0  0  0  0  0  0  0  0
    3.1713  -10.1816   17.6634 C   0  0  0  0  0  0  0  0  0  0  0  0
    2.7878   -8.3822   16.2137 C   0  0  0  0  0  0  0  0  0  0  0  0
    9.4601   -2.6590   25.6528 C   0  0  0  0  0  0  0  0  0  0  0  0
   10.1182   -1.5672   23.1165 C   0  0  0  0  0  0  0  0  0  0  0  0
    1.0552   -9.6360   17.0650 C   0  0  0  0  0  0  0  0  0  0  0  0
    3.6519   -9.1783   16.9039 C   0  0  0  0  0  0  0  0  0  0  0  0
    7.8675   -7.0096   15.9415 C   0  0  0  0  0  0  0  0  0  0  0  0
    5.9733   -9.6553   17.3832 N   0  0  0  0  0  0  0  0  0  0  0  0
   10.2411   -2.9363   23.4301 C   0  0  0  0  0  0  0  0  0  0  0  0
   10.7288   -3.8197   19.9525 C   0  0  0  0  0  0  0  0  0  0  0  0
   10.1189   -5.0054   19.6987 C   0  0  0  0  0  0  0  0  0  0  0  0
  1  3  4  0
  1  7  4  0
  2 21  4  0
  2 27  4  0
  3  9  4  0
  3 10  4  0
  4  8  4  0
  4 18  4  0
  4 25  1  0
  5  9  4  0
  5 12  4  0
  6 13  1  0
  6 27  1  0
  7 28  4  0
  8 11  4  0
  9 29  4  0
 10 12  4  0
 11 24  1  0
 11 26  4  0
 12 25  1  0
 13 28  1  0
 14 20  4  0
 14 23  4  0
 15 17  4  0
 15 21  4  0
 16 19  4  0
 16 23  4  0
 17 22  4  0
 18 26  4  0
 19 24  4  0
 20 24  4  0
 22 27  4  0
 28 29  4  0
M  END
$$$$

 Created by Python create_sdf_string function

 29 33  0  0  0  0  0  0  0  0999 V2000
   10.7215   -3.3326   17.6437 C   0  0  0  0  0  0  0  0  0  0  0  0
    9.9489   -3.4675   24.6487 N   0  0  0  0  0  0  0  0  0  0  0  0
   10.0172   -4.4740   17.4101 C   0  0  0  0  0  0  0  0  0  0  0  0
    6.9051   -7.9575   16.4222 C   0  0  0  0  0  0  0  0  0  0  0  0
    8.9969   -6.3552   17.9668 N   0  0  0  0  0  0  0  0  0  0  0  0
   10.6702   -3.9051   22.4070 C   0  0  0  0  0  0  0  0  0  0  0  0
   11.0625   -3.0028   18.8894 C   0  0  0  0  0  0  0  0  0  0  0  0
    5.6180   -7.9194   16.1754 O   0  0  0  0  0  0  0  0  0  0  0  0
    9.7259   -5.3080   18.4485 C   0  0  0  0  0  0  0  0  0  0  0  0
    9.4578   -5.0200   16.3036 N   0  0  0  0  0  0  0  0  0  0  0  0
    5.0287   -8.9365   16.8223 C   0  0  0  0  0  0  0  0  0  0  0  0
    8.7742   -6.1498   16.6764 C   0  0  0  0  0  0  0  0  0  0  0  0
   10.9418   -3.4032   21.2053 O   0  0  0  0  0  0  0  0  0  0  0  0
    1.4797   -8.6258   16.2950 C   0  0  0  0  0  0  0  0  0  0  0  0
    9.2861   -1.2743   25.3585 C   0  0  0  0  0  0  0  0  0  0  0  0
    1.8892  -10.3985   17.7511 N   0  0  0  0  0  0  0  0  0  0  0  0
    9.6210   -0.6952   24.0976 C   0  0  0  0  0  0  0  0  0  0  0  0
    7.0792   -9.0217   17.1429 C   0  0  0  0  0  0  0  0  0  0  0  0
    3.1713  -10.1816   17.6634 C   0  0  0  0  0  0  0  0  0  0  0  0
    2.7878   -8.3822   16.2137 C   0  0  0  0  0  0  0  0  0  0  0  0
    9.4601   -2.6590   25.6528 C   0  0  0  0  0  0  0  0  0  0  0  0
   10.1182   -1.5672   23.1165 C   0  0  0  0  0  0  0  0  0  0  0  0
    1.0552   -9.6360   17.0650 C   0  0  0  0  0  0  0  0  0  0  0  0
    3.6519   -9.1783   16.9039 C   0  0  0  0  0  0  0  0  0  0  0  0
    7.8675   -7.0096   15.9415 C   0  0  0  0  0  0  0  0  0  0  0  0
    5.9733   -9.6553   17.3832 N   0  0  0  0  0  0  0  0  0  0  0  0
   10.2411   -2.9363   23.4301 C   0  0  0  0  0  0  0  0  0  0  0  0
   10.7288   -3.8197   19.9525 C   0  0  0  0  0  0  0  0  0  0  0  0
   10.1189   -5.0054   19.6987 C   0  0  0  0  0  0  0  0  0  0  0  0
  1  3  4  0
  1  7  4  0
  2 21  4  0
  2 27  4  0
  3  9  4  0
  3 10  4  0
  4  8  4  0
  4 18  4  0
  4 25  1  0
  5  9  4  0
  5 12  4  0
  6 13  1  0
  6 27  1  0
  7 28  4  0
  8 11  4  0
  9 29  4  0
 10 12  4  0
 11 24  1  0
 11 26  4  0
 12 25  1  0
 13 28  1  0
 14 20  4  0
 14 23  4  0
 15 17  4  0
 15 21  4  0
 16 19  4  0
 16 23  4  0
 17 22  4  0
 18 26  4  0
 19 24  4  0
 20 24  4  0
 22 27  4  0
 28 29  4  0
M  END
$$$$

 Created by Python create_sdf_string function

 29 33  0  0  0  0  0  0  0  0999 V2000
   10.7215   -3.3326   17.6437 C   0  0  0  0  0  0  0  0  0  0  0  0
    9.9489   -3.4675   24.6487 N   0  0  0  0  0  0  0  0  0  0  0  0
   10.0172   -4.4740   17.4101 C   0  0  0  0  0  0  0  0  0  0  0  0
    6.9051   -7.9575   16.4222 C   0  0  0  0  0  0  0  0  0  0  0  0
    8.9969   -6.3552   17.9668 N   0  0  0  0  0  0  0  0  0  0  0  0
   10.6702   -3.9051   22.4070 C   0  0  0  0  0  0  0  0  0  0  0  0
   11.0625   -3.0028   18.8894 C   0  0  0  0  0  0  0  0  0  0  0  0
    5.6180   -7.9194   16.1754 O   0  0  0  0  0  0  0  0  0  0  0  0
    9.7259   -5.3080   18.4485 C   0  0  0  0  0  0  0  0  0  0  0  0
    9.4578   -5.0200   16.3036 N   0  0  0  0  0  0  0  0  0  0  0  0
    5.0287   -8.9365   16.8223 C   0  0  0  0  0  0  0  0  0  0  0  0
    8.7742   -6.1498   16.6764 C   0  0  0  0  0  0  0  0  0  0  0  0
   10.9418   -3.4032   21.2053 O   0  0  0  0  0  0  0  0  0  0  0  0
    1.4797   -8.6258   16.2950 C   0  0  0  0  0  0  0  0  0  0  0  0
    9.2861   -1.2743   25.3585 C   0  0  0  0  0  0  0  0  0  0  0  0
    1.8892  -10.3985   17.7511 N   0  0  0  0  0  0  0  0  0  0  0  0
    9.6210   -0.6952   24.0976 C   0  0  0  0  0  0  0  0  0  0  0  0
    7.0792   -9.0217   17.1429 C   0  0  0  0  0  0  0  0  0  0  0  0
    3.1713  -10.1816   17.6634 C   0  0  0  0  0  0  0  0  0  0  0  0
    2.7878   -8.3822   16.2137 C   0  0  0  0  0  0  0  0  0  0  0  0
    9.4601   -2.6590   25.6528 C   0  0  0  0  0  0  0  0  0  0  0  0
   10.1182   -1.5672   23.1165 C   0  0  0  0  0  0  0  0  0  0  0  0
    1.0552   -9.6360   17.0650 C   0  0  0  0  0  0  0  0  0  0  0  0
    3.6519   -9.1783   16.9039 C   0  0  0  0  0  0  0  0  0  0  0  0
    7.8675   -7.0096   15.9415 C   0  0  0  0  0  0  0  0  0  0  0  0
    5.9733   -9.6553   17.3832 N   0  0  0  0  0  0  0  0  0  0  0  0
   10.2411   -2.9363   23.4301 C   0  0  0  0  0  0  0  0  0  0  0  0
   10.7288   -3.8197   19.9525 C   0  0  0  0  0  0  0  0  0  0  0  0
   10.1189   -5.0054   19.6987 C   0  0  0  0  0  0  0  0  0  0  0  0
  1  3  4  0
  1  7  4  0
  2 21  4  0
  2 27  4  0
  3  9  4  0
  3 10  4  0
  4  8  4  0
  4 18  4  0
  4 25  1  0
  5  9  4  0
  5 12  4  0
  6 13  1  0
  6 27  1  0
  7 28  4  0
  8 11  4  0
  9 29  4  0
 10 12  4  0
 11 24  1  0
 11 26  4  0
 12 25  1  0
 13 28  1  0
 14 20  4  0
 14 23  4  0
 15 17  4  0
 15 21  4  0
 16 19  4  0
 16 23  4  0
 17 22  4  0
 18 26  4  0
 19 24  4  0
 20 24  4  0
 22 27  4  0
 28 29  4  0
M  END
$$$$

 Created by Python create_sdf_string function

 29 33  0  0  0  0  0  0  0  0999 V2000
   10.7215   -3.3326   17.6437 C   0  0  0  0  0  0  0  0  0  0  0  0
    9.9489   -3.4675   24.6487 N   0  0  0  0  0  0  0  0  0  0  0  0
   10.0172   -4.4740   17.4101 C   0  0  0  0  0  0  0  0  0  0  0  0
    6.9051   -7.9575   16.4222 C   0  0  0  0  0  0  0  0  0  0  0  0
    8.9969   -6.3552   17.9668 N   0  0  0  0  0  0  0  0  0  0  0  0
   10.6702   -3.9051   22.4070 C   0  0  0  0  0  0  0  0  0  0  0  0
   11.0625   -3.0028   18.8894 C   0  0  0  0  0  0  0  0  0  0  0  0
    5.6180   -7.9194   16.1754 O   0  0  0  0  0  0  0  0  0  0  0  0
    9.7259   -5.3080   18.4485 C   0  0  0  0  0  0  0  0  0  0  0  0
    9.4578   -5.0200   16.3036 N   0  0  0  0  0  0  0  0  0  0  0  0
    5.0287   -8.9365   16.8223 C   0  0  0  0  0  0  0  0  0  0  0  0
    8.7742   -6.1498   16.6764 C   0  0  0  0  0  0  0  0  0  0  0  0
   10.9418   -3.4032   21.2053 O   0  0  0  0  0  0  0  0  0  0  0  0
    1.4797   -8.6258   16.2950 C   0  0  0  0  0  0  0  0  0  0  0  0
    9.2861   -1.2743   25.3585 C   0  0  0  0  0  0  0  0  0  0  0  0
    1.8892  -10.3985   17.7511 N   0  0  0  0  0  0  0  0  0  0  0  0
    9.6210   -0.6952   24.0976 C   0  0  0  0  0  0  0  0  0  0  0  0
    7.0792   -9.0217   17.1429 C   0  0  0  0  0  0  0  0  0  0  0  0
    3.1713  -10.1816   17.6634 C   0  0  0  0  0  0  0  0  0  0  0  0
    2.7878   -8.3822   16.2137 C   0  0  0  0  0  0  0  0  0  0  0  0
    9.4601   -2.6590   25.6528 C   0  0  0  0  0  0  0  0  0  0  0  0
   10.1182   -1.5672   23.1165 C   0  0  0  0  0  0  0  0  0  0  0  0
    1.0552   -9.6360   17.0650 C   0  0  0  0  0  0  0  0  0  0  0  0
    3.6519   -9.1783   16.9039 C   0  0  0  0  0  0  0  0  0  0  0  0
    7.8675   -7.0096   15.9415 C   0  0  0  0  0  0  0  0  0  0  0  0
    5.9733   -9.6553   17.3832 N   0  0  0  0  0  0  0  0  0  0  0  0
   10.2411   -2.9363   23.4301 C   0  0  0  0  0  0  0  0  0  0  0  0
   10.7288   -3.8197   19.9525 C   0  0  0  0  0  0  0  0  0  0  0  0
   10.1189   -5.0054   19.6987 C   0  0  0  0  0  0  0  0  0  0  0  0
  1  3  4  0
  1  7  4  0
  2 21  4  0
  2 27  4  0
  3  9  4  0
  3 10  4  0
  4  8  4  0
  4 18  4  0
  4 25  1  0
  5  9  4  0
  5 12  4  0
  6 13  1  0
  6 27  1  0
  7 28  4  0
  8 11  4  0
  9 29  4  0
 10 12  4  0
 11 24  1  0
 11 26  4  0
 12 25  1  0
 13 28  1  0
 14 20  4  0
 14 23  4  0
 15 17  4  0
 15 21  4  0
 16 19  4  0
 16 23  4  0
 17 22  4  0
 18 26  4  0
 19 24  4  0
 20 24  4  0
 22 27  4  0
 28 29  4  0
M  END
$$$$

 Created by Python create_sdf_string function

 29 33  0  0  0  0  0  0  0  0999 V2000
   10.7215   -3.3326   17.6437 C   0  0  0  0  0  0  0  0  0  0  0  0
    9.9489   -3.4675   24.6487 N   0  0  0  0  0  0  0  0  0  0  0  0
   10.0172   -4.4740   17.4101 C   0  0  0  0  0  0  0  0  0  0  0  0
    6.9051   -7.9575   16.4222 C   0  0  0  0  0  0  0  0  0  0  0  0
    8.9969   -6.3552   17.9668 N   0  0  0  0  0  0  0  0  0  0  0  0
   10.6702   -3.9051   22.4070 C   0  0  0  0  0  0  0  0  0  0  0  0
   11.0625   -3.0028   18.8894 C   0  0  0  0  0  0  0  0  0  0  0  0
    5.6180   -7.9194   16.1754 O   0  0  0  0  0  0  0  0  0  0  0  0
    9.7259   -5.3080   18.4485 C   0  0  0  0  0  0  0  0  0  0  0  0
    9.4578   -5.0200   16.3036 N   0  0  0  0  0  0  0  0  0  0  0  0
    5.0287   -8.9365   16.8223 C   0  0  0  0  0  0  0  0  0  0  0  0
    8.7742   -6.1498   16.6764 C   0  0  0  0  0  0  0  0  0  0  0  0
   10.9418   -3.4032   21.2053 O   0  0  0  0  0  0  0  0  0  0  0  0
    1.4797   -8.6258   16.2950 C   0  0  0  0  0  0  0  0  0  0  0  0
    9.2861   -1.2743   25.3585 C   0  0  0  0  0  0  0  0  0  0  0  0
    1.8892  -10.3985   17.7511 N   0  0  0  0  0  0  0  0  0  0  0  0
    9.6210   -0.6952   24.0976 C   0  0  0  0  0  0  0  0  0  0  0  0
    7.0792   -9.0217   17.1429 C   0  0  0  0  0  0  0  0  0  0  0  0
    3.1713  -10.1816   17.6634 C   0  0  0  0  0  0  0  0  0  0  0  0
    2.7878   -8.3822   16.2137 C   0  0  0  0  0  0  0  0  0  0  0  0
    9.4601   -2.6590   25.6528 C   0  0  0  0  0  0  0  0  0  0  0  0
   10.1182   -1.5672   23.1165 C   0  0  0  0  0  0  0  0  0  0  0  0
    1.0552   -9.6360   17.0650 C   0  0  0  0  0  0  0  0  0  0  0  0
    3.6519   -9.1783   16.9039 C   0  0  0  0  0  0  0  0  0  0  0  0
    7.8675   -7.0096   15.9415 C   0  0  0  0  0  0  0  0  0  0  0  0
    5.9733   -9.6553   17.3832 N   0  0  0  0  0  0  0  0  0  0  0  0
   10.2411   -2.9363   23.4301 C   0  0  0  0  0  0  0  0  0  0  0  0
   10.7288   -3.8197   19.9525 C   0  0  0  0  0  0  0  0  0  0  0  0
   10.1189   -5.0054   19.6987 C   0  0  0  0  0  0  0  0  0  0  0  0
  1  3  4  0
  1  7  4  0
  2 21  4  0
  2 27  4  0
  3  9  4  0
  3 10  4  0
  4  8  4  0
  4 18  4  0
  4 25  1  0
  5  9  4  0
  5 12  4  0
  6 13  1  0
  6 27  1  0
  7 28  4  0
  8 11  4  0
  9 29  4  0
 10 12  4  0
 11 24  1  0
 11 26  4  0
 12 25  1  0
 13 28  1  0
 14 20  4  0
 14 23  4  0
 15 17  4  0
 15 21  4  0
 16 19  4  0
 16 23  4  0
 17 22  4  0
 18 26  4  0
 19 24  4  0
 20 24  4  0
 22 27  4  0
 28 29  4  0
M  END
$$$$

 Created by Python create_sdf_string function

 29 33  0  0  0  0  0  0  0  0999 V2000
   10.7215   -3.3326   17.6437 C   0  0  0  0  0  0  0  0  0  0  0  0
    9.9489   -3.4675   24.6487 N   0  0  0  0  0  0  0  0  0  0  0  0
   10.0172   -4.4740   17.4101 C   0  0  0  0  0  0  0  0  0  0  0  0
    6.9051   -7.9575   16.4222 C   0  0  0  0  0  0  0  0  0  0  0  0
    8.9969   -6.3552   17.9668 N   0  0  0  0  0  0  0  0  0  0  0  0
   10.6702   -3.9051   22.4070 C   0  0  0  0  0  0  0  0  0  0  0  0
   11.0625   -3.0028   18.8894 C   0  0  0  0  0  0  0  0  0  0  0  0
    5.6180   -7.9194   16.1754 O   0  0  0  0  0  0  0  0  0  0  0  0
    9.7259   -5.3080   18.4485 C   0  0  0  0  0  0  0  0  0  0  0  0
    9.4578   -5.0200   16.3036 N   0  0  0  0  0  0  0  0  0  0  0  0
    5.0287   -8.9365   16.8223 C   0  0  0  0  0  0  0  0  0  0  0  0
    8.7742   -6.1498   16.6764 C   0  0  0  0  0  0  0  0  0  0  0  0
   10.9418   -3.4032   21.2053 O   0  0  0  0  0  0  0  0  0  0  0  0
    1.4797   -8.6258   16.2950 C   0  0  0  0  0  0  0  0  0  0  0  0
    9.2861   -1.2743   25.3585 C   0  0  0  0  0  0  0  0  0  0  0  0
    1.8892  -10.3985   17.7511 N   0  0  0  0  0  0  0  0  0  0  0  0
    9.6210   -0.6952   24.0976 C   0  0  0  0  0  0  0  0  0  0  0  0
    7.0792   -9.0217   17.1429 C   0  0  0  0  0  0  0  0  0  0  0  0
    3.1713  -10.1816   17.6634 C   0  0  0  0  0  0  0  0  0  0  0  0
    2.7878   -8.3822   16.2137 C   0  0  0  0  0  0  0  0  0  0  0  0
    9.4601   -2.6590   25.6528 C   0  0  0  0  0  0  0  0  0  0  0  0
   10.1182   -1.5672   23.1165 C   0  0  0  0  0  0  0  0  0  0  0  0
    1.0552   -9.6360   17.0650 C   0  0  0  0  0  0  0  0  0  0  0  0
    3.6519   -9.1783   16.9039 C   0  0  0  0  0  0  0  0  0  0  0  0
    7.8675   -7.0096   15.9415 C   0  0  0  0  0  0  0  0  0  0  0  0
    5.9733   -9.6553   17.3832 N   0  0  0  0  0  0  0  0  0  0  0  0
   10.2411   -2.9363   23.4301 C   0  0  0  0  0  0  0  0  0  0  0  0
   10.7288   -3.8197   19.9525 C   0  0  0  0  0  0  0  0  0  0  0  0
   10.1189   -5.0054   19.6987 C   0  0  0  0  0  0  0  0  0  0  0  0
  1  3  4  0
  1  7  4  0
  2 21  4  0
  2 27  4  0
  3  9  4  0
  3 10  4  0
  4  8  4  0
  4 18  4  0
  4 25  1  0
  5  9  4  0
  5 12  4  0
  6 13  1  0
  6 27  1  0
  7 28  4  0
  8 11  4  0
  9 29  4  0
 10 12  4  0
 11 24  1  0
 11 26  4  0
 12 25  1  0
 13 28  1  0
 14 20  4  0
 14 23  4  0
 15 17  4  0
 15 21  4  0
 16 19  4  0
 16 23  4  0
 17 22  4  0
 18 26  4  0
 19 24  4  0
 20 24  4  0
 22 27  4  0
 28 29  4  0
M  END
$$$$

 Created by Python create_sdf_string function

 29 33  0  0  0  0  0  0  0  0999 V2000
   10.7215   -3.3326   17.6437 C   0  0  0  0  0  0  0  0  0  0  0  0
    9.9489   -3.4675   24.6487 N   0  0  0  0  0  0  0  0  0  0  0  0
   10.0172   -4.4740   17.4101 C   0  0  0  0  0  0  0  0  0  0  0  0
    6.9051   -7.9575   16.4222 C   0  0  0  0  0  0  0  0  0  0  0  0
    8.9969   -6.3552   17.9668 N   0  0  0  0  0  0  0  0  0  0  0  0
   10.6702   -3.9051   22.4070 C   0  0  0  0  0  0  0  0  0  0  0  0
   11.0625   -3.0028   18.8894 C   0  0  0  0  0  0  0  0  0  0  0  0
    5.6180   -7.9194   16.1754 O   0  0  0  0  0  0  0  0  0  0  0  0
    9.7259   -5.3080   18.4485 C   0  0  0  0  0  0  0  0  0  0  0  0
    9.4578   -5.0200   16.3036 N   0  0  0  0  0  0  0  0  0  0  0  0
    5.0287   -8.9365   16.8223 C   0  0  0  0  0  0  0  0  0  0  0  0
    8.7742   -6.1498   16.6764 C   0  0  0  0  0  0  0  0  0  0  0  0
   10.9418   -3.4032   21.2053 O   0  0  0  0  0  0  0  0  0  0  0  0
    1.4797   -8.6258   16.2950 C   0  0  0  0  0  0  0  0  0  0  0  0
    9.2861   -1.2743   25.3585 C   0  0  0  0  0  0  0  0  0  0  0  0
    1.8892  -10.3985   17.7511 N   0  0  0  0  0  0  0  0  0  0  0  0
    9.6210   -0.6952   24.0976 C   0  0  0  0  0  0  0  0  0  0  0  0
    7.0792   -9.0217   17.1429 C   0  0  0  0  0  0  0  0  0  0  0  0
    3.1713  -10.1816   17.6634 C   0  0  0  0  0  0  0  0  0  0  0  0
    2.7878   -8.3822   16.2137 C   0  0  0  0  0  0  0  0  0  0  0  0
    9.4601   -2.6590   25.6528 C   0  0  0  0  0  0  0  0  0  0  0  0
   10.1182   -1.5672   23.1165 C   0  0  0  0  0  0  0  0  0  0  0  0
    1.0552   -9.6360   17.0650 C   0  0  0  0  0  0  0  0  0  0  0  0
    3.6519   -9.1783   16.9039 C   0  0  0  0  0  0  0  0  0  0  0  0
    7.8675   -7.0096   15.9415 C   0  0  0  0  0  0  0  0  0  0  0  0
    5.9733   -9.6553   17.3832 N   0  0  0  0  0  0  0  0  0  0  0  0
   10.2411   -2.9363   23.4301 C   0  0  0  0  0  0  0  0  0  0  0  0
   10.7288   -3.8197   19.9525 C   0  0  0  0  0  0  0  0  0  0  0  0
   10.1189   -5.0054   19.6987 C   0  0  0  0  0  0  0  0  0  0  0  0
  1  3  4  0
  1  7  4  0
  2 21  4  0
  2 27  4  0
  3  9  4  0
  3 10  4  0
  4  8  4  0
  4 18  4  0
  4 25  1  0
  5  9  4  0
  5 12  4  0
  6 13  1  0
  6 27  1  0
  7 28  4  0
  8 11  4  0
  9 29  4  0
 10 12  4  0
 11 24  1  0
 11 26  4  0
 12 25  1  0
 13 28  1  0
 14 20  4  0
 14 23  4  0
 15 17  4  0
 15 21  4  0
 16 19  4  0
 16 23  4  0
 17 22  4  0
 18 26  4  0
 19 24  4  0
 20 24  4  0
 22 27  4  0
 28 29  4  0
M  END
$$$$

 Created by Python create_sdf_string function

 29 33  0  0  0  0  0  0  0  0999 V2000
   10.7215   -3.3326   17.6437 C   0  0  0  0  0  0  0  0  0  0  0  0
    9.9489   -3.4675   24.6487 N   0  0  0  0  0  0  0  0  0  0  0  0
   10.0172   -4.4740   17.4101 C   0  0  0  0  0  0  0  0  0  0  0  0
    6.9051   -7.9575   16.4222 C   0  0  0  0  0  0  0  0  0  0  0  0
    8.9969   -6.3552   17.9668 N   0  0  0  0  0  0  0  0  0  0  0  0
   10.6702   -3.9051   22.4070 C   0  0  0  0  0  0  0  0  0  0  0  0
   11.0625   -3.0028   18.8894 C   0  0  0  0  0  0  0  0  0  0  0  0
    5.6180   -7.9194   16.1754 O   0  0  0  0  0  0  0  0  0  0  0  0
    9.7259   -5.3080   18.4485 C   0  0  0  0  0  0  0  0  0  0  0  0
    9.4578   -5.0200   16.3036 N   0  0  0  0  0  0  0  0  0  0  0  0
    5.0287   -8.9365   16.8223 C   0  0  0  0  0  0  0  0  0  0  0  0
    8.7742   -6.1498   16.6764 C   0  0  0  0  0  0  0  0  0  0  0  0
   10.9418   -3.4032   21.2053 O   0  0  0  0  0  0  0  0  0  0  0  0
    1.4797   -8.6258   16.2950 C   0  0  0  0  0  0  0  0  0  0  0  0
    9.2861   -1.2743   25.3585 C   0  0  0  0  0  0  0  0  0  0  0  0
    1.8892  -10.3985   17.7511 N   0  0  0  0  0  0  0  0  0  0  0  0
    9.6210   -0.6952   24.0976 C   0  0  0  0  0  0  0  0  0  0  0  0
    7.0792   -9.0217   17.1429 C   0  0  0  0  0  0  0  0  0  0  0  0
    3.1713  -10.1816   17.6634 C   0  0  0  0  0  0  0  0  0  0  0  0
    2.7878   -8.3822   16.2137 C   0  0  0  0  0  0  0  0  0  0  0  0
    9.4601   -2.6590   25.6528 C   0  0  0  0  0  0  0  0  0  0  0  0
   10.1182   -1.5672   23.1165 C   0  0  0  0  0  0  0  0  0  0  0  0
    1.0552   -9.6360   17.0650 C   0  0  0  0  0  0  0  0  0  0  0  0
    3.6519   -9.1783   16.9039 C   0  0  0  0  0  0  0  0  0  0  0  0
    7.8675   -7.0096   15.9415 C   0  0  0  0  0  0  0  0  0  0  0  0
    5.9733   -9.6553   17.3832 N   0  0  0  0  0  0  0  0  0  0  0  0
   10.2411   -2.9363   23.4301 C   0  0  0  0  0  0  0  0  0  0  0  0
   10.7288   -3.8197   19.9525 C   0  0  0  0  0  0  0  0  0  0  0  0
   10.1189   -5.0054   19.6987 C   0  0  0  0  0  0  0  0  0  0  0  0
  1  3  4  0
  1  7  4  0
  2 21  4  0
  2 27  4  0
  3  9  4  0
  3 10  4  0
  4  8  4  0
  4 18  4  0
  4 25  1  0
  5  9  4  0
  5 12  4  0
  6 13  1  0
  6 27  1  0
  7 28  4  0
  8 11  4  0
  9 29  4  0
 10 12  4  0
 11 24  1  0
 11 26  4  0
 12 25  1  0
 13 28  1  0
 14 20  4  0
 14 23  4  0
 15 17  4  0
 15 21  4  0
 16 19  4  0
 16 23  4  0
 17 22  4  0
 18 26  4  0
 19 24  4  0
 20 24  4  0
 22 27  4  0
 28 29  4  0
M  END
$$$$

 Created by Python create_sdf_string function

 29 33  0  0  0  0  0  0  0  0999 V2000
   10.7215   -3.3326   17.6437 C   0  0  0  0  0  0  0  0  0  0  0  0
    9.9489   -3.4675   24.6487 N   0  0  0  0  0  0  0  0  0  0  0  0
   10.0172   -4.4740   17.4101 C   0  0  0  0  0  0  0  0  0  0  0  0
    6.9051   -7.9575   16.4222 C   0  0  0  0  0  0  0  0  0  0  0  0
    8.9969   -6.3552   17.9668 N   0  0  0  0  0  0  0  0  0  0  0  0
   10.6702   -3.9051   22.4070 C   0  0  0  0  0  0  0  0  0  0  0  0
   11.0625   -3.0028   18.8894 C   0  0  0  0  0  0  0  0  0  0  0  0
    5.6180   -7.9194   16.1754 O   0  0  0  0  0  0  0  0  0  0  0  0
    9.7259   -5.3080   18.4485 C   0  0  0  0  0  0  0  0  0  0  0  0
    9.4578   -5.0200   16.3036 N   0  0  0  0  0  0  0  0  0  0  0  0
    5.0287   -8.9365   16.8223 C   0  0  0  0  0  0  0  0  0  0  0  0
    8.7742   -6.1498   16.6764 C   0  0  0  0  0  0  0  0  0  0  0  0
   10.9418   -3.4032   21.2053 O   0  0  0  0  0  0  0  0  0  0  0  0
    1.4797   -8.6258   16.2950 C   0  0  0  0  0  0  0  0  0  0  0  0
    9.2861   -1.2743   25.3585 C   0  0  0  0  0  0  0  0  0  0  0  0
    1.8892  -10.3985   17.7511 N   0  0  0  0  0  0  0  0  0  0  0  0
    9.6210   -0.6952   24.0976 C   0  0  0  0  0  0  0  0  0  0  0  0
    7.0792   -9.0217   17.1429 C   0  0  0  0  0  0  0  0  0  0  0  0
    3.1713  -10.1816   17.6634 C   0  0  0  0  0  0  0  0  0  0  0  0
    2.7878   -8.3822   16.2137 C   0  0  0  0  0  0  0  0  0  0  0  0
    9.4601   -2.6590   25.6528 C   0  0  0  0  0  0  0  0  0  0  0  0
   10.1182   -1.5672   23.1165 C   0  0  0  0  0  0  0  0  0  0  0  0
    1.0552   -9.6360   17.0650 C   0  0  0  0  0  0  0  0  0  0  0  0
    3.6519   -9.1783   16.9039 C   0  0  0  0  0  0  0  0  0  0  0  0
    7.8675   -7.0096   15.9415 C   0  0  0  0  0  0  0  0  0  0  0  0
    5.9733   -9.6553   17.3832 N   0  0  0  0  0  0  0  0  0  0  0  0
   10.2411   -2.9363   23.4301 C   0  0  0  0  0  0  0  0  0  0  0  0
   10.7288   -3.8197   19.9525 C   0  0  0  0  0  0  0  0  0  0  0  0
   10.1189   -5.0054   19.6987 C   0  0  0  0  0  0  0  0  0  0  0  0
  1  3  4  0
  1  7  4  0
  2 21  4  0
  2 27  4  0
  3  9  4  0
  3 10  4  0
  4  8  4  0
  4 18  4  0
  4 25  1  0
  5  9  4  0
  5 12  4  0
  6 13  1  0
  6 27  1  0
  7 28  4  0
  8 11  4  0
  9 29  4  0
 10 12  4  0
 11 24  1  0
 11 26  4  0
 12 25  1  0
 13 28  1  0
 14 20  4  0
 14 23  4  0
 15 17  4  0
 15 21  4  0
 16 19  4  0
 16 23  4  0
 17 22  4  0
 18 26  4  0
 19 24  4  0
 20 24  4  0
 22 27  4  0
 28 29  4  0
M  END
$$$$

 Created by Python create_sdf_string function

 29 33  0  0  0  0  0  0  0  0999 V2000
   10.7215   -3.3326   17.6437 C   0  0  0  0  0  0  0  0  0  0  0  0
    9.9489   -3.4675   24.6487 N   0  0  0  0  0  0  0  0  0  0  0  0
   10.0172   -4.4740   17.4101 C   0  0  0  0  0  0  0  0  0  0  0  0
    6.9051   -7.9575   16.4222 C   0  0  0  0  0  0  0  0  0  0  0  0
    8.9969   -6.3552   17.9668 N   0  0  0  0  0  0  0  0  0  0  0  0
   10.6702   -3.9051   22.4070 C   0  0  0  0  0  0  0  0  0  0  0  0
   11.0625   -3.0028   18.8894 C   0  0  0  0  0  0  0  0  0  0  0  0
    5.6180   -7.9194   16.1754 O   0  0  0  0  0  0  0  0  0  0  0  0
    9.7259   -5.3080   18.4485 C   0  0  0  0  0  0  0  0  0  0  0  0
    9.4578   -5.0200   16.3036 N   0  0  0  0  0  0  0  0  0  0  0  0
    5.0287   -8.9365   16.8223 C   0  0  0  0  0  0  0  0  0  0  0  0
    8.7742   -6.1498   16.6764 C   0  0  0  0  0  0  0  0  0  0  0  0
   10.9418   -3.4032   21.2053 O   0  0  0  0  0  0  0  0  0  0  0  0
    1.4797   -8.6258   16.2950 C   0  0  0  0  0  0  0  0  0  0  0  0
    9.2861   -1.2743   25.3585 C   0  0  0  0  0  0  0  0  0  0  0  0
    1.8892  -10.3985   17.7511 N   0  0  0  0  0  0  0  0  0  0  0  0
    9.6210   -0.6952   24.0976 C   0  0  0  0  0  0  0  0  0  0  0  0
    7.0792   -9.0217   17.1429 C   0  0  0  0  0  0  0  0  0  0  0  0
    3.1713  -10.1816   17.6634 C   0  0  0  0  0  0  0  0  0  0  0  0
    2.7878   -8.3822   16.2137 C   0  0  0  0  0  0  0  0  0  0  0  0
    9.4601   -2.6590   25.6528 C   0  0  0  0  0  0  0  0  0  0  0  0
   10.1182   -1.5672   23.1165 C   0  0  0  0  0  0  0  0  0  0  0  0
    1.0552   -9.6360   17.0650 C   0  0  0  0  0  0  0  0  0  0  0  0
    3.6519   -9.1783   16.9039 C   0  0  0  0  0  0  0  0  0  0  0  0
    7.8675   -7.0096   15.9415 C   0  0  0  0  0  0  0  0  0  0  0  0
    5.9733   -9.6553   17.3832 N   0  0  0  0  0  0  0  0  0  0  0  0
   10.2411   -2.9363   23.4301 C   0  0  0  0  0  0  0  0  0  0  0  0
   10.7288   -3.8197   19.9525 C   0  0  0  0  0  0  0  0  0  0  0  0
   10.1189   -5.0054   19.6987 C   0  0  0  0  0  0  0  0  0  0  0  0
  1  3  4  0
  1  7  4  0
  2 21  4  0
  2 27  4  0
  3  9  4  0
  3 10  4  0
  4  8  4  0
  4 18  4  0
  4 25  1  0
  5  9  4  0
  5 12  4  0
  6 13  1  0
  6 27  1  0
  7 28  4  0
  8 11  4  0
  9 29  4  0
 10 12  4  0
 11 24  1  0
 11 26  4  0
 12 25  1  0
 13 28  1  0
 14 20  4  0
 14 23  4  0
 15 17  4  0
 15 21  4  0
 16 19  4  0
 16 23  4  0
 17 22  4  0
 18 26  4  0
 19 24  4  0
 20 24  4  0
 22 27  4  0
 28 29  4  0
M  END
$$$$

 Created by Python create_sdf_string function

 29 33  0  0  0  0  0  0  0  0999 V2000
   10.7215   -3.3326   17.6437 C   0  0  0  0  0  0  0  0  0  0  0  0
    9.9489   -3.4675   24.6487 N   0  0  0  0  0  0  0  0  0  0  0  0
   10.0172   -4.4740   17.4101 C   0  0  0  0  0  0  0  0  0  0  0  0
    6.9051   -7.9575   16.4222 C   0  0  0  0  0  0  0  0  0  0  0  0
    8.9969   -6.3552   17.9668 N   0  0  0  0  0  0  0  0  0  0  0  0
   10.6702   -3.9051   22.4070 C   0  0  0  0  0  0  0  0  0  0  0  0
   11.0625   -3.0028   18.8894 C   0  0  0  0  0  0  0  0  0  0  0  0
    5.6180   -7.9194   16.1754 O   0  0  0  0  0  0  0  0  0  0  0  0
    9.7259   -5.3080   18.4485 C   0  0  0  0  0  0  0  0  0  0  0  0
    9.4578   -5.0200   16.3036 N   0  0  0  0  0  0  0  0  0  0  0  0
    5.0287   -8.9365   16.8223 C   0  0  0  0  0  0  0  0  0  0  0  0
    8.7742   -6.1498   16.6764 C   0  0  0  0  0  0  0  0  0  0  0  0
   10.9418   -3.4032   21.2053 O   0  0  0  0  0  0  0  0  0  0  0  0
    1.4797   -8.6258   16.2950 C   0  0  0  0  0  0  0  0  0  0  0  0
    9.2861   -1.2743   25.3585 C   0  0  0  0  0  0  0  0  0  0  0  0
    1.8892  -10.3985   17.7511 N   0  0  0  0  0  0  0  0  0  0  0  0
    9.6210   -0.6952   24.0976 C   0  0  0  0  0  0  0  0  0  0  0  0
    7.0792   -9.0217   17.1429 C   0  0  0  0  0  0  0  0  0  0  0  0
    3.1713  -10.1816   17.6634 C   0  0  0  0  0  0  0  0  0  0  0  0
    2.7878   -8.3822   16.2137 C   0  0  0  0  0  0  0  0  0  0  0  0
    9.4601   -2.6590   25.6528 C   0  0  0  0  0  0  0  0  0  0  0  0
   10.1182   -1.5672   23.1165 C   0  0  0  0  0  0  0  0  0  0  0  0
    1.0552   -9.6360   17.0650 C   0  0  0  0  0  0  0  0  0  0  0  0
    3.6519   -9.1783   16.9039 C   0  0  0  0  0  0  0  0  0  0  0  0
    7.8675   -7.0096   15.9415 C   0  0  0  0  0  0  0  0  0  0  0  0
    5.9733   -9.6553   17.3832 N   0  0  0  0  0  0  0  0  0  0  0  0
   10.2411   -2.9363   23.4301 C   0  0  0  0  0  0  0  0  0  0  0  0
   10.7288   -3.8197   19.9525 C   0  0  0  0  0  0  0  0  0  0  0  0
   10.1189   -5.0054   19.6987 C   0  0  0  0  0  0  0  0  0  0  0  0
  1  3  4  0
  1  7  4  0
  2 21  4  0
  2 27  4  0
  3  9  4  0
  3 10  4  0
  4  8  4  0
  4 18  4  0
  4 25  1  0
  5  9  4  0
  5 12  4  0
  6 13  1  0
  6 27  1  0
  7 28  4  0
  8 11  4  0
  9 29  4  0
 10 12  4  0
 11 24  1  0
 11 26  4  0
 12 25  1  0
 13 28  1  0
 14 20  4  0
 14 23  4  0
 15 17  4  0
 15 21  4  0
 16 19  4  0
 16 23  4  0
 17 22  4  0
 18 26  4  0
 19 24  4  0
 20 24  4  0
 22 27  4  0
 28 29  4  0
M  END
$$$$

 Created by Python create_sdf_string function

 29 33  0  0  0  0  0  0  0  0999 V2000
   10.7215   -3.3326   17.6437 C   0  0  0  0  0  0  0  0  0  0  0  0
    9.9489   -3.4675   24.6487 N   0  0  0  0  0  0  0  0  0  0  0  0
   10.0172   -4.4740   17.4101 C   0  0  0  0  0  0  0  0  0  0  0  0
    6.9051   -7.9575   16.4222 C   0  0  0  0  0  0  0  0  0  0  0  0
    8.9969   -6.3552   17.9668 N   0  0  0  0  0  0  0  0  0  0  0  0
   10.6702   -3.9051   22.4070 C   0  0  0  0  0  0  0  0  0  0  0  0
   11.0625   -3.0028   18.8894 C   0  0  0  0  0  0  0  0  0  0  0  0
    5.6180   -7.9194   16.1754 O   0  0  0  0  0  0  0  0  0  0  0  0
    9.7259   -5.3080   18.4485 C   0  0  0  0  0  0  0  0  0  0  0  0
    9.4578   -5.0200   16.3036 N   0  0  0  0  0  0  0  0  0  0  0  0
    5.0287   -8.9365   16.8223 C   0  0  0  0  0  0  0  0  0  0  0  0
    8.7742   -6.1498   16.6764 C   0  0  0  0  0  0  0  0  0  0  0  0
   10.9418   -3.4032   21.2053 O   0  0  0  0  0  0  0  0  0  0  0  0
    1.4797   -8.6258   16.2950 C   0  0  0  0  0  0  0  0  0  0  0  0
    9.2861   -1.2743   25.3585 C   0  0  0  0  0  0  0  0  0  0  0  0
    1.8892  -10.3985   17.7511 N   0  0  0  0  0  0  0  0  0  0  0  0
    9.6210   -0.6952   24.0976 C   0  0  0  0  0  0  0  0  0  0  0  0
    7.0792   -9.0217   17.1429 C   0  0  0  0  0  0  0  0  0  0  0  0
    3.1713  -10.1816   17.6634 C   0  0  0  0  0  0  0  0  0  0  0  0
    2.7878   -8.3822   16.2137 C   0  0  0  0  0  0  0  0  0  0  0  0
    9.4601   -2.6590   25.6528 C   0  0  0  0  0  0  0  0  0  0  0  0
   10.1182   -1.5672   23.1165 C   0  0  0  0  0  0  0  0  0  0  0  0
    1.0552   -9.6360   17.0650 C   0  0  0  0  0  0  0  0  0  0  0  0
    3.6519   -9.1783   16.9039 C   0  0  0  0  0  0  0  0  0  0  0  0
    7.8675   -7.0096   15.9415 C   0  0  0  0  0  0  0  0  0  0  0  0
    5.9733   -9.6553   17.3832 N   0  0  0  0  0  0  0  0  0  0  0  0
   10.2411   -2.9363   23.4301 C   0  0  0  0  0  0  0  0  0  0  0  0
   10.7288   -3.8197   19.9525 C   0  0  0  0  0  0  0  0  0  0  0  0
   10.1189   -5.0054   19.6987 C   0  0  0  0  0  0  0  0  0  0  0  0
  1  3  4  0
  1  7  4  0
  2 21  4  0
  2 27  4  0
  3  9  4  0
  3 10  4  0
  4  8  4  0
  4 18  4  0
  4 25  1  0
  5  9  4  0
  5 12  4  0
  6 13  1  0
  6 27  1  0
  7 28  4  0
  8 11  4  0
  9 29  4  0
 10 12  4  0
 11 24  1  0
 11 26  4  0
 12 25  1  0
 13 28  1  0
 14 20  4  0
 14 23  4  0
 15 17  4  0
 15 21  4  0
 16 19  4  0
 16 23  4  0
 17 22  4  0
 18 26  4  0
 19 24  4  0
 20 24  4  0
 22 27  4  0
 28 29  4  0
M  END
$$$$

 Created by Python create_sdf_string function

 29 33  0  0  0  0  0  0  0  0999 V2000
   10.7215   -3.3326   17.6437 C   0  0  0  0  0  0  0  0  0  0  0  0
    9.9489   -3.4675   24.6487 N   0  0  0  0  0  0  0  0  0  0  0  0
   10.0172   -4.4740   17.4101 C   0  0  0  0  0  0  0  0  0  0  0  0
    6.9051   -7.9575   16.4222 C   0  0  0  0  0  0  0  0  0  0  0  0
    8.9969   -6.3552   17.9668 N   0  0  0  0  0  0  0  0  0  0  0  0
   10.6702   -3.9051   22.4070 C   0  0  0  0  0  0  0  0  0  0  0  0
   11.0625   -3.0028   18.8894 C   0  0  0  0  0  0  0  0  0  0  0  0
    5.6180   -7.9194   16.1754 O   0  0  0  0  0  0  0  0  0  0  0  0
    9.7259   -5.3080   18.4485 C   0  0  0  0  0  0  0  0  0  0  0  0
    9.4578   -5.0200   16.3036 N   0  0  0  0  0  0  0  0  0  0  0  0
    5.0287   -8.9365   16.8223 C   0  0  0  0  0  0  0  0  0  0  0  0
    8.7742   -6.1498   16.6764 C   0  0  0  0  0  0  0  0  0  0  0  0
   10.9418   -3.4032   21.2053 O   0  0  0  0  0  0  0  0  0  0  0  0
    1.4797   -8.6258   16.2950 C   0  0  0  0  0  0  0  0  0  0  0  0
    9.2861   -1.2743   25.3585 C   0  0  0  0  0  0  0  0  0  0  0  0
    1.8892  -10.3985   17.7511 N   0  0  0  0  0  0  0  0  0  0  0  0
    9.6210   -0.6952   24.0976 C   0  0  0  0  0  0  0  0  0  0  0  0
    7.0792   -9.0217   17.1429 C   0  0  0  0  0  0  0  0  0  0  0  0
    3.1713  -10.1816   17.6634 C   0  0  0  0  0  0  0  0  0  0  0  0
    2.7878   -8.3822   16.2137 C   0  0  0  0  0  0  0  0  0  0  0  0
    9.4601   -2.6590   25.6528 C   0  0  0  0  0  0  0  0  0  0  0  0
   10.1182   -1.5672   23.1165 C   0  0  0  0  0  0  0  0  0  0  0  0
    1.0552   -9.6360   17.0650 C   0  0  0  0  0  0  0  0  0  0  0  0
    3.6519   -9.1783   16.9039 C   0  0  0  0  0  0  0  0  0  0  0  0
    7.8675   -7.0096   15.9415 C   0  0  0  0  0  0  0  0  0  0  0  0
    5.9733   -9.6553   17.3832 N   0  0  0  0  0  0  0  0  0  0  0  0
   10.2411   -2.9363   23.4301 C   0  0  0  0  0  0  0  0  0  0  0  0
   10.7288   -3.8197   19.9525 C   0  0  0  0  0  0  0  0  0  0  0  0
   10.1189   -5.0054   19.6987 C   0  0  0  0  0  0  0  0  0  0  0  0
  1  3  4  0
  1  7  4  0
  2 21  4  0
  2 27  4  0
  3  9  4  0
  3 10  4  0
  4  8  4  0
  4 18  4  0
  4 25  1  0
  5  9  4  0
  5 12  4  0
  6 13  1  0
  6 27  1  0
  7 28  4  0
  8 11  4  0
  9 29  4  0
 10 12  4  0
 11 24  1  0
 11 26  4  0
 12 25  1  0
 13 28  1  0
 14 20  4  0
 14 23  4  0
 15 17  4  0
 15 21  4  0
 16 19  4  0
 16 23  4  0
 17 22  4  0
 18 26  4  0
 19 24  4  0
 20 24  4  0
 22 27  4  0
 28 29  4  0
M  END
$$$$

 Created by Python create_sdf_string function

 29 33  0  0  0  0  0  0  0  0999 V2000
   10.7215   -3.3326   17.6437 C   0  0  0  0  0  0  0  0  0  0  0  0
    9.9489   -3.4675   24.6487 N   0  0  0  0  0  0  0  0  0  0  0  0
   10.0172   -4.4740   17.4101 C   0  0  0  0  0  0  0  0  0  0  0  0
    6.9051   -7.9575   16.4222 C   0  0  0  0  0  0  0  0  0  0  0  0
    8.9969   -6.3552   17.9668 N   0  0  0  0  0  0  0  0  0  0  0  0
   10.6702   -3.9051   22.4070 C   0  0  0  0  0  0  0  0  0  0  0  0
   11.0625   -3.0028   18.8894 C   0  0  0  0  0  0  0  0  0  0  0  0
    5.6180   -7.9194   16.1754 O   0  0  0  0  0  0  0  0  0  0  0  0
    9.7259   -5.3080   18.4485 C   0  0  0  0  0  0  0  0  0  0  0  0
    9.4578   -5.0200   16.3036 N   0  0  0  0  0  0  0  0  0  0  0  0
    5.0287   -8.9365   16.8223 C   0  0  0  0  0  0  0  0  0  0  0  0
    8.7742   -6.1498   16.6764 C   0  0  0  0  0  0  0  0  0  0  0  0
   10.9418   -3.4032   21.2053 O   0  0  0  0  0  0  0  0  0  0  0  0
    1.4797   -8.6258   16.2950 C   0  0  0  0  0  0  0  0  0  0  0  0
    9.2861   -1.2743   25.3585 C   0  0  0  0  0  0  0  0  0  0  0  0
    1.8892  -10.3985   17.7511 N   0  0  0  0  0  0  0  0  0  0  0  0
    9.6210   -0.6952   24.0976 C   0  0  0  0  0  0  0  0  0  0  0  0
    7.0792   -9.0217   17.1429 C   0  0  0  0  0  0  0  0  0  0  0  0
    3.1713  -10.1816   17.6634 C   0  0  0  0  0  0  0  0  0  0  0  0
    2.7878   -8.3822   16.2137 C   0  0  0  0  0  0  0  0  0  0  0  0
    9.4601   -2.6590   25.6528 C   0  0  0  0  0  0  0  0  0  0  0  0
   10.1182   -1.5672   23.1165 C   0  0  0  0  0  0  0  0  0  0  0  0
    1.0552   -9.6360   17.0650 C   0  0  0  0  0  0  0  0  0  0  0  0
    3.6519   -9.1783   16.9039 C   0  0  0  0  0  0  0  0  0  0  0  0
    7.8675   -7.0096   15.9415 C   0  0  0  0  0  0  0  0  0  0  0  0
    5.9733   -9.6553   17.3832 N   0  0  0  0  0  0  0  0  0  0  0  0
   10.2411   -2.9363   23.4301 C   0  0  0  0  0  0  0  0  0  0  0  0
   10.7288   -3.8197   19.9525 C   0  0  0  0  0  0  0  0  0  0  0  0
   10.1189   -5.0054   19.6987 C   0  0  0  0  0  0  0  0  0  0  0  0
  1  3  4  0
  1  7  4  0
  2 21  4  0
  2 27  4  0
  3  9  4  0
  3 10  4  0
  4  8  4  0
  4 18  4  0
  4 25  1  0
  5  9  4  0
  5 12  4  0
  6 13  1  0
  6 27  1  0
  7 28  4  0
  8 11  4  0
  9 29  4  0
 10 12  4  0
 11 24  1  0
 11 26  4  0
 12 25  1  0
 13 28  1  0
 14 20  4  0
 14 23  4  0
 15 17  4  0
 15 21  4  0
 16 19  4  0
 16 23  4  0
 17 22  4  0
 18 26  4  0
 19 24  4  0
 20 24  4  0
 22 27  4  0
 28 29  4  0
M  END
$$$$

 Created by Python create_sdf_string function

 29 33  0  0  0  0  0  0  0  0999 V2000
   10.7215   -3.3326   17.6437 C   0  0  0  0  0  0  0  0  0  0  0  0
    9.9489   -3.4675   24.6487 N   0  0  0  0  0  0  0  0  0  0  0  0
   10.0172   -4.4740   17.4101 C   0  0  0  0  0  0  0  0  0  0  0  0
    6.9051   -7.9575   16.4222 C   0  0  0  0  0  0  0  0  0  0  0  0
    8.9969   -6.3552   17.9668 N   0  0  0  0  0  0  0  0  0  0  0  0
   10.6702   -3.9051   22.4070 C   0  0  0  0  0  0  0  0  0  0  0  0
   11.0625   -3.0028   18.8894 C   0  0  0  0  0  0  0  0  0  0  0  0
    5.6180   -7.9194   16.1754 O   0  0  0  0  0  0  0  0  0  0  0  0
    9.7259   -5.3080   18.4485 C   0  0  0  0  0  0  0  0  0  0  0  0
    9.4578   -5.0200   16.3036 N   0  0  0  0  0  0  0  0  0  0  0  0
    5.0287   -8.9365   16.8223 C   0  0  0  0  0  0  0  0  0  0  0  0
    8.7742   -6.1498   16.6764 C   0  0  0  0  0  0  0  0  0  0  0  0
   10.9418   -3.4032   21.2053 O   0  0  0  0  0  0  0  0  0  0  0  0
    1.4797   -8.6258   16.2950 C   0  0  0  0  0  0  0  0  0  0  0  0
    9.2861   -1.2743   25.3585 C   0  0  0  0  0  0  0  0  0  0  0  0
    1.8892  -10.3985   17.7511 N   0  0  0  0  0  0  0  0  0  0  0  0
    9.6210   -0.6952   24.0976 C   0  0  0  0  0  0  0  0  0  0  0  0
    7.0792   -9.0217   17.1429 C   0  0  0  0  0  0  0  0  0  0  0  0
    3.1713  -10.1816   17.6634 C   0  0  0  0  0  0  0  0  0  0  0  0
    2.7878   -8.3822   16.2137 C   0  0  0  0  0  0  0  0  0  0  0  0
    9.4601   -2.6590   25.6528 C   0  0  0  0  0  0  0  0  0  0  0  0
   10.1182   -1.5672   23.1165 C   0  0  0  0  0  0  0  0  0  0  0  0
    1.0552   -9.6360   17.0650 C   0  0  0  0  0  0  0  0  0  0  0  0
    3.6519   -9.1783   16.9039 C   0  0  0  0  0  0  0  0  0  0  0  0
    7.8675   -7.0096   15.9415 C   0  0  0  0  0  0  0  0  0  0  0  0
    5.9733   -9.6553   17.3832 N   0  0  0  0  0  0  0  0  0  0  0  0
   10.2411   -2.9363   23.4301 C   0  0  0  0  0  0  0  0  0  0  0  0
   10.7288   -3.8197   19.9525 C   0  0  0  0  0  0  0  0  0  0  0  0
   10.1189   -5.0054   19.6987 C   0  0  0  0  0  0  0  0  0  0  0  0
  1  3  4  0
  1  7  4  0
  2 21  4  0
  2 27  4  0
  3  9  4  0
  3 10  4  0
  4  8  4  0
  4 18  4  0
  4 25  1  0
  5  9  4  0
  5 12  4  0
  6 13  1  0
  6 27  1  0
  7 28  4  0
  8 11  4  0
  9 29  4  0
 10 12  4  0
 11 24  1  0
 11 26  4  0
 12 25  1  0
 13 28  1  0
 14 20  4  0
 14 23  4  0
 15 17  4  0
 15 21  4  0
 16 19  4  0
 16 23  4  0
 17 22  4  0
 18 26  4  0
 19 24  4  0
 20 24  4  0
 22 27  4  0
 28 29  4  0
M  END
$$$$

 Created by Python create_sdf_string function

 29 33  0  0  0  0  0  0  0  0999 V2000
   10.7215   -3.3326   17.6437 C   0  0  0  0  0  0  0  0  0  0  0  0
    9.9489   -3.4675   24.6487 N   0  0  0  0  0  0  0  0  0  0  0  0
   10.0172   -4.4740   17.4101 C   0  0  0  0  0  0  0  0  0  0  0  0
    6.9051   -7.9575   16.4222 C   0  0  0  0  0  0  0  0  0  0  0  0
    8.9969   -6.3552   17.9668 N   0  0  0  0  0  0  0  0  0  0  0  0
   10.6702   -3.9051   22.4070 C   0  0  0  0  0  0  0  0  0  0  0  0
   11.0625   -3.0028   18.8894 C   0  0  0  0  0  0  0  0  0  0  0  0
    5.6180   -7.9194   16.1754 O   0  0  0  0  0  0  0  0  0  0  0  0
    9.7259   -5.3080   18.4485 C   0  0  0  0  0  0  0  0  0  0  0  0
    9.4578   -5.0200   16.3036 N   0  0  0  0  0  0  0  0  0  0  0  0
    5.0287   -8.9365   16.8223 C   0  0  0  0  0  0  0  0  0  0  0  0
    8.7742   -6.1498   16.6764 C   0  0  0  0  0  0  0  0  0  0  0  0
   10.9418   -3.4032   21.2053 O   0  0  0  0  0  0  0  0  0  0  0  0
    1.4797   -8.6258   16.2950 C   0  0  0  0  0  0  0  0  0  0  0  0
    9.2861   -1.2743   25.3585 C   0  0  0  0  0  0  0  0  0  0  0  0
    1.8892  -10.3985   17.7511 N   0  0  0  0  0  0  0  0  0  0  0  0
    9.6210   -0.6952   24.0976 C   0  0  0  0  0  0  0  0  0  0  0  0
    7.0792   -9.0217   17.1429 C   0  0  0  0  0  0  0  0  0  0  0  0
    3.1713  -10.1816   17.6634 C   0  0  0  0  0  0  0  0  0  0  0  0
    2.7878   -8.3822   16.2137 C   0  0  0  0  0  0  0  0  0  0  0  0
    9.4601   -2.6590   25.6528 C   0  0  0  0  0  0  0  0  0  0  0  0
   10.1182   -1.5672   23.1165 C   0  0  0  0  0  0  0  0  0  0  0  0
    1.0552   -9.6360   17.0650 C   0  0  0  0  0  0  0  0  0  0  0  0
    3.6519   -9.1783   16.9039 C   0  0  0  0  0  0  0  0  0  0  0  0
    7.8675   -7.0096   15.9415 C   0  0  0  0  0  0  0  0  0  0  0  0
    5.9733   -9.6553   17.3832 N   0  0  0  0  0  0  0  0  0  0  0  0
   10.2411   -2.9363   23.4301 C   0  0  0  0  0  0  0  0  0  0  0  0
   10.7288   -3.8197   19.9525 C   0  0  0  0  0  0  0  0  0  0  0  0
   10.1189   -5.0054   19.6987 C   0  0  0  0  0  0  0  0  0  0  0  0
  1  3  4  0
  1  7  4  0
  2 21  4  0
  2 27  4  0
  3  9  4  0
  3 10  4  0
  4  8  4  0
  4 18  4  0
  4 25  1  0
  5  9  4  0
  5 12  4  0
  6 13  1  0
  6 27  1  0
  7 28  4  0
  8 11  4  0
  9 29  4  0
 10 12  4  0
 11 24  1  0
 11 26  4  0
 12 25  1  0
 13 28  1  0
 14 20  4  0
 14 23  4  0
 15 17  4  0
 15 21  4  0
 16 19  4  0
 16 23  4  0
 17 22  4  0
 18 26  4  0
 19 24  4  0
 20 24  4  0
 22 27  4  0
 28 29  4  0
M  END
$$$$

 Created by Python create_sdf_string function

 29 33  0  0  0  0  0  0  0  0999 V2000
   10.7215   -3.3326   17.6437 C   0  0  0  0  0  0  0  0  0  0  0  0
    9.9489   -3.4675   24.6487 N   0  0  0  0  0  0  0  0  0  0  0  0
   10.0172   -4.4740   17.4101 C   0  0  0  0  0  0  0  0  0  0  0  0
    6.9051   -7.9575   16.4222 C   0  0  0  0  0  0  0  0  0  0  0  0
    8.9969   -6.3552   17.9668 N   0  0  0  0  0  0  0  0  0  0  0  0
   10.6702   -3.9051   22.4070 C   0  0  0  0  0  0  0  0  0  0  0  0
   11.0625   -3.0028   18.8894 C   0  0  0  0  0  0  0  0  0  0  0  0
    5.6180   -7.9194   16.1754 O   0  0  0  0  0  0  0  0  0  0  0  0
    9.7259   -5.3080   18.4485 C   0  0  0  0  0  0  0  0  0  0  0  0
    9.4578   -5.0200   16.3036 N   0  0  0  0  0  0  0  0  0  0  0  0
    5.0287   -8.9365   16.8223 C   0  0  0  0  0  0  0  0  0  0  0  0
    8.7742   -6.1498   16.6764 C   0  0  0  0  0  0  0  0  0  0  0  0
   10.9418   -3.4032   21.2053 O   0  0  0  0  0  0  0  0  0  0  0  0
    1.4797   -8.6258   16.2950 C   0  0  0  0  0  0  0  0  0  0  0  0
    9.2861   -1.2743   25.3585 C   0  0  0  0  0  0  0  0  0  0  0  0
    1.8892  -10.3985   17.7511 N   0  0  0  0  0  0  0  0  0  0  0  0
    9.6210   -0.6952   24.0976 C   0  0  0  0  0  0  0  0  0  0  0  0
    7.0792   -9.0217   17.1429 C   0  0  0  0  0  0  0  0  0  0  0  0
    3.1713  -10.1816   17.6634 C   0  0  0  0  0  0  0  0  0  0  0  0
    2.7878   -8.3822   16.2137 C   0  0  0  0  0  0  0  0  0  0  0  0
    9.4601   -2.6590   25.6528 C   0  0  0  0  0  0  0  0  0  0  0  0
   10.1182   -1.5672   23.1165 C   0  0  0  0  0  0  0  0  0  0  0  0
    1.0552   -9.6360   17.0650 C   0  0  0  0  0  0  0  0  0  0  0  0
    3.6519   -9.1783   16.9039 C   0  0  0  0  0  0  0  0  0  0  0  0
    7.8675   -7.0096   15.9415 C   0  0  0  0  0  0  0  0  0  0  0  0
    5.9733   -9.6553   17.3832 N   0  0  0  0  0  0  0  0  0  0  0  0
   10.2411   -2.9363   23.4301 C   0  0  0  0  0  0  0  0  0  0  0  0
   10.7288   -3.8197   19.9525 C   0  0  0  0  0  0  0  0  0  0  0  0
   10.1189   -5.0054   19.6987 C   0  0  0  0  0  0  0  0  0  0  0  0
  1  3  4  0
  1  7  4  0
  2 21  4  0
  2 27  4  0
  3  9  4  0
  3 10  4  0
  4  8  4  0
  4 18  4  0
  4 25  1  0
  5  9  4  0
  5 12  4  0
  6 13  1  0
  6 27  1  0
  7 28  4  0
  8 11  4  0
  9 29  4  0
 10 12  4  0
 11 24  1  0
 11 26  4  0
 12 25  1  0
 13 28  1  0
 14 20  4  0
 14 23  4  0
 15 17  4  0
 15 21  4  0
 16 19  4  0
 16 23  4  0
 17 22  4  0
 18 26  4  0
 19 24  4  0
 20 24  4  0
 22 27  4  0
 28 29  4  0
M  END
$$$$

 Created by Python create_sdf_string function

 29 33  0  0  0  0  0  0  0  0999 V2000
   10.7215   -3.3326   17.6437 C   0  0  0  0  0  0  0  0  0  0  0  0
    9.9489   -3.4675   24.6487 N   0  0  0  0  0  0  0  0  0  0  0  0
   10.0172   -4.4740   17.4101 C   0  0  0  0  0  0  0  0  0  0  0  0
    6.9051   -7.9575   16.4222 C   0  0  0  0  0  0  0  0  0  0  0  0
    8.9969   -6.3552   17.9668 N   0  0  0  0  0  0  0  0  0  0  0  0
   10.6702   -3.9051   22.4070 C   0  0  0  0  0  0  0  0  0  0  0  0
   11.0625   -3.0028   18.8894 C   0  0  0  0  0  0  0  0  0  0  0  0
    5.6180   -7.9194   16.1754 O   0  0  0  0  0  0  0  0  0  0  0  0
    9.7259   -5.3080   18.4485 C   0  0  0  0  0  0  0  0  0  0  0  0
    9.4578   -5.0200   16.3036 N   0  0  0  0  0  0  0  0  0  0  0  0
    5.0287   -8.9365   16.8223 C   0  0  0  0  0  0  0  0  0  0  0  0
    8.7742   -6.1498   16.6764 C   0  0  0  0  0  0  0  0  0  0  0  0
   10.9418   -3.4032   21.2053 O   0  0  0  0  0  0  0  0  0  0  0  0
    1.4797   -8.6258   16.2950 C   0  0  0  0  0  0  0  0  0  0  0  0
    9.2861   -1.2743   25.3585 C   0  0  0  0  0  0  0  0  0  0  0  0
    1.8892  -10.3985   17.7511 N   0  0  0  0  0  0  0  0  0  0  0  0
    9.6210   -0.6952   24.0976 C   0  0  0  0  0  0  0  0  0  0  0  0
    7.0792   -9.0217   17.1429 C   0  0  0  0  0  0  0  0  0  0  0  0
    3.1713  -10.1816   17.6634 C   0  0  0  0  0  0  0  0  0  0  0  0
    2.7878   -8.3822   16.2137 C   0  0  0  0  0  0  0  0  0  0  0  0
    9.4601   -2.6590   25.6528 C   0  0  0  0  0  0  0  0  0  0  0  0
   10.1182   -1.5672   23.1165 C   0  0  0  0  0  0  0  0  0  0  0  0
    1.0552   -9.6360   17.0650 C   0  0  0  0  0  0  0  0  0  0  0  0
    3.6519   -9.1783   16.9039 C   0  0  0  0  0  0  0  0  0  0  0  0
    7.8675   -7.0096   15.9415 C   0  0  0  0  0  0  0  0  0  0  0  0
    5.9733   -9.6553   17.3832 N   0  0  0  0  0  0  0  0  0  0  0  0
   10.2411   -2.9363   23.4301 C   0  0  0  0  0  0  0  0  0  0  0  0
   10.7288   -3.8197   19.9525 C   0  0  0  0  0  0  0  0  0  0  0  0
   10.1189   -5.0054   19.6987 C   0  0  0  0  0  0  0  0  0  0  0  0
  1  3  4  0
  1  7  4  0
  2 21  4  0
  2 27  4  0
  3  9  4  0
  3 10  4  0
  4  8  4  0
  4 18  4  0
  4 25  1  0
  5  9  4  0
  5 12  4  0
  6 13  1  0
  6 27  1  0
  7 28  4  0
  8 11  4  0
  9 29  4  0
 10 12  4  0
 11 24  1  0
 11 26  4  0
 12 25  1  0
 13 28  1  0
 14 20  4  0
 14 23  4  0
 15 17  4  0
 15 21  4  0
 16 19  4  0
 16 23  4  0
 17 22  4  0
 18 26  4  0
 19 24  4  0
 20 24  4  0
 22 27  4  0
 28 29  4  0
M  END
$$$$

 Created by Python create_sdf_string function

 29 33  0  0  0  0  0  0  0  0999 V2000
   10.7215   -3.3326   17.6437 C   0  0  0  0  0  0  0  0  0  0  0  0
    9.9489   -3.4675   24.6487 N   0  0  0  0  0  0  0  0  0  0  0  0
   10.0172   -4.4740   17.4101 C   0  0  0  0  0  0  0  0  0  0  0  0
    6.9051   -7.9575   16.4222 C   0  0  0  0  0  0  0  0  0  0  0  0
    8.9969   -6.3552   17.9668 N   0  0  0  0  0  0  0  0  0  0  0  0
   10.6702   -3.9051   22.4070 C   0  0  0  0  0  0  0  0  0  0  0  0
   11.0625   -3.0028   18.8894 C   0  0  0  0  0  0  0  0  0  0  0  0
    5.6180   -7.9194   16.1754 O   0  0  0  0  0  0  0  0  0  0  0  0
    9.7259   -5.3080   18.4485 C   0  0  0  0  0  0  0  0  0  0  0  0
    9.4578   -5.0200   16.3036 N   0  0  0  0  0  0  0  0  0  0  0  0
    5.0287   -8.9365   16.8223 C   0  0  0  0  0  0  0  0  0  0  0  0
    8.7742   -6.1498   16.6764 C   0  0  0  0  0  0  0  0  0  0  0  0
   10.9418   -3.4032   21.2053 O   0  0  0  0  0  0  0  0  0  0  0  0
    1.4797   -8.6258   16.2950 C   0  0  0  0  0  0  0  0  0  0  0  0
    9.2861   -1.2743   25.3585 C   0  0  0  0  0  0  0  0  0  0  0  0
    1.8892  -10.3985   17.7511 N   0  0  0  0  0  0  0  0  0  0  0  0
    9.6210   -0.6952   24.0976 C   0  0  0  0  0  0  0  0  0  0  0  0
    7.0792   -9.0217   17.1429 C   0  0  0  0  0  0  0  0  0  0  0  0
    3.1713  -10.1816   17.6634 C   0  0  0  0  0  0  0  0  0  0  0  0
    2.7878   -8.3822   16.2137 C   0  0  0  0  0  0  0  0  0  0  0  0
    9.4601   -2.6590   25.6528 C   0  0  0  0  0  0  0  0  0  0  0  0
   10.1182   -1.5672   23.1165 C   0  0  0  0  0  0  0  0  0  0  0  0
    1.0552   -9.6360   17.0650 C   0  0  0  0  0  0  0  0  0  0  0  0
    3.6519   -9.1783   16.9039 C   0  0  0  0  0  0  0  0  0  0  0  0
    7.8675   -7.0096   15.9415 C   0  0  0  0  0  0  0  0  0  0  0  0
    5.9733   -9.6553   17.3832 N   0  0  0  0  0  0  0  0  0  0  0  0
   10.2411   -2.9363   23.4301 C   0  0  0  0  0  0  0  0  0  0  0  0
   10.7288   -3.8197   19.9525 C   0  0  0  0  0  0  0  0  0  0  0  0
   10.1189   -5.0054   19.6987 C   0  0  0  0  0  0  0  0  0  0  0  0
  1  3  4  0
  1  7  4  0
  2 21  4  0
  2 27  4  0
  3  9  4  0
  3 10  4  0
  4  8  4  0
  4 18  4  0
  4 25  1  0
  5  9  4  0
  5 12  4  0
  6 13  1  0
  6 27  1  0
  7 28  4  0
  8 11  4  0
  9 29  4  0
 10 12  4  0
 11 24  1  0
 11 26  4  0
 12 25  1  0
 13 28  1  0
 14 20  4  0
 14 23  4  0
 15 17  4  0
 15 21  4  0
 16 19  4  0
 16 23  4  0
 17 22  4  0
 18 26  4  0
 19 24  4  0
 20 24  4  0
 22 27  4  0
 28 29  4  0
M  END
$$$$

 Created by Python create_sdf_string function

 29 33  0  0  0  0  0  0  0  0999 V2000
   10.7215   -3.3326   17.6437 C   0  0  0  0  0  0  0  0  0  0  0  0
    9.9489   -3.4675   24.6487 N   0  0  0  0  0  0  0  0  0  0  0  0
   10.0172   -4.4740   17.4101 C   0  0  0  0  0  0  0  0  0  0  0  0
    6.9051   -7.9575   16.4222 C   0  0  0  0  0  0  0  0  0  0  0  0
    8.9969   -6.3552   17.9668 N   0  0  0  0  0  0  0  0  0  0  0  0
   10.6702   -3.9051   22.4070 C   0  0  0  0  0  0  0  0  0  0  0  0
   11.0625   -3.0028   18.8894 C   0  0  0  0  0  0  0  0  0  0  0  0
    5.6180   -7.9194   16.1754 O   0  0  0  0  0  0  0  0  0  0  0  0
    9.7259   -5.3080   18.4485 C   0  0  0  0  0  0  0  0  0  0  0  0
    9.4578   -5.0200   16.3036 N   0  0  0  0  0  0  0  0  0  0  0  0
    5.0287   -8.9365   16.8223 C   0  0  0  0  0  0  0  0  0  0  0  0
    8.7742   -6.1498   16.6764 C   0  0  0  0  0  0  0  0  0  0  0  0
   10.9418   -3.4032   21.2053 O   0  0  0  0  0  0  0  0  0  0  0  0
    1.4797   -8.6258   16.2950 C   0  0  0  0  0  0  0  0  0  0  0  0
    9.2861   -1.2743   25.3585 C   0  0  0  0  0  0  0  0  0  0  0  0
    1.8892  -10.3985   17.7511 N   0  0  0  0  0  0  0  0  0  0  0  0
    9.6210   -0.6952   24.0976 C   0  0  0  0  0  0  0  0  0  0  0  0
    7.0792   -9.0217   17.1429 C   0  0  0  0  0  0  0  0  0  0  0  0
    3.1713  -10.1816   17.6634 C   0  0  0  0  0  0  0  0  0  0  0  0
    2.7878   -8.3822   16.2137 C   0  0  0  0  0  0  0  0  0  0  0  0
    9.4601   -2.6590   25.6528 C   0  0  0  0  0  0  0  0  0  0  0  0
   10.1182   -1.5672   23.1165 C   0  0  0  0  0  0  0  0  0  0  0  0
    1.0552   -9.6360   17.0650 C   0  0  0  0  0  0  0  0  0  0  0  0
    3.6519   -9.1783   16.9039 C   0  0  0  0  0  0  0  0  0  0  0  0
    7.8675   -7.0096   15.9415 C   0  0  0  0  0  0  0  0  0  0  0  0
    5.9733   -9.6553   17.3832 N   0  0  0  0  0  0  0  0  0  0  0  0
   10.2411   -2.9363   23.4301 C   0  0  0  0  0  0  0  0  0  0  0  0
   10.7288   -3.8197   19.9525 C   0  0  0  0  0  0  0  0  0  0  0  0
   10.1189   -5.0054   19.6987 C   0  0  0  0  0  0  0  0  0  0  0  0
  1  3  4  0
  1  7  4  0
  2 21  4  0
  2 27  4  0
  3  9  4  0
  3 10  4  0
  4  8  4  0
  4 18  4  0
  4 25  1  0
  5  9  4  0
  5 12  4  0
  6 13  1  0
  6 27  1  0
  7 28  4  0
  8 11  4  0
  9 29  4  0
 10 12  4  0
 11 24  1  0
 11 26  4  0
 12 25  1  0
 13 28  1  0
 14 20  4  0
 14 23  4  0
 15 17  4  0
 15 21  4  0
 16 19  4  0
 16 23  4  0
 17 22  4  0
 18 26  4  0
 19 24  4  0
 20 24  4  0
 22 27  4  0
 28 29  4  0
M  END
$$$$

 Created by Python create_sdf_string function

 29 33  0  0  0  0  0  0  0  0999 V2000
   10.7215   -3.3326   17.6437 C   0  0  0  0  0  0  0  0  0  0  0  0
    9.9489   -3.4675   24.6487 N   0  0  0  0  0  0  0  0  0  0  0  0
   10.0172   -4.4740   17.4101 C   0  0  0  0  0  0  0  0  0  0  0  0
    6.9051   -7.9575   16.4222 C   0  0  0  0  0  0  0  0  0  0  0  0
    8.9969   -6.3552   17.9668 N   0  0  0  0  0  0  0  0  0  0  0  0
   10.6702   -3.9051   22.4070 C   0  0  0  0  0  0  0  0  0  0  0  0
   11.0625   -3.0028   18.8894 C   0  0  0  0  0  0  0  0  0  0  0  0
    5.6180   -7.9194   16.1754 O   0  0  0  0  0  0  0  0  0  0  0  0
    9.7259   -5.3080   18.4485 C   0  0  0  0  0  0  0  0  0  0  0  0
    9.4578   -5.0200   16.3036 N   0  0  0  0  0  0  0  0  0  0  0  0
    5.0287   -8.9365   16.8223 C   0  0  0  0  0  0  0  0  0  0  0  0
    8.7742   -6.1498   16.6764 C   0  0  0  0  0  0  0  0  0  0  0  0
   10.9418   -3.4032   21.2053 O   0  0  0  0  0  0  0  0  0  0  0  0
    1.4797   -8.6258   16.2950 C   0  0  0  0  0  0  0  0  0  0  0  0
    9.2861   -1.2743   25.3585 C   0  0  0  0  0  0  0  0  0  0  0  0
    1.8892  -10.3985   17.7511 N   0  0  0  0  0  0  0  0  0  0  0  0
    9.6210   -0.6952   24.0976 C   0  0  0  0  0  0  0  0  0  0  0  0
    7.0792   -9.0217   17.1429 C   0  0  0  0  0  0  0  0  0  0  0  0
    3.1713  -10.1816   17.6634 C   0  0  0  0  0  0  0  0  0  0  0  0
    2.7878   -8.3822   16.2137 C   0  0  0  0  0  0  0  0  0  0  0  0
    9.4601   -2.6590   25.6528 C   0  0  0  0  0  0  0  0  0  0  0  0
   10.1182   -1.5672   23.1165 C   0  0  0  0  0  0  0  0  0  0  0  0
    1.0552   -9.6360   17.0650 C   0  0  0  0  0  0  0  0  0  0  0  0
    3.6519   -9.1783   16.9039 C   0  0  0  0  0  0  0  0  0  0  0  0
    7.8675   -7.0096   15.9415 C   0  0  0  0  0  0  0  0  0  0  0  0
    5.9733   -9.6553   17.3832 N   0  0  0  0  0  0  0  0  0  0  0  0
   10.2411   -2.9363   23.4301 C   0  0  0  0  0  0  0  0  0  0  0  0
   10.7288   -3.8197   19.9525 C   0  0  0  0  0  0  0  0  0  0  0  0
   10.1189   -5.0054   19.6987 C   0  0  0  0  0  0  0  0  0  0  0  0
  1  3  4  0
  1  7  4  0
  2 21  4  0
  2 27  4  0
  3  9  4  0
  3 10  4  0
  4  8  4  0
  4 18  4  0
  4 25  1  0
  5  9  4  0
  5 12  4  0
  6 13  1  0
  6 27  1  0
  7 28  4  0
  8 11  4  0
  9 29  4  0
 10 12  4  0
 11 24  1  0
 11 26  4  0
 12 25  1  0
 13 28  1  0
 14 20  4  0
 14 23  4  0
 15 17  4  0
 15 21  4  0
 16 19  4  0
 16 23  4  0
 17 22  4  0
 18 26  4  0
 19 24  4  0
 20 24  4  0
 22 27  4  0
 28 29  4  0
M  END
$$$$

 Created by Python create_sdf_string function

 29 33  0  0  0  0  0  0  0  0999 V2000
   10.7215   -3.3326   17.6437 C   0  0  0  0  0  0  0  0  0  0  0  0
    9.9489   -3.4675   24.6487 N   0  0  0  0  0  0  0  0  0  0  0  0
   10.0172   -4.4740   17.4101 C   0  0  0  0  0  0  0  0  0  0  0  0
    6.9051   -7.9575   16.4222 C   0  0  0  0  0  0  0  0  0  0  0  0
    8.9969   -6.3552   17.9668 N   0  0  0  0  0  0  0  0  0  0  0  0
   10.6702   -3.9051   22.4070 C   0  0  0  0  0  0  0  0  0  0  0  0
   11.0625   -3.0028   18.8894 C   0  0  0  0  0  0  0  0  0  0  0  0
    5.6180   -7.9194   16.1754 O   0  0  0  0  0  0  0  0  0  0  0  0
    9.7259   -5.3080   18.4485 C   0  0  0  0  0  0  0  0  0  0  0  0
    9.4578   -5.0200   16.3036 N   0  0  0  0  0  0  0  0  0  0  0  0
    5.0287   -8.9365   16.8223 C   0  0  0  0  0  0  0  0  0  0  0  0
    8.7742   -6.1498   16.6764 C   0  0  0  0  0  0  0  0  0  0  0  0
   10.9418   -3.4032   21.2053 O   0  0  0  0  0  0  0  0  0  0  0  0
    1.4797   -8.6258   16.2950 C   0  0  0  0  0  0  0  0  0  0  0  0
    9.2861   -1.2743   25.3585 C   0  0  0  0  0  0  0  0  0  0  0  0
    1.8892  -10.3985   17.7511 N   0  0  0  0  0  0  0  0  0  0  0  0
    9.6210   -0.6952   24.0976 C   0  0  0  0  0  0  0  0  0  0  0  0
    7.0792   -9.0217   17.1429 C   0  0  0  0  0  0  0  0  0  0  0  0
    3.1713  -10.1816   17.6634 C   0  0  0  0  0  0  0  0  0  0  0  0
    2.7878   -8.3822   16.2137 C   0  0  0  0  0  0  0  0  0  0  0  0
    9.4601   -2.6590   25.6528 C   0  0  0  0  0  0  0  0  0  0  0  0
   10.1182   -1.5672   23.1165 C   0  0  0  0  0  0  0  0  0  0  0  0
    1.0552   -9.6360   17.0650 C   0  0  0  0  0  0  0  0  0  0  0  0
    3.6519   -9.1783   16.9039 C   0  0  0  0  0  0  0  0  0  0  0  0
    7.8675   -7.0096   15.9415 C   0  0  0  0  0  0  0  0  0  0  0  0
    5.9733   -9.6553   17.3832 N   0  0  0  0  0  0  0  0  0  0  0  0
   10.2411   -2.9363   23.4301 C   0  0  0  0  0  0  0  0  0  0  0  0
   10.7288   -3.8197   19.9525 C   0  0  0  0  0  0  0  0  0  0  0  0
   10.1189   -5.0054   19.6987 C   0  0  0  0  0  0  0  0  0  0  0  0
  1  3  4  0
  1  7  4  0
  2 21  4  0
  2 27  4  0
  3  9  4  0
  3 10  4  0
  4  8  4  0
  4 18  4  0
  4 25  1  0
  5  9  4  0
  5 12  4  0
  6 13  1  0
  6 27  1  0
  7 28  4  0
  8 11  4  0
  9 29  4  0
 10 12  4  0
 11 24  1  0
 11 26  4  0
 12 25  1  0
 13 28  1  0
 14 20  4  0
 14 23  4  0
 15 17  4  0
 15 21  4  0
 16 19  4  0
 16 23  4  0
 17 22  4  0
 18 26  4  0
 19 24  4  0
 20 24  4  0
 22 27  4  0
 28 29  4  0
M  END
$$$$

 Created by Python create_sdf_string function

 29 33  0  0  0  0  0  0  0  0999 V2000
   10.7215   -3.3326   17.6437 C   0  0  0  0  0  0  0  0  0  0  0  0
    9.9489   -3.4675   24.6487 N   0  0  0  0  0  0  0  0  0  0  0  0
   10.0172   -4.4740   17.4101 C   0  0  0  0  0  0  0  0  0  0  0  0
    6.9051   -7.9575   16.4222 C   0  0  0  0  0  0  0  0  0  0  0  0
    8.9969   -6.3552   17.9668 N   0  0  0  0  0  0  0  0  0  0  0  0
   10.6702   -3.9051   22.4070 C   0  0  0  0  0  0  0  0  0  0  0  0
   11.0625   -3.0028   18.8894 C   0  0  0  0  0  0  0  0  0  0  0  0
    5.6180   -7.9194   16.1754 O   0  0  0  0  0  0  0  0  0  0  0  0
    9.7259   -5.3080   18.4485 C   0  0  0  0  0  0  0  0  0  0  0  0
    9.4578   -5.0200   16.3036 N   0  0  0  0  0  0  0  0  0  0  0  0
    5.0287   -8.9365   16.8223 C   0  0  0  0  0  0  0  0  0  0  0  0
    8.7742   -6.1498   16.6764 C   0  0  0  0  0  0  0  0  0  0  0  0
   10.9418   -3.4032   21.2053 O   0  0  0  0  0  0  0  0  0  0  0  0
    1.4797   -8.6258   16.2950 C   0  0  0  0  0  0  0  0  0  0  0  0
    9.2861   -1.2743   25.3585 C   0  0  0  0  0  0  0  0  0  0  0  0
    1.8892  -10.3985   17.7511 N   0  0  0  0  0  0  0  0  0  0  0  0
    9.6210   -0.6952   24.0976 C   0  0  0  0  0  0  0  0  0  0  0  0
    7.0792   -9.0217   17.1429 C   0  0  0  0  0  0  0  0  0  0  0  0
    3.1713  -10.1816   17.6634 C   0  0  0  0  0  0  0  0  0  0  0  0
    2.7878   -8.3822   16.2137 C   0  0  0  0  0  0  0  0  0  0  0  0
    9.4601   -2.6590   25.6528 C   0  0  0  0  0  0  0  0  0  0  0  0
   10.1182   -1.5672   23.1165 C   0  0  0  0  0  0  0  0  0  0  0  0
    1.0552   -9.6360   17.0650 C   0  0  0  0  0  0  0  0  0  0  0  0
    3.6519   -9.1783   16.9039 C   0  0  0  0  0  0  0  0  0  0  0  0
    7.8675   -7.0096   15.9415 C   0  0  0  0  0  0  0  0  0  0  0  0
    5.9733   -9.6553   17.3832 N   0  0  0  0  0  0  0  0  0  0  0  0
   10.2411   -2.9363   23.4301 C   0  0  0  0  0  0  0  0  0  0  0  0
   10.7288   -3.8197   19.9525 C   0  0  0  0  0  0  0  0  0  0  0  0
   10.1189   -5.0054   19.6987 C   0  0  0  0  0  0  0  0  0  0  0  0
  1  3  4  0
  1  7  4  0
  2 21  4  0
  2 27  4  0
  3  9  4  0
  3 10  4  0
  4  8  4  0
  4 18  4  0
  4 25  1  0
  5  9  4  0
  5 12  4  0
  6 13  1  0
  6 27  1  0
  7 28  4  0
  8 11  4  0
  9 29  4  0
 10 12  4  0
 11 24  1  0
 11 26  4  0
 12 25  1  0
 13 28  1  0
 14 20  4  0
 14 23  4  0
 15 17  4  0
 15 21  4  0
 16 19  4  0
 16 23  4  0
 17 22  4  0
 18 26  4  0
 19 24  4  0
 20 24  4  0
 22 27  4  0
 28 29  4  0
M  END
$$$$

 Created by Python create_sdf_string function

 29 33  0  0  0  0  0  0  0  0999 V2000
   10.7215   -3.3326   17.6437 C   0  0  0  0  0  0  0  0  0  0  0  0
    9.9489   -3.4675   24.6487 N   0  0  0  0  0  0  0  0  0  0  0  0
   10.0172   -4.4740   17.4101 C   0  0  0  0  0  0  0  0  0  0  0  0
    6.9051   -7.9575   16.4222 C   0  0  0  0  0  0  0  0  0  0  0  0
    8.9969   -6.3552   17.9668 N   0  0  0  0  0  0  0  0  0  0  0  0
   10.6702   -3.9051   22.4070 C   0  0  0  0  0  0  0  0  0  0  0  0
   11.0625   -3.0028   18.8894 C   0  0  0  0  0  0  0  0  0  0  0  0
    5.6180   -7.9194   16.1754 O   0  0  0  0  0  0  0  0  0  0  0  0
    9.7259   -5.3080   18.4485 C   0  0  0  0  0  0  0  0  0  0  0  0
    9.4578   -5.0200   16.3036 N   0  0  0  0  0  0  0  0  0  0  0  0
    5.0287   -8.9365   16.8223 C   0  0  0  0  0  0  0  0  0  0  0  0
    8.7742   -6.1498   16.6764 C   0  0  0  0  0  0  0  0  0  0  0  0
   10.9418   -3.4032   21.2053 O   0  0  0  0  0  0  0  0  0  0  0  0
    1.4797   -8.6258   16.2950 C   0  0  0  0  0  0  0  0  0  0  0  0
    9.2861   -1.2743   25.3585 C   0  0  0  0  0  0  0  0  0  0  0  0
    1.8892  -10.3985   17.7511 N   0  0  0  0  0  0  0  0  0  0  0  0
    9.6210   -0.6952   24.0976 C   0  0  0  0  0  0  0  0  0  0  0  0
    7.0792   -9.0217   17.1429 C   0  0  0  0  0  0  0  0  0  0  0  0
    3.1713  -10.1816   17.6634 C   0  0  0  0  0  0  0  0  0  0  0  0
    2.7878   -8.3822   16.2137 C   0  0  0  0  0  0  0  0  0  0  0  0
    9.4601   -2.6590   25.6528 C   0  0  0  0  0  0  0  0  0  0  0  0
   10.1182   -1.5672   23.1165 C   0  0  0  0  0  0  0  0  0  0  0  0
    1.0552   -9.6360   17.0650 C   0  0  0  0  0  0  0  0  0  0  0  0
    3.6519   -9.1783   16.9039 C   0  0  0  0  0  0  0  0  0  0  0  0
    7.8675   -7.0096   15.9415 C   0  0  0  0  0  0  0  0  0  0  0  0
    5.9733   -9.6553   17.3832 N   0  0  0  0  0  0  0  0  0  0  0  0
   10.2411   -2.9363   23.4301 C   0  0  0  0  0  0  0  0  0  0  0  0
   10.7288   -3.8197   19.9525 C   0  0  0  0  0  0  0  0  0  0  0  0
   10.1189   -5.0054   19.6987 C   0  0  0  0  0  0  0  0  0  0  0  0
  1  3  4  0
  1  7  4  0
  2 21  4  0
  2 27  4  0
  3  9  4  0
  3 10  4  0
  4  8  4  0
  4 18  4  0
  4 25  1  0
  5  9  4  0
  5 12  4  0
  6 13  1  0
  6 27  1  0
  7 28  4  0
  8 11  4  0
  9 29  4  0
 10 12  4  0
 11 24  1  0
 11 26  4  0
 12 25  1  0
 13 28  1  0
 14 20  4  0
 14 23  4  0
 15 17  4  0
 15 21  4  0
 16 19  4  0
 16 23  4  0
 17 22  4  0
 18 26  4  0
 19 24  4  0
 20 24  4  0
 22 27  4  0
 28 29  4  0
M  END
$$$$

 Created by Python create_sdf_string function

 29 33  0  0  0  0  0  0  0  0999 V2000
   10.7215   -3.3326   17.6437 C   0  0  0  0  0  0  0  0  0  0  0  0
    9.9489   -3.4675   24.6487 N   0  0  0  0  0  0  0  0  0  0  0  0
   10.0172   -4.4740   17.4101 C   0  0  0  0  0  0  0  0  0  0  0  0
    6.9051   -7.9575   16.4222 C   0  0  0  0  0  0  0  0  0  0  0  0
    8.9969   -6.3552   17.9668 N   0  0  0  0  0  0  0  0  0  0  0  0
   10.6702   -3.9051   22.4070 C   0  0  0  0  0  0  0  0  0  0  0  0
   11.0625   -3.0028   18.8894 C   0  0  0  0  0  0  0  0  0  0  0  0
    5.6180   -7.9194   16.1754 O   0  0  0  0  0  0  0  0  0  0  0  0
    9.7259   -5.3080   18.4485 C   0  0  0  0  0  0  0  0  0  0  0  0
    9.4578   -5.0200   16.3036 N   0  0  0  0  0  0  0  0  0  0  0  0
    5.0287   -8.9365   16.8223 C   0  0  0  0  0  0  0  0  0  0  0  0
    8.7742   -6.1498   16.6764 C   0  0  0  0  0  0  0  0  0  0  0  0
   10.9418   -3.4032   21.2053 O   0  0  0  0  0  0  0  0  0  0  0  0
    1.4797   -8.6258   16.2950 C   0  0  0  0  0  0  0  0  0  0  0  0
    9.2861   -1.2743   25.3585 C   0  0  0  0  0  0  0  0  0  0  0  0
    1.8892  -10.3985   17.7511 N   0  0  0  0  0  0  0  0  0  0  0  0
    9.6210   -0.6952   24.0976 C   0  0  0  0  0  0  0  0  0  0  0  0
    7.0792   -9.0217   17.1429 C   0  0  0  0  0  0  0  0  0  0  0  0
    3.1713  -10.1816   17.6634 C   0  0  0  0  0  0  0  0  0  0  0  0
    2.7878   -8.3822   16.2137 C   0  0  0  0  0  0  0  0  0  0  0  0
    9.4601   -2.6590   25.6528 C   0  0  0  0  0  0  0  0  0  0  0  0
   10.1182   -1.5672   23.1165 C   0  0  0  0  0  0  0  0  0  0  0  0
    1.0552   -9.6360   17.0650 C   0  0  0  0  0  0  0  0  0  0  0  0
    3.6519   -9.1783   16.9039 C   0  0  0  0  0  0  0  0  0  0  0  0
    7.8675   -7.0096   15.9415 C   0  0  0  0  0  0  0  0  0  0  0  0
    5.9733   -9.6553   17.3832 N   0  0  0  0  0  0  0  0  0  0  0  0
   10.2411   -2.9363   23.4301 C   0  0  0  0  0  0  0  0  0  0  0  0
   10.7288   -3.8197   19.9525 C   0  0  0  0  0  0  0  0  0  0  0  0
   10.1189   -5.0054   19.6987 C   0  0  0  0  0  0  0  0  0  0  0  0
  1  3  4  0
  1  7  4  0
  2 21  4  0
  2 27  4  0
  3  9  4  0
  3 10  4  0
  4  8  4  0
  4 18  4  0
  4 25  1  0
  5  9  4  0
  5 12  4  0
  6 13  1  0
  6 27  1  0
  7 28  4  0
  8 11  4  0
  9 29  4  0
 10 12  4  0
 11 24  1  0
 11 26  4  0
 12 25  1  0
 13 28  1  0
 14 20  4  0
 14 23  4  0
 15 17  4  0
 15 21  4  0
 16 19  4  0
 16 23  4  0
 17 22  4  0
 18 26  4  0
 19 24  4  0
 20 24  4  0
 22 27  4  0
 28 29  4  0
M  END
$$$$

 Created by Python create_sdf_string function

 29 33  0  0  0  0  0  0  0  0999 V2000
   10.7215   -3.3326   17.6437 C   0  0  0  0  0  0  0  0  0  0  0  0
    9.9489   -3.4675   24.6487 N   0  0  0  0  0  0  0  0  0  0  0  0
   10.0172   -4.4740   17.4101 C   0  0  0  0  0  0  0  0  0  0  0  0
    6.9051   -7.9575   16.4222 C   0  0  0  0  0  0  0  0  0  0  0  0
    8.9969   -6.3552   17.9668 N   0  0  0  0  0  0  0  0  0  0  0  0
   10.6702   -3.9051   22.4070 C   0  0  0  0  0  0  0  0  0  0  0  0
   11.0625   -3.0028   18.8894 C   0  0  0  0  0  0  0  0  0  0  0  0
    5.6180   -7.9194   16.1754 O   0  0  0  0  0  0  0  0  0  0  0  0
    9.7259   -5.3080   18.4485 C   0  0  0  0  0  0  0  0  0  0  0  0
    9.4578   -5.0200   16.3036 N   0  0  0  0  0  0  0  0  0  0  0  0
    5.0287   -8.9365   16.8223 C   0  0  0  0  0  0  0  0  0  0  0  0
    8.7742   -6.1498   16.6764 C   0  0  0  0  0  0  0  0  0  0  0  0
   10.9418   -3.4032   21.2053 O   0  0  0  0  0  0  0  0  0  0  0  0
    1.4797   -8.6258   16.2950 C   0  0  0  0  0  0  0  0  0  0  0  0
    9.2861   -1.2743   25.3585 C   0  0  0  0  0  0  0  0  0  0  0  0
    1.8892  -10.3985   17.7511 N   0  0  0  0  0  0  0  0  0  0  0  0
    9.6210   -0.6952   24.0976 C   0  0  0  0  0  0  0  0  0  0  0  0
    7.0792   -9.0217   17.1429 C   0  0  0  0  0  0  0  0  0  0  0  0
    3.1713  -10.1816   17.6634 C   0  0  0  0  0  0  0  0  0  0  0  0
    2.7878   -8.3822   16.2137 C   0  0  0  0  0  0  0  0  0  0  0  0
    9.4601   -2.6590   25.6528 C   0  0  0  0  0  0  0  0  0  0  0  0
   10.1182   -1.5672   23.1165 C   0  0  0  0  0  0  0  0  0  0  0  0
    1.0552   -9.6360   17.0650 C   0  0  0  0  0  0  0  0  0  0  0  0
    3.6519   -9.1783   16.9039 C   0  0  0  0  0  0  0  0  0  0  0  0
    7.8675   -7.0096   15.9415 C   0  0  0  0  0  0  0  0  0  0  0  0
    5.9733   -9.6553   17.3832 N   0  0  0  0  0  0  0  0  0  0  0  0
   10.2411   -2.9363   23.4301 C   0  0  0  0  0  0  0  0  0  0  0  0
   10.7288   -3.8197   19.9525 C   0  0  0  0  0  0  0  0  0  0  0  0
   10.1189   -5.0054   19.6987 C   0  0  0  0  0  0  0  0  0  0  0  0
  1  3  4  0
  1  7  4  0
  2 21  4  0
  2 27  4  0
  3  9  4  0
  3 10  4  0
  4  8  4  0
  4 18  4  0
  4 25  1  0
  5  9  4  0
  5 12  4  0
  6 13  1  0
  6 27  1  0
  7 28  4  0
  8 11  4  0
  9 29  4  0
 10 12  4  0
 11 24  1  0
 11 26  4  0
 12 25  1  0
 13 28  1  0
 14 20  4  0
 14 23  4  0
 15 17  4  0
 15 21  4  0
 16 19  4  0
 16 23  4  0
 17 22  4  0
 18 26  4  0
 19 24  4  0
 20 24  4  0
 22 27  4  0
 28 29  4  0
M  END
$$$$

 Created by Python create_sdf_string function

 29 33  0  0  0  0  0  0  0  0999 V2000
   10.7215   -3.3326   17.6437 C   0  0  0  0  0  0  0  0  0  0  0  0
    9.9489   -3.4675   24.6487 N   0  0  0  0  0  0  0  0  0  0  0  0
   10.0172   -4.4740   17.4101 C   0  0  0  0  0  0  0  0  0  0  0  0
    6.9051   -7.9575   16.4222 C   0  0  0  0  0  0  0  0  0  0  0  0
    8.9969   -6.3552   17.9668 N   0  0  0  0  0  0  0  0  0  0  0  0
   10.6702   -3.9051   22.4070 C   0  0  0  0  0  0  0  0  0  0  0  0
   11.0625   -3.0028   18.8894 C   0  0  0  0  0  0  0  0  0  0  0  0
    5.6180   -7.9194   16.1754 O   0  0  0  0  0  0  0  0  0  0  0  0
    9.7259   -5.3080   18.4485 C   0  0  0  0  0  0  0  0  0  0  0  0
    9.4578   -5.0200   16.3036 N   0  0  0  0  0  0  0  0  0  0  0  0
    5.0287   -8.9365   16.8223 C   0  0  0  0  0  0  0  0  0  0  0  0
    8.7742   -6.1498   16.6764 C   0  0  0  0  0  0  0  0  0  0  0  0
   10.9418   -3.4032   21.2053 O   0  0  0  0  0  0  0  0  0  0  0  0
    1.4797   -8.6258   16.2950 C   0  0  0  0  0  0  0  0  0  0  0  0
    9.2861   -1.2743   25.3585 C   0  0  0  0  0  0  0  0  0  0  0  0
    1.8892  -10.3985   17.7511 N   0  0  0  0  0  0  0  0  0  0  0  0
    9.6210   -0.6952   24.0976 C   0  0  0  0  0  0  0  0  0  0  0  0
    7.0792   -9.0217   17.1429 C   0  0  0  0  0  0  0  0  0  0  0  0
    3.1713  -10.1816   17.6634 C   0  0  0  0  0  0  0  0  0  0  0  0
    2.7878   -8.3822   16.2137 C   0  0  0  0  0  0  0  0  0  0  0  0
    9.4601   -2.6590   25.6528 C   0  0  0  0  0  0  0  0  0  0  0  0
   10.1182   -1.5672   23.1165 C   0  0  0  0  0  0  0  0  0  0  0  0
    1.0552   -9.6360   17.0650 C   0  0  0  0  0  0  0  0  0  0  0  0
    3.6519   -9.1783   16.9039 C   0  0  0  0  0  0  0  0  0  0  0  0
    7.8675   -7.0096   15.9415 C   0  0  0  0  0  0  0  0  0  0  0  0
    5.9733   -9.6553   17.3832 N   0  0  0  0  0  0  0  0  0  0  0  0
   10.2411   -2.9363   23.4301 C   0  0  0  0  0  0  0  0  0  0  0  0
   10.7288   -3.8197   19.9525 C   0  0  0  0  0  0  0  0  0  0  0  0
   10.1189   -5.0054   19.6987 C   0  0  0  0  0  0  0  0  0  0  0  0
  1  3  4  0
  1  7  4  0
  2 21  4  0
  2 27  4  0
  3  9  4  0
  3 10  4  0
  4  8  4  0
  4 18  4  0
  4 25  1  0
  5  9  4  0
  5 12  4  0
  6 13  1  0
  6 27  1  0
  7 28  4  0
  8 11  4  0
  9 29  4  0
 10 12  4  0
 11 24  1  0
 11 26  4  0
 12 25  1  0
 13 28  1  0
 14 20  4  0
 14 23  4  0
 15 17  4  0
 15 21  4  0
 16 19  4  0
 16 23  4  0
 17 22  4  0
 18 26  4  0
 19 24  4  0
 20 24  4  0
 22 27  4  0
 28 29  4  0
M  END
$$$$

 Created by Python create_sdf_string function

 29 33  0  0  0  0  0  0  0  0999 V2000
   10.7215   -3.3326   17.6437 C   0  0  0  0  0  0  0  0  0  0  0  0
    9.9489   -3.4675   24.6487 N   0  0  0  0  0  0  0  0  0  0  0  0
   10.0172   -4.4740   17.4101 C   0  0  0  0  0  0  0  0  0  0  0  0
    6.9051   -7.9575   16.4222 C   0  0  0  0  0  0  0  0  0  0  0  0
    8.9969   -6.3552   17.9668 N   0  0  0  0  0  0  0  0  0  0  0  0
   10.6702   -3.9051   22.4070 C   0  0  0  0  0  0  0  0  0  0  0  0
   11.0625   -3.0028   18.8894 C   0  0  0  0  0  0  0  0  0  0  0  0
    5.6180   -7.9194   16.1754 O   0  0  0  0  0  0  0  0  0  0  0  0
    9.7259   -5.3080   18.4485 C   0  0  0  0  0  0  0  0  0  0  0  0
    9.4578   -5.0200   16.3036 N   0  0  0  0  0  0  0  0  0  0  0  0
    5.0287   -8.9365   16.8223 C   0  0  0  0  0  0  0  0  0  0  0  0
    8.7742   -6.1498   16.6764 C   0  0  0  0  0  0  0  0  0  0  0  0
   10.9418   -3.4032   21.2053 O   0  0  0  0  0  0  0  0  0  0  0  0
    1.4797   -8.6258   16.2950 C   0  0  0  0  0  0  0  0  0  0  0  0
    9.2861   -1.2743   25.3585 C   0  0  0  0  0  0  0  0  0  0  0  0
    1.8892  -10.3985   17.7511 N   0  0  0  0  0  0  0  0  0  0  0  0
    9.6210   -0.6952   24.0976 C   0  0  0  0  0  0  0  0  0  0  0  0
    7.0792   -9.0217   17.1429 C   0  0  0  0  0  0  0  0  0  0  0  0
    3.1713  -10.1816   17.6634 C   0  0  0  0  0  0  0  0  0  0  0  0
    2.7878   -8.3822   16.2137 C   0  0  0  0  0  0  0  0  0  0  0  0
    9.4601   -2.6590   25.6528 C   0  0  0  0  0  0  0  0  0  0  0  0
   10.1182   -1.5672   23.1165 C   0  0  0  0  0  0  0  0  0  0  0  0
    1.0552   -9.6360   17.0650 C   0  0  0  0  0  0  0  0  0  0  0  0
    3.6519   -9.1783   16.9039 C   0  0  0  0  0  0  0  0  0  0  0  0
    7.8675   -7.0096   15.9415 C   0  0  0  0  0  0  0  0  0  0  0  0
    5.9733   -9.6553   17.3832 N   0  0  0  0  0  0  0  0  0  0  0  0
   10.2411   -2.9363   23.4301 C   0  0  0  0  0  0  0  0  0  0  0  0
   10.7288   -3.8197   19.9525 C   0  0  0  0  0  0  0  0  0  0  0  0
   10.1189   -5.0054   19.6987 C   0  0  0  0  0  0  0  0  0  0  0  0
  1  3  4  0
  1  7  4  0
  2 21  4  0
  2 27  4  0
  3  9  4  0
  3 10  4  0
  4  8  4  0
  4 18  4  0
  4 25  1  0
  5  9  4  0
  5 12  4  0
  6 13  1  0
  6 27  1  0
  7 28  4  0
  8 11  4  0
  9 29  4  0
 10 12  4  0
 11 24  1  0
 11 26  4  0
 12 25  1  0
 13 28  1  0
 14 20  4  0
 14 23  4  0
 15 17  4  0
 15 21  4  0
 16 19  4  0
 16 23  4  0
 17 22  4  0
 18 26  4  0
 19 24  4  0
 20 24  4  0
 22 27  4  0
 28 29  4  0
M  END
$$$$

 Created by Python create_sdf_string function

 29 33  0  0  0  0  0  0  0  0999 V2000
   10.7215   -3.3326   17.6437 C   0  0  0  0  0  0  0  0  0  0  0  0
    9.9489   -3.4675   24.6487 N   0  0  0  0  0  0  0  0  0  0  0  0
   10.0172   -4.4740   17.4101 C   0  0  0  0  0  0  0  0  0  0  0  0
    6.9051   -7.9575   16.4222 C   0  0  0  0  0  0  0  0  0  0  0  0
    8.9969   -6.3552   17.9668 N   0  0  0  0  0  0  0  0  0  0  0  0
   10.6702   -3.9051   22.4070 C   0  0  0  0  0  0  0  0  0  0  0  0
   11.0625   -3.0028   18.8894 C   0  0  0  0  0  0  0  0  0  0  0  0
    5.6180   -7.9194   16.1754 O   0  0  0  0  0  0  0  0  0  0  0  0
    9.7259   -5.3080   18.4485 C   0  0  0  0  0  0  0  0  0  0  0  0
    9.4578   -5.0200   16.3036 N   0  0  0  0  0  0  0  0  0  0  0  0
    5.0287   -8.9365   16.8223 C   0  0  0  0  0  0  0  0  0  0  0  0
    8.7742   -6.1498   16.6764 C   0  0  0  0  0  0  0  0  0  0  0  0
   10.9418   -3.4032   21.2053 O   0  0  0  0  0  0  0  0  0  0  0  0
    1.4797   -8.6258   16.2950 C   0  0  0  0  0  0  0  0  0  0  0  0
    9.2861   -1.2743   25.3585 C   0  0  0  0  0  0  0  0  0  0  0  0
    1.8892  -10.3985   17.7511 N   0  0  0  0  0  0  0  0  0  0  0  0
    9.6210   -0.6952   24.0976 C   0  0  0  0  0  0  0  0  0  0  0  0
    7.0792   -9.0217   17.1429 C   0  0  0  0  0  0  0  0  0  0  0  0
    3.1713  -10.1816   17.6634 C   0  0  0  0  0  0  0  0  0  0  0  0
    2.7878   -8.3822   16.2137 C   0  0  0  0  0  0  0  0  0  0  0  0
    9.4601   -2.6590   25.6528 C   0  0  0  0  0  0  0  0  0  0  0  0
   10.1182   -1.5672   23.1165 C   0  0  0  0  0  0  0  0  0  0  0  0
    1.0552   -9.6360   17.0650 C   0  0  0  0  0  0  0  0  0  0  0  0
    3.6519   -9.1783   16.9039 C   0  0  0  0  0  0  0  0  0  0  0  0
    7.8675   -7.0096   15.9415 C   0  0  0  0  0  0  0  0  0  0  0  0
    5.9733   -9.6553   17.3832 N   0  0  0  0  0  0  0  0  0  0  0  0
   10.2411   -2.9363   23.4301 C   0  0  0  0  0  0  0  0  0  0  0  0
   10.7288   -3.8197   19.9525 C   0  0  0  0  0  0  0  0  0  0  0  0
   10.1189   -5.0054   19.6987 C   0  0  0  0  0  0  0  0  0  0  0  0
  1  3  4  0
  1  7  4  0
  2 21  4  0
  2 27  4  0
  3  9  4  0
  3 10  4  0
  4  8  4  0
  4 18  4  0
  4 25  1  0
  5  9  4  0
  5 12  4  0
  6 13  1  0
  6 27  1  0
  7 28  4  0
  8 11  4  0
  9 29  4  0
 10 12  4  0
 11 24  1  0
 11 26  4  0
 12 25  1  0
 13 28  1  0
 14 20  4  0
 14 23  4  0
 15 17  4  0
 15 21  4  0
 16 19  4  0
 16 23  4  0
 17 22  4  0
 18 26  4  0
 19 24  4  0
 20 24  4  0
 22 27  4  0
 28 29  4  0
M  END
$$$$

 Created by Python create_sdf_string function

 29 33  0  0  0  0  0  0  0  0999 V2000
   10.7215   -3.3326   17.6437 C   0  0  0  0  0  0  0  0  0  0  0  0
    9.9489   -3.4675   24.6487 N   0  0  0  0  0  0  0  0  0  0  0  0
   10.0172   -4.4740   17.4101 C   0  0  0  0  0  0  0  0  0  0  0  0
    6.9051   -7.9575   16.4222 C   0  0  0  0  0  0  0  0  0  0  0  0
    8.9969   -6.3552   17.9668 N   0  0  0  0  0  0  0  0  0  0  0  0
   10.6702   -3.9051   22.4070 C   0  0  0  0  0  0  0  0  0  0  0  0
   11.0625   -3.0028   18.8894 C   0  0  0  0  0  0  0  0  0  0  0  0
    5.6180   -7.9194   16.1754 O   0  0  0  0  0  0  0  0  0  0  0  0
    9.7259   -5.3080   18.4485 C   0  0  0  0  0  0  0  0  0  0  0  0
    9.4578   -5.0200   16.3036 N   0  0  0  0  0  0  0  0  0  0  0  0
    5.0287   -8.9365   16.8223 C   0  0  0  0  0  0  0  0  0  0  0  0
    8.7742   -6.1498   16.6764 C   0  0  0  0  0  0  0  0  0  0  0  0
   10.9418   -3.4032   21.2053 O   0  0  0  0  0  0  0  0  0  0  0  0
    1.4797   -8.6258   16.2950 C   0  0  0  0  0  0  0  0  0  0  0  0
    9.2861   -1.2743   25.3585 C   0  0  0  0  0  0  0  0  0  0  0  0
    1.8892  -10.3985   17.7511 N   0  0  0  0  0  0  0  0  0  0  0  0
    9.6210   -0.6952   24.0976 C   0  0  0  0  0  0  0  0  0  0  0  0
    7.0792   -9.0217   17.1429 C   0  0  0  0  0  0  0  0  0  0  0  0
    3.1713  -10.1816   17.6634 C   0  0  0  0  0  0  0  0  0  0  0  0
    2.7878   -8.3822   16.2137 C   0  0  0  0  0  0  0  0  0  0  0  0
    9.4601   -2.6590   25.6528 C   0  0  0  0  0  0  0  0  0  0  0  0
   10.1182   -1.5672   23.1165 C   0  0  0  0  0  0  0  0  0  0  0  0
    1.0552   -9.6360   17.0650 C   0  0  0  0  0  0  0  0  0  0  0  0
    3.6519   -9.1783   16.9039 C   0  0  0  0  0  0  0  0  0  0  0  0
    7.8675   -7.0096   15.9415 C   0  0  0  0  0  0  0  0  0  0  0  0
    5.9733   -9.6553   17.3832 N   0  0  0  0  0  0  0  0  0  0  0  0
   10.2411   -2.9363   23.4301 C   0  0  0  0  0  0  0  0  0  0  0  0
   10.7288   -3.8197   19.9525 C   0  0  0  0  0  0  0  0  0  0  0  0
   10.1189   -5.0054   19.6987 C   0  0  0  0  0  0  0  0  0  0  0  0
  1  3  4  0
  1  7  4  0
  2 21  4  0
  2 27  4  0
  3  9  4  0
  3 10  4  0
  4  8  4  0
  4 18  4  0
  4 25  1  0
  5  9  4  0
  5 12  4  0
  6 13  1  0
  6 27  1  0
  7 28  4  0
  8 11  4  0
  9 29  4  0
 10 12  4  0
 11 24  1  0
 11 26  4  0
 12 25  1  0
 13 28  1  0
 14 20  4  0
 14 23  4  0
 15 17  4  0
 15 21  4  0
 16 19  4  0
 16 23  4  0
 17 22  4  0
 18 26  4  0
 19 24  4  0
 20 24  4  0
 22 27  4  0
 28 29  4  0
M  END
$$$$

 Created by Python create_sdf_string function

 29 33  0  0  0  0  0  0  0  0999 V2000
   10.7215   -3.3326   17.6437 C   0  0  0  0  0  0  0  0  0  0  0  0
    9.9489   -3.4675   24.6487 N   0  0  0  0  0  0  0  0  0  0  0  0
   10.0172   -4.4740   17.4101 C   0  0  0  0  0  0  0  0  0  0  0  0
    6.9051   -7.9575   16.4222 C   0  0  0  0  0  0  0  0  0  0  0  0
    8.9969   -6.3552   17.9668 N   0  0  0  0  0  0  0  0  0  0  0  0
   10.6702   -3.9051   22.4070 C   0  0  0  0  0  0  0  0  0  0  0  0
   11.0625   -3.0028   18.8894 C   0  0  0  0  0  0  0  0  0  0  0  0
    5.6180   -7.9194   16.1754 O   0  0  0  0  0  0  0  0  0  0  0  0
    9.7259   -5.3080   18.4485 C   0  0  0  0  0  0  0  0  0  0  0  0
    9.4578   -5.0200   16.3036 N   0  0  0  0  0  0  0  0  0  0  0  0
    5.0287   -8.9365   16.8223 C   0  0  0  0  0  0  0  0  0  0  0  0
    8.7742   -6.1498   16.6764 C   0  0  0  0  0  0  0  0  0  0  0  0
   10.9418   -3.4032   21.2053 O   0  0  0  0  0  0  0  0  0  0  0  0
    1.4797   -8.6258   16.2950 C   0  0  0  0  0  0  0  0  0  0  0  0
    9.2861   -1.2743   25.3585 C   0  0  0  0  0  0  0  0  0  0  0  0
    1.8892  -10.3985   17.7511 N   0  0  0  0  0  0  0  0  0  0  0  0
    9.6210   -0.6952   24.0976 C   0  0  0  0  0  0  0  0  0  0  0  0
    7.0792   -9.0217   17.1429 C   0  0  0  0  0  0  0  0  0  0  0  0
    3.1713  -10.1816   17.6634 C   0  0  0  0  0  0  0  0  0  0  0  0
    2.7878   -8.3822   16.2137 C   0  0  0  0  0  0  0  0  0  0  0  0
    9.4601   -2.6590   25.6528 C   0  0  0  0  0  0  0  0  0  0  0  0
   10.1182   -1.5672   23.1165 C   0  0  0  0  0  0  0  0  0  0  0  0
    1.0552   -9.6360   17.0650 C   0  0  0  0  0  0  0  0  0  0  0  0
    3.6519   -9.1783   16.9039 C   0  0  0  0  0  0  0  0  0  0  0  0
    7.8675   -7.0096   15.9415 C   0  0  0  0  0  0  0  0  0  0  0  0
    5.9733   -9.6553   17.3832 N   0  0  0  0  0  0  0  0  0  0  0  0
   10.2411   -2.9363   23.4301 C   0  0  0  0  0  0  0  0  0  0  0  0
   10.7288   -3.8197   19.9525 C   0  0  0  0  0  0  0  0  0  0  0  0
   10.1189   -5.0054   19.6987 C   0  0  0  0  0  0  0  0  0  0  0  0
  1  3  4  0
  1  7  4  0
  2 21  4  0
  2 27  4  0
  3  9  4  0
  3 10  4  0
  4  8  4  0
  4 18  4  0
  4 25  1  0
  5  9  4  0
  5 12  4  0
  6 13  1  0
  6 27  1  0
  7 28  4  0
  8 11  4  0
  9 29  4  0
 10 12  4  0
 11 24  1  0
 11 26  4  0
 12 25  1  0
 13 28  1  0
 14 20  4  0
 14 23  4  0
 15 17  4  0
 15 21  4  0
 16 19  4  0
 16 23  4  0
 17 22  4  0
 18 26  4  0
 19 24  4  0
 20 24  4  0
 22 27  4  0
 28 29  4  0
M  END
$$$$

 Created by Python create_sdf_string function

 29 33  0  0  0  0  0  0  0  0999 V2000
   10.7215   -3.3326   17.6437 C   0  0  0  0  0  0  0  0  0  0  0  0
    9.9489   -3.4675   24.6487 N   0  0  0  0  0  0  0  0  0  0  0  0
   10.0172   -4.4740   17.4101 C   0  0  0  0  0  0  0  0  0  0  0  0
    6.9051   -7.9575   16.4222 C   0  0  0  0  0  0  0  0  0  0  0  0
    8.9969   -6.3552   17.9668 N   0  0  0  0  0  0  0  0  0  0  0  0
   10.6702   -3.9051   22.4070 C   0  0  0  0  0  0  0  0  0  0  0  0
   11.0625   -3.0028   18.8894 C   0  0  0  0  0  0  0  0  0  0  0  0
    5.6180   -7.9194   16.1754 O   0  0  0  0  0  0  0  0  0  0  0  0
    9.7259   -5.3080   18.4485 C   0  0  0  0  0  0  0  0  0  0  0  0
    9.4578   -5.0200   16.3036 N   0  0  0  0  0  0  0  0  0  0  0  0
    5.0287   -8.9365   16.8223 C   0  0  0  0  0  0  0  0  0  0  0  0
    8.7742   -6.1498   16.6764 C   0  0  0  0  0  0  0  0  0  0  0  0
   10.9418   -3.4032   21.2053 O   0  0  0  0  0  0  0  0  0  0  0  0
    1.4797   -8.6258   16.2950 C   0  0  0  0  0  0  0  0  0  0  0  0
    9.2861   -1.2743   25.3585 C   0  0  0  0  0  0  0  0  0  0  0  0
    1.8892  -10.3985   17.7511 N   0  0  0  0  0  0  0  0  0  0  0  0
    9.6210   -0.6952   24.0976 C   0  0  0  0  0  0  0  0  0  0  0  0
    7.0792   -9.0217   17.1429 C   0  0  0  0  0  0  0  0  0  0  0  0
    3.1713  -10.1816   17.6634 C   0  0  0  0  0  0  0  0  0  0  0  0
    2.7878   -8.3822   16.2137 C   0  0  0  0  0  0  0  0  0  0  0  0
    9.4601   -2.6590   25.6528 C   0  0  0  0  0  0  0  0  0  0  0  0
   10.1182   -1.5672   23.1165 C   0  0  0  0  0  0  0  0  0  0  0  0
    1.0552   -9.6360   17.0650 C   0  0  0  0  0  0  0  0  0  0  0  0
    3.6519   -9.1783   16.9039 C   0  0  0  0  0  0  0  0  0  0  0  0
    7.8675   -7.0096   15.9415 C   0  0  0  0  0  0  0  0  0  0  0  0
    5.9733   -9.6553   17.3832 N   0  0  0  0  0  0  0  0  0  0  0  0
   10.2411   -2.9363   23.4301 C   0  0  0  0  0  0  0  0  0  0  0  0
   10.7288   -3.8197   19.9525 C   0  0  0  0  0  0  0  0  0  0  0  0
   10.1189   -5.0054   19.6987 C   0  0  0  0  0  0  0  0  0  0  0  0
  1  3  4  0
  1  7  4  0
  2 21  4  0
  2 27  4  0
  3  9  4  0
  3 10  4  0
  4  8  4  0
  4 18  4  0
  4 25  1  0
  5  9  4  0
  5 12  4  0
  6 13  1  0
  6 27  1  0
  7 28  4  0
  8 11  4  0
  9 29  4  0
 10 12  4  0
 11 24  1  0
 11 26  4  0
 12 25  1  0
 13 28  1  0
 14 20  4  0
 14 23  4  0
 15 17  4  0
 15 21  4  0
 16 19  4  0
 16 23  4  0
 17 22  4  0
 18 26  4  0
 19 24  4  0
 20 24  4  0
 22 27  4  0
 28 29  4  0
M  END
$$$$

 Created by Python create_sdf_string function

 29 33  0  0  0  0  0  0  0  0999 V2000
   10.7215   -3.3326   17.6437 C   0  0  0  0  0  0  0  0  0  0  0  0
    9.9489   -3.4675   24.6487 N   0  0  0  0  0  0  0  0  0  0  0  0
   10.0172   -4.4740   17.4101 C   0  0  0  0  0  0  0  0  0  0  0  0
    6.9051   -7.9575   16.4222 C   0  0  0  0  0  0  0  0  0  0  0  0
    8.9969   -6.3552   17.9668 N   0  0  0  0  0  0  0  0  0  0  0  0
   10.6702   -3.9051   22.4070 C   0  0  0  0  0  0  0  0  0  0  0  0
   11.0625   -3.0028   18.8894 C   0  0  0  0  0  0  0  0  0  0  0  0
    5.6180   -7.9194   16.1754 O   0  0  0  0  0  0  0  0  0  0  0  0
    9.7259   -5.3080   18.4485 C   0  0  0  0  0  0  0  0  0  0  0  0
    9.4578   -5.0200   16.3036 N   0  0  0  0  0  0  0  0  0  0  0  0
    5.0287   -8.9365   16.8223 C   0  0  0  0  0  0  0  0  0  0  0  0
    8.7742   -6.1498   16.6764 C   0  0  0  0  0  0  0  0  0  0  0  0
   10.9418   -3.4032   21.2053 O   0  0  0  0  0  0  0  0  0  0  0  0
    1.4797   -8.6258   16.2950 C   0  0  0  0  0  0  0  0  0  0  0  0
    9.2861   -1.2743   25.3585 C   0  0  0  0  0  0  0  0  0  0  0  0
    1.8892  -10.3985   17.7511 N   0  0  0  0  0  0  0  0  0  0  0  0
    9.6210   -0.6952   24.0976 C   0  0  0  0  0  0  0  0  0  0  0  0
    7.0792   -9.0217   17.1429 C   0  0  0  0  0  0  0  0  0  0  0  0
    3.1713  -10.1816   17.6634 C   0  0  0  0  0  0  0  0  0  0  0  0
    2.7878   -8.3822   16.2137 C   0  0  0  0  0  0  0  0  0  0  0  0
    9.4601   -2.6590   25.6528 C   0  0  0  0  0  0  0  0  0  0  0  0
   10.1182   -1.5672   23.1165 C   0  0  0  0  0  0  0  0  0  0  0  0
    1.0552   -9.6360   17.0650 C   0  0  0  0  0  0  0  0  0  0  0  0
    3.6519   -9.1783   16.9039 C   0  0  0  0  0  0  0  0  0  0  0  0
    7.8675   -7.0096   15.9415 C   0  0  0  0  0  0  0  0  0  0  0  0
    5.9733   -9.6553   17.3832 N   0  0  0  0  0  0  0  0  0  0  0  0
   10.2411   -2.9363   23.4301 C   0  0  0  0  0  0  0  0  0  0  0  0
   10.7288   -3.8197   19.9525 C   0  0  0  0  0  0  0  0  0  0  0  0
   10.1189   -5.0054   19.6987 C   0  0  0  0  0  0  0  0  0  0  0  0
  1  3  4  0
  1  7  4  0
  2 21  4  0
  2 27  4  0
  3  9  4  0
  3 10  4  0
  4  8  4  0
  4 18  4  0
  4 25  1  0
  5  9  4  0
  5 12  4  0
  6 13  1  0
  6 27  1  0
  7 28  4  0
  8 11  4  0
  9 29  4  0
 10 12  4  0
 11 24  1  0
 11 26  4  0
 12 25  1  0
 13 28  1  0
 14 20  4  0
 14 23  4  0
 15 17  4  0
 15 21  4  0
 16 19  4  0
 16 23  4  0
 17 22  4  0
 18 26  4  0
 19 24  4  0
 20 24  4  0
 22 27  4  0
 28 29  4  0
M  END
$$$$

 Created by Python create_sdf_string function

 29 33  0  0  0  0  0  0  0  0999 V2000
   10.7215   -3.3326   17.6437 C   0  0  0  0  0  0  0  0  0  0  0  0
    9.9489   -3.4675   24.6487 N   0  0  0  0  0  0  0  0  0  0  0  0
   10.0172   -4.4740   17.4101 C   0  0  0  0  0  0  0  0  0  0  0  0
    6.9051   -7.9575   16.4222 C   0  0  0  0  0  0  0  0  0  0  0  0
    8.9969   -6.3552   17.9668 N   0  0  0  0  0  0  0  0  0  0  0  0
   10.6702   -3.9051   22.4070 C   0  0  0  0  0  0  0  0  0  0  0  0
   11.0625   -3.0028   18.8894 C   0  0  0  0  0  0  0  0  0  0  0  0
    5.6180   -7.9194   16.1754 O   0  0  0  0  0  0  0  0  0  0  0  0
    9.7259   -5.3080   18.4485 C   0  0  0  0  0  0  0  0  0  0  0  0
    9.4578   -5.0200   16.3036 N   0  0  0  0  0  0  0  0  0  0  0  0
    5.0287   -8.9365   16.8223 C   0  0  0  0  0  0  0  0  0  0  0  0
    8.7742   -6.1498   16.6764 C   0  0  0  0  0  0  0  0  0  0  0  0
   10.9418   -3.4032   21.2053 O   0  0  0  0  0  0  0  0  0  0  0  0
    1.4797   -8.6258   16.2950 C   0  0  0  0  0  0  0  0  0  0  0  0
    9.2861   -1.2743   25.3585 C   0  0  0  0  0  0  0  0  0  0  0  0
    1.8892  -10.3985   17.7511 N   0  0  0  0  0  0  0  0  0  0  0  0
    9.6210   -0.6952   24.0976 C   0  0  0  0  0  0  0  0  0  0  0  0
    7.0792   -9.0217   17.1429 C   0  0  0  0  0  0  0  0  0  0  0  0
    3.1713  -10.1816   17.6634 C   0  0  0  0  0  0  0  0  0  0  0  0
    2.7878   -8.3822   16.2137 C   0  0  0  0  0  0  0  0  0  0  0  0
    9.4601   -2.6590   25.6528 C   0  0  0  0  0  0  0  0  0  0  0  0
   10.1182   -1.5672   23.1165 C   0  0  0  0  0  0  0  0  0  0  0  0
    1.0552   -9.6360   17.0650 C   0  0  0  0  0  0  0  0  0  0  0  0
    3.6519   -9.1783   16.9039 C   0  0  0  0  0  0  0  0  0  0  0  0
    7.8675   -7.0096   15.9415 C   0  0  0  0  0  0  0  0  0  0  0  0
    5.9733   -9.6553   17.3832 N   0  0  0  0  0  0  0  0  0  0  0  0
   10.2411   -2.9363   23.4301 C   0  0  0  0  0  0  0  0  0  0  0  0
   10.7288   -3.8197   19.9525 C   0  0  0  0  0  0  0  0  0  0  0  0
   10.1189   -5.0054   19.6987 C   0  0  0  0  0  0  0  0  0  0  0  0
  1  3  4  0
  1  7  4  0
  2 21  4  0
  2 27  4  0
  3  9  4  0
  3 10  4  0
  4  8  4  0
  4 18  4  0
  4 25  1  0
  5  9  4  0
  5 12  4  0
  6 13  1  0
  6 27  1  0
  7 28  4  0
  8 11  4  0
  9 29  4  0
 10 12  4  0
 11 24  1  0
 11 26  4  0
 12 25  1  0
 13 28  1  0
 14 20  4  0
 14 23  4  0
 15 17  4  0
 15 21  4  0
 16 19  4  0
 16 23  4  0
 17 22  4  0
 18 26  4  0
 19 24  4  0
 20 24  4  0
 22 27  4  0
 28 29  4  0
M  END
$$$$

 Created by Python create_sdf_string function

 29 33  0  0  0  0  0  0  0  0999 V2000
   10.7215   -3.3326   17.6437 C   0  0  0  0  0  0  0  0  0  0  0  0
    9.9489   -3.4675   24.6487 N   0  0  0  0  0  0  0  0  0  0  0  0
   10.0172   -4.4740   17.4101 C   0  0  0  0  0  0  0  0  0  0  0  0
    6.9051   -7.9575   16.4222 C   0  0  0  0  0  0  0  0  0  0  0  0
    8.9969   -6.3552   17.9668 N   0  0  0  0  0  0  0  0  0  0  0  0
   10.6702   -3.9051   22.4070 C   0  0  0  0  0  0  0  0  0  0  0  0
   11.0625   -3.0028   18.8894 C   0  0  0  0  0  0  0  0  0  0  0  0
    5.6180   -7.9194   16.1754 O   0  0  0  0  0  0  0  0  0  0  0  0
    9.7259   -5.3080   18.4485 C   0  0  0  0  0  0  0  0  0  0  0  0
    9.4578   -5.0200   16.3036 N   0  0  0  0  0  0  0  0  0  0  0  0
    5.0287   -8.9365   16.8223 C   0  0  0  0  0  0  0  0  0  0  0  0
    8.7742   -6.1498   16.6764 C   0  0  0  0  0  0  0  0  0  0  0  0
   10.9418   -3.4032   21.2053 O   0  0  0  0  0  0  0  0  0  0  0  0
    1.4797   -8.6258   16.2950 C   0  0  0  0  0  0  0  0  0  0  0  0
    9.2861   -1.2743   25.3585 C   0  0  0  0  0  0  0  0  0  0  0  0
    1.8892  -10.3985   17.7511 N   0  0  0  0  0  0  0  0  0  0  0  0
    9.6210   -0.6952   24.0976 C   0  0  0  0  0  0  0  0  0  0  0  0
    7.0792   -9.0217   17.1429 C   0  0  0  0  0  0  0  0  0  0  0  0
    3.1713  -10.1816   17.6634 C   0  0  0  0  0  0  0  0  0  0  0  0
    2.7878   -8.3822   16.2137 C   0  0  0  0  0  0  0  0  0  0  0  0
    9.4601   -2.6590   25.6528 C   0  0  0  0  0  0  0  0  0  0  0  0
   10.1182   -1.5672   23.1165 C   0  0  0  0  0  0  0  0  0  0  0  0
    1.0552   -9.6360   17.0650 C   0  0  0  0  0  0  0  0  0  0  0  0
    3.6519   -9.1783   16.9039 C   0  0  0  0  0  0  0  0  0  0  0  0
    7.8675   -7.0096   15.9415 C   0  0  0  0  0  0  0  0  0  0  0  0
    5.9733   -9.6553   17.3832 N   0  0  0  0  0  0  0  0  0  0  0  0
   10.2411   -2.9363   23.4301 C   0  0  0  0  0  0  0  0  0  0  0  0
   10.7288   -3.8197   19.9525 C   0  0  0  0  0  0  0  0  0  0  0  0
   10.1189   -5.0054   19.6987 C   0  0  0  0  0  0  0  0  0  0  0  0
  1  3  4  0
  1  7  4  0
  2 21  4  0
  2 27  4  0
  3  9  4  0
  3 10  4  0
  4  8  4  0
  4 18  4  0
  4 25  1  0
  5  9  4  0
  5 12  4  0
  6 13  1  0
  6 27  1  0
  7 28  4  0
  8 11  4  0
  9 29  4  0
 10 12  4  0
 11 24  1  0
 11 26  4  0
 12 25  1  0
 13 28  1  0
 14 20  4  0
 14 23  4  0
 15 17  4  0
 15 21  4  0
 16 19  4  0
 16 23  4  0
 17 22  4  0
 18 26  4  0
 19 24  4  0
 20 24  4  0
 22 27  4  0
 28 29  4  0
M  END
$$$$

 Created by Python create_sdf_string function

 29 33  0  0  0  0  0  0  0  0999 V2000
   10.7215   -3.3326   17.6437 C   0  0  0  0  0  0  0  0  0  0  0  0
    9.9489   -3.4675   24.6487 N   0  0  0  0  0  0  0  0  0  0  0  0
   10.0172   -4.4740   17.4101 C   0  0  0  0  0  0  0  0  0  0  0  0
    6.9051   -7.9575   16.4222 C   0  0  0  0  0  0  0  0  0  0  0  0
    8.9969   -6.3552   17.9668 N   0  0  0  0  0  0  0  0  0  0  0  0
   10.6702   -3.9051   22.4070 C   0  0  0  0  0  0  0  0  0  0  0  0
   11.0625   -3.0028   18.8894 C   0  0  0  0  0  0  0  0  0  0  0  0
    5.6180   -7.9194   16.1754 O   0  0  0  0  0  0  0  0  0  0  0  0
    9.7259   -5.3080   18.4485 C   0  0  0  0  0  0  0  0  0  0  0  0
    9.4578   -5.0200   16.3036 N   0  0  0  0  0  0  0  0  0  0  0  0
    5.0287   -8.9365   16.8223 C   0  0  0  0  0  0  0  0  0  0  0  0
    8.7742   -6.1498   16.6764 C   0  0  0  0  0  0  0  0  0  0  0  0
   10.9418   -3.4032   21.2053 O   0  0  0  0  0  0  0  0  0  0  0  0
    1.4797   -8.6258   16.2950 C   0  0  0  0  0  0  0  0  0  0  0  0
    9.2861   -1.2743   25.3585 C   0  0  0  0  0  0  0  0  0  0  0  0
    1.8892  -10.3985   17.7511 N   0  0  0  0  0  0  0  0  0  0  0  0
    9.6210   -0.6952   24.0976 C   0  0  0  0  0  0  0  0  0  0  0  0
    7.0792   -9.0217   17.1429 C   0  0  0  0  0  0  0  0  0  0  0  0
    3.1713  -10.1816   17.6634 C   0  0  0  0  0  0  0  0  0  0  0  0
    2.7878   -8.3822   16.2137 C   0  0  0  0  0  0  0  0  0  0  0  0
    9.4601   -2.6590   25.6528 C   0  0  0  0  0  0  0  0  0  0  0  0
   10.1182   -1.5672   23.1165 C   0  0  0  0  0  0  0  0  0  0  0  0
    1.0552   -9.6360   17.0650 C   0  0  0  0  0  0  0  0  0  0  0  0
    3.6519   -9.1783   16.9039 C   0  0  0  0  0  0  0  0  0  0  0  0
    7.8675   -7.0096   15.9415 C   0  0  0  0  0  0  0  0  0  0  0  0
    5.9733   -9.6553   17.3832 N   0  0  0  0  0  0  0  0  0  0  0  0
   10.2411   -2.9363   23.4301 C   0  0  0  0  0  0  0  0  0  0  0  0
   10.7288   -3.8197   19.9525 C   0  0  0  0  0  0  0  0  0  0  0  0
   10.1189   -5.0054   19.6987 C   0  0  0  0  0  0  0  0  0  0  0  0
  1  3  4  0
  1  7  4  0
  2 21  4  0
  2 27  4  0
  3  9  4  0
  3 10  4  0
  4  8  4  0
  4 18  4  0
  4 25  1  0
  5  9  4  0
  5 12  4  0
  6 13  1  0
  6 27  1  0
  7 28  4  0
  8 11  4  0
  9 29  4  0
 10 12  4  0
 11 24  1  0
 11 26  4  0
 12 25  1  0
 13 28  1  0
 14 20  4  0
 14 23  4  0
 15 17  4  0
 15 21  4  0
 16 19  4  0
 16 23  4  0
 17 22  4  0
 18 26  4  0
 19 24  4  0
 20 24  4  0
 22 27  4  0
 28 29  4  0
M  END
$$$$

 Created by Python create_sdf_string function

 29 33  0  0  0  0  0  0  0  0999 V2000
   10.7215   -3.3326   17.6437 C   0  0  0  0  0  0  0  0  0  0  0  0
    9.9489   -3.4675   24.6487 N   0  0  0  0  0  0  0  0  0  0  0  0
   10.0172   -4.4740   17.4101 C   0  0  0  0  0  0  0  0  0  0  0  0
    6.9051   -7.9575   16.4222 C   0  0  0  0  0  0  0  0  0  0  0  0
    8.9969   -6.3552   17.9668 N   0  0  0  0  0  0  0  0  0  0  0  0
   10.6702   -3.9051   22.4070 C   0  0  0  0  0  0  0  0  0  0  0  0
   11.0625   -3.0028   18.8894 C   0  0  0  0  0  0  0  0  0  0  0  0
    5.6180   -7.9194   16.1754 O   0  0  0  0  0  0  0  0  0  0  0  0
    9.7259   -5.3080   18.4485 C   0  0  0  0  0  0  0  0  0  0  0  0
    9.4578   -5.0200   16.3036 N   0  0  0  0  0  0  0  0  0  0  0  0
    5.0287   -8.9365   16.8223 C   0  0  0  0  0  0  0  0  0  0  0  0
    8.7742   -6.1498   16.6764 C   0  0  0  0  0  0  0  0  0  0  0  0
   10.9418   -3.4032   21.2053 O   0  0  0  0  0  0  0  0  0  0  0  0
    1.4797   -8.6258   16.2950 C   0  0  0  0  0  0  0  0  0  0  0  0
    9.2861   -1.2743   25.3585 C   0  0  0  0  0  0  0  0  0  0  0  0
    1.8892  -10.3985   17.7511 N   0  0  0  0  0  0  0  0  0  0  0  0
    9.6210   -0.6952   24.0976 C   0  0  0  0  0  0  0  0  0  0  0  0
    7.0792   -9.0217   17.1429 C   0  0  0  0  0  0  0  0  0  0  0  0
    3.1713  -10.1816   17.6634 C   0  0  0  0  0  0  0  0  0  0  0  0
    2.7878   -8.3822   16.2137 C   0  0  0  0  0  0  0  0  0  0  0  0
    9.4601   -2.6590   25.6528 C   0  0  0  0  0  0  0  0  0  0  0  0
   10.1182   -1.5672   23.1165 C   0  0  0  0  0  0  0  0  0  0  0  0
    1.0552   -9.6360   17.0650 C   0  0  0  0  0  0  0  0  0  0  0  0
    3.6519   -9.1783   16.9039 C   0  0  0  0  0  0  0  0  0  0  0  0
    7.8675   -7.0096   15.9415 C   0  0  0  0  0  0  0  0  0  0  0  0
    5.9733   -9.6553   17.3832 N   0  0  0  0  0  0  0  0  0  0  0  0
   10.2411   -2.9363   23.4301 C   0  0  0  0  0  0  0  0  0  0  0  0
   10.7288   -3.8197   19.9525 C   0  0  0  0  0  0  0  0  0  0  0  0
   10.1189   -5.0054   19.6987 C   0  0  0  0  0  0  0  0  0  0  0  0
  1  3  4  0
  1  7  4  0
  2 21  4  0
  2 27  4  0
  3  9  4  0
  3 10  4  0
  4  8  4  0
  4 18  4  0
  4 25  1  0
  5  9  4  0
  5 12  4  0
  6 13  1  0
  6 27  1  0
  7 28  4  0
  8 11  4  0
  9 29  4  0
 10 12  4  0
 11 24  1  0
 11 26  4  0
 12 25  1  0
 13 28  1  0
 14 20  4  0
 14 23  4  0
 15 17  4  0
 15 21  4  0
 16 19  4  0
 16 23  4  0
 17 22  4  0
 18 26  4  0
 19 24  4  0
 20 24  4  0
 22 27  4  0
 28 29  4  0
M  END
$$$$

 Created by Python create_sdf_string function

 29 33  0  0  0  0  0  0  0  0999 V2000
   10.7215   -3.3326   17.6437 C   0  0  0  0  0  0  0  0  0  0  0  0
    9.9489   -3.4675   24.6487 N   0  0  0  0  0  0  0  0  0  0  0  0
   10.0172   -4.4740   17.4101 C   0  0  0  0  0  0  0  0  0  0  0  0
    6.9051   -7.9575   16.4222 C   0  0  0  0  0  0  0  0  0  0  0  0
    8.9969   -6.3552   17.9668 N   0  0  0  0  0  0  0  0  0  0  0  0
   10.6702   -3.9051   22.4070 C   0  0  0  0  0  0  0  0  0  0  0  0
   11.0625   -3.0028   18.8894 C   0  0  0  0  0  0  0  0  0  0  0  0
    5.6180   -7.9194   16.1754 O   0  0  0  0  0  0  0  0  0  0  0  0
    9.7259   -5.3080   18.4485 C   0  0  0  0  0  0  0  0  0  0  0  0
    9.4578   -5.0200   16.3036 N   0  0  0  0  0  0  0  0  0  0  0  0
    5.0287   -8.9365   16.8223 C   0  0  0  0  0  0  0  0  0  0  0  0
    8.7742   -6.1498   16.6764 C   0  0  0  0  0  0  0  0  0  0  0  0
   10.9418   -3.4032   21.2053 O   0  0  0  0  0  0  0  0  0  0  0  0
    1.4797   -8.6258   16.2950 C   0  0  0  0  0  0  0  0  0  0  0  0
    9.2861   -1.2743   25.3585 C   0  0  0  0  0  0  0  0  0  0  0  0
    1.8892  -10.3985   17.7511 N   0  0  0  0  0  0  0  0  0  0  0  0
    9.6210   -0.6952   24.0976 C   0  0  0  0  0  0  0  0  0  0  0  0
    7.0792   -9.0217   17.1429 C   0  0  0  0  0  0  0  0  0  0  0  0
    3.1713  -10.1816   17.6634 C   0  0  0  0  0  0  0  0  0  0  0  0
    2.7878   -8.3822   16.2137 C   0  0  0  0  0  0  0  0  0  0  0  0
    9.4601   -2.6590   25.6528 C   0  0  0  0  0  0  0  0  0  0  0  0
   10.1182   -1.5672   23.1165 C   0  0  0  0  0  0  0  0  0  0  0  0
    1.0552   -9.6360   17.0650 C   0  0  0  0  0  0  0  0  0  0  0  0
    3.6519   -9.1783   16.9039 C   0  0  0  0  0  0  0  0  0  0  0  0
    7.8675   -7.0096   15.9415 C   0  0  0  0  0  0  0  0  0  0  0  0
    5.9733   -9.6553   17.3832 N   0  0  0  0  0  0  0  0  0  0  0  0
   10.2411   -2.9363   23.4301 C   0  0  0  0  0  0  0  0  0  0  0  0
   10.7288   -3.8197   19.9525 C   0  0  0  0  0  0  0  0  0  0  0  0
   10.1189   -5.0054   19.6987 C   0  0  0  0  0  0  0  0  0  0  0  0
  1  3  4  0
  1  7  4  0
  2 21  4  0
  2 27  4  0
  3  9  4  0
  3 10  4  0
  4  8  4  0
  4 18  4  0
  4 25  1  0
  5  9  4  0
  5 12  4  0
  6 13  1  0
  6 27  1  0
  7 28  4  0
  8 11  4  0
  9 29  4  0
 10 12  4  0
 11 24  1  0
 11 26  4  0
 12 25  1  0
 13 28  1  0
 14 20  4  0
 14 23  4  0
 15 17  4  0
 15 21  4  0
 16 19  4  0
 16 23  4  0
 17 22  4  0
 18 26  4  0
 19 24  4  0
 20 24  4  0
 22 27  4  0
 28 29  4  0
M  END
$$$$

 Created by Python create_sdf_string function

 29 33  0  0  0  0  0  0  0  0999 V2000
   10.7215   -3.3326   17.6437 C   0  0  0  0  0  0  0  0  0  0  0  0
    9.9489   -3.4675   24.6487 N   0  0  0  0  0  0  0  0  0  0  0  0
   10.0172   -4.4740   17.4101 C   0  0  0  0  0  0  0  0  0  0  0  0
    6.9051   -7.9575   16.4222 C   0  0  0  0  0  0  0  0  0  0  0  0
    8.9969   -6.3552   17.9668 N   0  0  0  0  0  0  0  0  0  0  0  0
   10.6702   -3.9051   22.4070 C   0  0  0  0  0  0  0  0  0  0  0  0
   11.0625   -3.0028   18.8894 C   0  0  0  0  0  0  0  0  0  0  0  0
    5.6180   -7.9194   16.1754 O   0  0  0  0  0  0  0  0  0  0  0  0
    9.7259   -5.3080   18.4485 C   0  0  0  0  0  0  0  0  0  0  0  0
    9.4578   -5.0200   16.3036 N   0  0  0  0  0  0  0  0  0  0  0  0
    5.0287   -8.9365   16.8223 C   0  0  0  0  0  0  0  0  0  0  0  0
    8.7742   -6.1498   16.6764 C   0  0  0  0  0  0  0  0  0  0  0  0
   10.9418   -3.4032   21.2053 O   0  0  0  0  0  0  0  0  0  0  0  0
    1.4797   -8.6258   16.2950 C   0  0  0  0  0  0  0  0  0  0  0  0
    9.2861   -1.2743   25.3585 C   0  0  0  0  0  0  0  0  0  0  0  0
    1.8892  -10.3985   17.7511 N   0  0  0  0  0  0  0  0  0  0  0  0
    9.6210   -0.6952   24.0976 C   0  0  0  0  0  0  0  0  0  0  0  0
    7.0792   -9.0217   17.1429 C   0  0  0  0  0  0  0  0  0  0  0  0
    3.1713  -10.1816   17.6634 C   0  0  0  0  0  0  0  0  0  0  0  0
    2.7878   -8.3822   16.2137 C   0  0  0  0  0  0  0  0  0  0  0  0
    9.4601   -2.6590   25.6528 C   0  0  0  0  0  0  0  0  0  0  0  0
   10.1182   -1.5672   23.1165 C   0  0  0  0  0  0  0  0  0  0  0  0
    1.0552   -9.6360   17.0650 C   0  0  0  0  0  0  0  0  0  0  0  0
    3.6519   -9.1783   16.9039 C   0  0  0  0  0  0  0  0  0  0  0  0
    7.8675   -7.0096   15.9415 C   0  0  0  0  0  0  0  0  0  0  0  0
    5.9733   -9.6553   17.3832 N   0  0  0  0  0  0  0  0  0  0  0  0
   10.2411   -2.9363   23.4301 C   0  0  0  0  0  0  0  0  0  0  0  0
   10.7288   -3.8197   19.9525 C   0  0  0  0  0  0  0  0  0  0  0  0
   10.1189   -5.0054   19.6987 C   0  0  0  0  0  0  0  0  0  0  0  0
  1  3  4  0
  1  7  4  0
  2 21  4  0
  2 27  4  0
  3  9  4  0
  3 10  4  0
  4  8  4  0
  4 18  4  0
  4 25  1  0
  5  9  4  0
  5 12  4  0
  6 13  1  0
  6 27  1  0
  7 28  4  0
  8 11  4  0
  9 29  4  0
 10 12  4  0
 11 24  1  0
 11 26  4  0
 12 25  1  0
 13 28  1  0
 14 20  4  0
 14 23  4  0
 15 17  4  0
 15 21  4  0
 16 19  4  0
 16 23  4  0
 17 22  4  0
 18 26  4  0
 19 24  4  0
 20 24  4  0
 22 27  4  0
 28 29  4  0
M  END
$$$$

 Created by Python create_sdf_string function

 29 33  0  0  0  0  0  0  0  0999 V2000
   10.7215   -3.3326   17.6437 C   0  0  0  0  0  0  0  0  0  0  0  0
    9.9489   -3.4675   24.6487 N   0  0  0  0  0  0  0  0  0  0  0  0
   10.0172   -4.4740   17.4101 C   0  0  0  0  0  0  0  0  0  0  0  0
    6.9051   -7.9575   16.4222 C   0  0  0  0  0  0  0  0  0  0  0  0
    8.9969   -6.3552   17.9668 N   0  0  0  0  0  0  0  0  0  0  0  0
   10.6702   -3.9051   22.4070 C   0  0  0  0  0  0  0  0  0  0  0  0
   11.0625   -3.0028   18.8894 C   0  0  0  0  0  0  0  0  0  0  0  0
    5.6180   -7.9194   16.1754 O   0  0  0  0  0  0  0  0  0  0  0  0
    9.7259   -5.3080   18.4485 C   0  0  0  0  0  0  0  0  0  0  0  0
    9.4578   -5.0200   16.3036 N   0  0  0  0  0  0  0  0  0  0  0  0
    5.0287   -8.9365   16.8223 C   0  0  0  0  0  0  0  0  0  0  0  0
    8.7742   -6.1498   16.6764 C   0  0  0  0  0  0  0  0  0  0  0  0
   10.9418   -3.4032   21.2053 O   0  0  0  0  0  0  0  0  0  0  0  0
    1.4797   -8.6258   16.2950 C   0  0  0  0  0  0  0  0  0  0  0  0
    9.2861   -1.2743   25.3585 C   0  0  0  0  0  0  0  0  0  0  0  0
    1.8892  -10.3985   17.7511 N   0  0  0  0  0  0  0  0  0  0  0  0
    9.6210   -0.6952   24.0976 C   0  0  0  0  0  0  0  0  0  0  0  0
    7.0792   -9.0217   17.1429 C   0  0  0  0  0  0  0  0  0  0  0  0
    3.1713  -10.1816   17.6634 C   0  0  0  0  0  0  0  0  0  0  0  0
    2.7878   -8.3822   16.2137 C   0  0  0  0  0  0  0  0  0  0  0  0
    9.4601   -2.6590   25.6528 C   0  0  0  0  0  0  0  0  0  0  0  0
   10.1182   -1.5672   23.1165 C   0  0  0  0  0  0  0  0  0  0  0  0
    1.0552   -9.6360   17.0650 C   0  0  0  0  0  0  0  0  0  0  0  0
    3.6519   -9.1783   16.9039 C   0  0  0  0  0  0  0  0  0  0  0  0
    7.8675   -7.0096   15.9415 C   0  0  0  0  0  0  0  0  0  0  0  0
    5.9733   -9.6553   17.3832 N   0  0  0  0  0  0  0  0  0  0  0  0
   10.2411   -2.9363   23.4301 C   0  0  0  0  0  0  0  0  0  0  0  0
   10.7288   -3.8197   19.9525 C   0  0  0  0  0  0  0  0  0  0  0  0
   10.1189   -5.0054   19.6987 C   0  0  0  0  0  0  0  0  0  0  0  0
  1  3  4  0
  1  7  4  0
  2 21  4  0
  2 27  4  0
  3  9  4  0
  3 10  4  0
  4  8  4  0
  4 18  4  0
  4 25  1  0
  5  9  4  0
  5 12  4  0
  6 13  1  0
  6 27  1  0
  7 28  4  0
  8 11  4  0
  9 29  4  0
 10 12  4  0
 11 24  1  0
 11 26  4  0
 12 25  1  0
 13 28  1  0
 14 20  4  0
 14 23  4  0
 15 17  4  0
 15 21  4  0
 16 19  4  0
 16 23  4  0
 17 22  4  0
 18 26  4  0
 19 24  4  0
 20 24  4  0
 22 27  4  0
 28 29  4  0
M  END
$$$$

 Created by Python create_sdf_string function

 29 33  0  0  0  0  0  0  0  0999 V2000
   10.7215   -3.3326   17.6437 C   0  0  0  0  0  0  0  0  0  0  0  0
    9.9489   -3.4675   24.6487 N   0  0  0  0  0  0  0  0  0  0  0  0
   10.0172   -4.4740   17.4101 C   0  0  0  0  0  0  0  0  0  0  0  0
    6.9051   -7.9575   16.4222 C   0  0  0  0  0  0  0  0  0  0  0  0
    8.9969   -6.3552   17.9668 N   0  0  0  0  0  0  0  0  0  0  0  0
   10.6702   -3.9051   22.4070 C   0  0  0  0  0  0  0  0  0  0  0  0
   11.0625   -3.0028   18.8894 C   0  0  0  0  0  0  0  0  0  0  0  0
    5.6180   -7.9194   16.1754 O   0  0  0  0  0  0  0  0  0  0  0  0
    9.7259   -5.3080   18.4485 C   0  0  0  0  0  0  0  0  0  0  0  0
    9.4578   -5.0200   16.3036 N   0  0  0  0  0  0  0  0  0  0  0  0
    5.0287   -8.9365   16.8223 C   0  0  0  0  0  0  0  0  0  0  0  0
    8.7742   -6.1498   16.6764 C   0  0  0  0  0  0  0  0  0  0  0  0
   10.9418   -3.4032   21.2053 O   0  0  0  0  0  0  0  0  0  0  0  0
    1.4797   -8.6258   16.2950 C   0  0  0  0  0  0  0  0  0  0  0  0
    9.2861   -1.2743   25.3585 C   0  0  0  0  0  0  0  0  0  0  0  0
    1.8892  -10.3985   17.7511 N   0  0  0  0  0  0  0  0  0  0  0  0
    9.6210   -0.6952   24.0976 C   0  0  0  0  0  0  0  0  0  0  0  0
    7.0792   -9.0217   17.1429 C   0  0  0  0  0  0  0  0  0  0  0  0
    3.1713  -10.1816   17.6634 C   0  0  0  0  0  0  0  0  0  0  0  0
    2.7878   -8.3822   16.2137 C   0  0  0  0  0  0  0  0  0  0  0  0
    9.4601   -2.6590   25.6528 C   0  0  0  0  0  0  0  0  0  0  0  0
   10.1182   -1.5672   23.1165 C   0  0  0  0  0  0  0  0  0  0  0  0
    1.0552   -9.6360   17.0650 C   0  0  0  0  0  0  0  0  0  0  0  0
    3.6519   -9.1783   16.9039 C   0  0  0  0  0  0  0  0  0  0  0  0
    7.8675   -7.0096   15.9415 C   0  0  0  0  0  0  0  0  0  0  0  0
    5.9733   -9.6553   17.3832 N   0  0  0  0  0  0  0  0  0  0  0  0
   10.2411   -2.9363   23.4301 C   0  0  0  0  0  0  0  0  0  0  0  0
   10.7288   -3.8197   19.9525 C   0  0  0  0  0  0  0  0  0  0  0  0
   10.1189   -5.0054   19.6987 C   0  0  0  0  0  0  0  0  0  0  0  0
  1  3  4  0
  1  7  4  0
  2 21  4  0
  2 27  4  0
  3  9  4  0
  3 10  4  0
  4  8  4  0
  4 18  4  0
  4 25  1  0
  5  9  4  0
  5 12  4  0
  6 13  1  0
  6 27  1  0
  7 28  4  0
  8 11  4  0
  9 29  4  0
 10 12  4  0
 11 24  1  0
 11 26  4  0
 12 25  1  0
 13 28  1  0
 14 20  4  0
 14 23  4  0
 15 17  4  0
 15 21  4  0
 16 19  4  0
 16 23  4  0
 17 22  4  0
 18 26  4  0
 19 24  4  0
 20 24  4  0
 22 27  4  0
 28 29  4  0
M  END
$$$$

 Created by Python create_sdf_string function

 29 33  0  0  0  0  0  0  0  0999 V2000
   10.7215   -3.3326   17.6437 C   0  0  0  0  0  0  0  0  0  0  0  0
    9.9489   -3.4675   24.6487 N   0  0  0  0  0  0  0  0  0  0  0  0
   10.0172   -4.4740   17.4101 C   0  0  0  0  0  0  0  0  0  0  0  0
    6.9051   -7.9575   16.4222 C   0  0  0  0  0  0  0  0  0  0  0  0
    8.9969   -6.3552   17.9668 N   0  0  0  0  0  0  0  0  0  0  0  0
   10.6702   -3.9051   22.4070 C   0  0  0  0  0  0  0  0  0  0  0  0
   11.0625   -3.0028   18.8894 C   0  0  0  0  0  0  0  0  0  0  0  0
    5.6180   -7.9194   16.1754 O   0  0  0  0  0  0  0  0  0  0  0  0
    9.7259   -5.3080   18.4485 C   0  0  0  0  0  0  0  0  0  0  0  0
    9.4578   -5.0200   16.3036 N   0  0  0  0  0  0  0  0  0  0  0  0
    5.0287   -8.9365   16.8223 C   0  0  0  0  0  0  0  0  0  0  0  0
    8.7742   -6.1498   16.6764 C   0  0  0  0  0  0  0  0  0  0  0  0
   10.9418   -3.4032   21.2053 O   0  0  0  0  0  0  0  0  0  0  0  0
    1.4797   -8.6258   16.2950 C   0  0  0  0  0  0  0  0  0  0  0  0
    9.2861   -1.2743   25.3585 C   0  0  0  0  0  0  0  0  0  0  0  0
    1.8892  -10.3985   17.7511 N   0  0  0  0  0  0  0  0  0  0  0  0
    9.6210   -0.6952   24.0976 C   0  0  0  0  0  0  0  0  0  0  0  0
    7.0792   -9.0217   17.1429 C   0  0  0  0  0  0  0  0  0  0  0  0
    3.1713  -10.1816   17.6634 C   0  0  0  0  0  0  0  0  0  0  0  0
    2.7878   -8.3822   16.2137 C   0  0  0  0  0  0  0  0  0  0  0  0
    9.4601   -2.6590   25.6528 C   0  0  0  0  0  0  0  0  0  0  0  0
   10.1182   -1.5672   23.1165 C   0  0  0  0  0  0  0  0  0  0  0  0
    1.0552   -9.6360   17.0650 C   0  0  0  0  0  0  0  0  0  0  0  0
    3.6519   -9.1783   16.9039 C   0  0  0  0  0  0  0  0  0  0  0  0
    7.8675   -7.0096   15.9415 C   0  0  0  0  0  0  0  0  0  0  0  0
    5.9733   -9.6553   17.3832 N   0  0  0  0  0  0  0  0  0  0  0  0
   10.2411   -2.9363   23.4301 C   0  0  0  0  0  0  0  0  0  0  0  0
   10.7288   -3.8197   19.9525 C   0  0  0  0  0  0  0  0  0  0  0  0
   10.1189   -5.0054   19.6987 C   0  0  0  0  0  0  0  0  0  0  0  0
  1  3  4  0
  1  7  4  0
  2 21  4  0
  2 27  4  0
  3  9  4  0
  3 10  4  0
  4  8  4  0
  4 18  4  0
  4 25  1  0
  5  9  4  0
  5 12  4  0
  6 13  1  0
  6 27  1  0
  7 28  4  0
  8 11  4  0
  9 29  4  0
 10 12  4  0
 11 24  1  0
 11 26  4  0
 12 25  1  0
 13 28  1  0
 14 20  4  0
 14 23  4  0
 15 17  4  0
 15 21  4  0
 16 19  4  0
 16 23  4  0
 17 22  4  0
 18 26  4  0
 19 24  4  0
 20 24  4  0
 22 27  4  0
 28 29  4  0
M  END
$$$$

 Created by Python create_sdf_string function

 29 33  0  0  0  0  0  0  0  0999 V2000
   10.7215   -3.3326   17.6437 C   0  0  0  0  0  0  0  0  0  0  0  0
    9.9489   -3.4675   24.6487 N   0  0  0  0  0  0  0  0  0  0  0  0
   10.0172   -4.4740   17.4101 C   0  0  0  0  0  0  0  0  0  0  0  0
    6.9051   -7.9575   16.4222 C   0  0  0  0  0  0  0  0  0  0  0  0
    8.9969   -6.3552   17.9668 N   0  0  0  0  0  0  0  0  0  0  0  0
   10.6702   -3.9051   22.4070 C   0  0  0  0  0  0  0  0  0  0  0  0
   11.0625   -3.0028   18.8894 C   0  0  0  0  0  0  0  0  0  0  0  0
    5.6180   -7.9194   16.1754 O   0  0  0  0  0  0  0  0  0  0  0  0
    9.7259   -5.3080   18.4485 C   0  0  0  0  0  0  0  0  0  0  0  0
    9.4578   -5.0200   16.3036 N   0  0  0  0  0  0  0  0  0  0  0  0
    5.0287   -8.9365   16.8223 C   0  0  0  0  0  0  0  0  0  0  0  0
    8.7742   -6.1498   16.6764 C   0  0  0  0  0  0  0  0  0  0  0  0
   10.9418   -3.4032   21.2053 O   0  0  0  0  0  0  0  0  0  0  0  0
    1.4797   -8.6258   16.2950 C   0  0  0  0  0  0  0  0  0  0  0  0
    9.2861   -1.2743   25.3585 C   0  0  0  0  0  0  0  0  0  0  0  0
    1.8892  -10.3985   17.7511 N   0  0  0  0  0  0  0  0  0  0  0  0
    9.6210   -0.6952   24.0976 C   0  0  0  0  0  0  0  0  0  0  0  0
    7.0792   -9.0217   17.1429 C   0  0  0  0  0  0  0  0  0  0  0  0
    3.1713  -10.1816   17.6634 C   0  0  0  0  0  0  0  0  0  0  0  0
    2.7878   -8.3822   16.2137 C   0  0  0  0  0  0  0  0  0  0  0  0
    9.4601   -2.6590   25.6528 C   0  0  0  0  0  0  0  0  0  0  0  0
   10.1182   -1.5672   23.1165 C   0  0  0  0  0  0  0  0  0  0  0  0
    1.0552   -9.6360   17.0650 C   0  0  0  0  0  0  0  0  0  0  0  0
    3.6519   -9.1783   16.9039 C   0  0  0  0  0  0  0  0  0  0  0  0
    7.8675   -7.0096   15.9415 C   0  0  0  0  0  0  0  0  0  0  0  0
    5.9733   -9.6553   17.3832 N   0  0  0  0  0  0  0  0  0  0  0  0
   10.2411   -2.9363   23.4301 C   0  0  0  0  0  0  0  0  0  0  0  0
   10.7288   -3.8197   19.9525 C   0  0  0  0  0  0  0  0  0  0  0  0
   10.1189   -5.0054   19.6987 C   0  0  0  0  0  0  0  0  0  0  0  0
  1  3  4  0
  1  7  4  0
  2 21  4  0
  2 27  4  0
  3  9  4  0
  3 10  4  0
  4  8  4  0
  4 18  4  0
  4 25  1  0
  5  9  4  0
  5 12  4  0
  6 13  1  0
  6 27  1  0
  7 28  4  0
  8 11  4  0
  9 29  4  0
 10 12  4  0
 11 24  1  0
 11 26  4  0
 12 25  1  0
 13 28  1  0
 14 20  4  0
 14 23  4  0
 15 17  4  0
 15 21  4  0
 16 19  4  0
 16 23  4  0
 17 22  4  0
 18 26  4  0
 19 24  4  0
 20 24  4  0
 22 27  4  0
 28 29  4  0
M  END
$$$$

 Created by Python create_sdf_string function

 29 33  0  0  0  0  0  0  0  0999 V2000
   10.7215   -3.3326   17.6437 C   0  0  0  0  0  0  0  0  0  0  0  0
    9.9489   -3.4675   24.6487 N   0  0  0  0  0  0  0  0  0  0  0  0
   10.0172   -4.4740   17.4101 C   0  0  0  0  0  0  0  0  0  0  0  0
    6.9051   -7.9575   16.4222 C   0  0  0  0  0  0  0  0  0  0  0  0
    8.9969   -6.3552   17.9668 N   0  0  0  0  0  0  0  0  0  0  0  0
   10.6702   -3.9051   22.4070 C   0  0  0  0  0  0  0  0  0  0  0  0
   11.0625   -3.0028   18.8894 C   0  0  0  0  0  0  0  0  0  0  0  0
    5.6180   -7.9194   16.1754 O   0  0  0  0  0  0  0  0  0  0  0  0
    9.7259   -5.3080   18.4485 C   0  0  0  0  0  0  0  0  0  0  0  0
    9.4578   -5.0200   16.3036 N   0  0  0  0  0  0  0  0  0  0  0  0
    5.0287   -8.9365   16.8223 C   0  0  0  0  0  0  0  0  0  0  0  0
    8.7742   -6.1498   16.6764 C   0  0  0  0  0  0  0  0  0  0  0  0
   10.9418   -3.4032   21.2053 O   0  0  0  0  0  0  0  0  0  0  0  0
    1.4797   -8.6258   16.2950 C   0  0  0  0  0  0  0  0  0  0  0  0
    9.2861   -1.2743   25.3585 C   0  0  0  0  0  0  0  0  0  0  0  0
    1.8892  -10.3985   17.7511 N   0  0  0  0  0  0  0  0  0  0  0  0
    9.6210   -0.6952   24.0976 C   0  0  0  0  0  0  0  0  0  0  0  0
    7.0792   -9.0217   17.1429 C   0  0  0  0  0  0  0  0  0  0  0  0
    3.1713  -10.1816   17.6634 C   0  0  0  0  0  0  0  0  0  0  0  0
    2.7878   -8.3822   16.2137 C   0  0  0  0  0  0  0  0  0  0  0  0
    9.4601   -2.6590   25.6528 C   0  0  0  0  0  0  0  0  0  0  0  0
   10.1182   -1.5672   23.1165 C   0  0  0  0  0  0  0  0  0  0  0  0
    1.0552   -9.6360   17.0650 C   0  0  0  0  0  0  0  0  0  0  0  0
    3.6519   -9.1783   16.9039 C   0  0  0  0  0  0  0  0  0  0  0  0
    7.8675   -7.0096   15.9415 C   0  0  0  0  0  0  0  0  0  0  0  0
    5.9733   -9.6553   17.3832 N   0  0  0  0  0  0  0  0  0  0  0  0
   10.2411   -2.9363   23.4301 C   0  0  0  0  0  0  0  0  0  0  0  0
   10.7288   -3.8197   19.9525 C   0  0  0  0  0  0  0  0  0  0  0  0
   10.1189   -5.0054   19.6987 C   0  0  0  0  0  0  0  0  0  0  0  0
  1  3  4  0
  1  7  4  0
  2 21  4  0
  2 27  4  0
  3  9  4  0
  3 10  4  0
  4  8  4  0
  4 18  4  0
  4 25  1  0
  5  9  4  0
  5 12  4  0
  6 13  1  0
  6 27  1  0
  7 28  4  0
  8 11  4  0
  9 29  4  0
 10 12  4  0
 11 24  1  0
 11 26  4  0
 12 25  1  0
 13 28  1  0
 14 20  4  0
 14 23  4  0
 15 17  4  0
 15 21  4  0
 16 19  4  0
 16 23  4  0
 17 22  4  0
 18 26  4  0
 19 24  4  0
 20 24  4  0
 22 27  4  0
 28 29  4  0
M  END
$$$$

 Created by Python create_sdf_string function

 29 33  0  0  0  0  0  0  0  0999 V2000
   10.7215   -3.3326   17.6437 C   0  0  0  0  0  0  0  0  0  0  0  0
    9.9489   -3.4675   24.6487 N   0  0  0  0  0  0  0  0  0  0  0  0
   10.0172   -4.4740   17.4101 C   0  0  0  0  0  0  0  0  0  0  0  0
    6.9051   -7.9575   16.4222 C   0  0  0  0  0  0  0  0  0  0  0  0
    8.9969   -6.3552   17.9668 N   0  0  0  0  0  0  0  0  0  0  0  0
   10.6702   -3.9051   22.4070 C   0  0  0  0  0  0  0  0  0  0  0  0
   11.0625   -3.0028   18.8894 C   0  0  0  0  0  0  0  0  0  0  0  0
    5.6180   -7.9194   16.1754 O   0  0  0  0  0  0  0  0  0  0  0  0
    9.7259   -5.3080   18.4485 C   0  0  0  0  0  0  0  0  0  0  0  0
    9.4578   -5.0200   16.3036 N   0  0  0  0  0  0  0  0  0  0  0  0
    5.0287   -8.9365   16.8223 C   0  0  0  0  0  0  0  0  0  0  0  0
    8.7742   -6.1498   16.6764 C   0  0  0  0  0  0  0  0  0  0  0  0
   10.9418   -3.4032   21.2053 O   0  0  0  0  0  0  0  0  0  0  0  0
    1.4797   -8.6258   16.2950 C   0  0  0  0  0  0  0  0  0  0  0  0
    9.2861   -1.2743   25.3585 C   0  0  0  0  0  0  0  0  0  0  0  0
    1.8892  -10.3985   17.7511 N   0  0  0  0  0  0  0  0  0  0  0  0
    9.6210   -0.6952   24.0976 C   0  0  0  0  0  0  0  0  0  0  0  0
    7.0792   -9.0217   17.1429 C   0  0  0  0  0  0  0  0  0  0  0  0
    3.1713  -10.1816   17.6634 C   0  0  0  0  0  0  0  0  0  0  0  0
    2.7878   -8.3822   16.2137 C   0  0  0  0  0  0  0  0  0  0  0  0
    9.4601   -2.6590   25.6528 C   0  0  0  0  0  0  0  0  0  0  0  0
   10.1182   -1.5672   23.1165 C   0  0  0  0  0  0  0  0  0  0  0  0
    1.0552   -9.6360   17.0650 C   0  0  0  0  0  0  0  0  0  0  0  0
    3.6519   -9.1783   16.9039 C   0  0  0  0  0  0  0  0  0  0  0  0
    7.8675   -7.0096   15.9415 C   0  0  0  0  0  0  0  0  0  0  0  0
    5.9733   -9.6553   17.3832 N   0  0  0  0  0  0  0  0  0  0  0  0
   10.2411   -2.9363   23.4301 C   0  0  0  0  0  0  0  0  0  0  0  0
   10.7288   -3.8197   19.9525 C   0  0  0  0  0  0  0  0  0  0  0  0
   10.1189   -5.0054   19.6987 C   0  0  0  0  0  0  0  0  0  0  0  0
  1  3  4  0
  1  7  4  0
  2 21  4  0
  2 27  4  0
  3  9  4  0
  3 10  4  0
  4  8  4  0
  4 18  4  0
  4 25  1  0
  5  9  4  0
  5 12  4  0
  6 13  1  0
  6 27  1  0
  7 28  4  0
  8 11  4  0
  9 29  4  0
 10 12  4  0
 11 24  1  0
 11 26  4  0
 12 25  1  0
 13 28  1  0
 14 20  4  0
 14 23  4  0
 15 17  4  0
 15 21  4  0
 16 19  4  0
 16 23  4  0
 17 22  4  0
 18 26  4  0
 19 24  4  0
 20 24  4  0
 22 27  4  0
 28 29  4  0
M  END
$$$$

 Created by Python create_sdf_string function

 29 33  0  0  0  0  0  0  0  0999 V2000
   10.7215   -3.3326   17.6437 C   0  0  0  0  0  0  0  0  0  0  0  0
    9.9489   -3.4675   24.6487 N   0  0  0  0  0  0  0  0  0  0  0  0
   10.0172   -4.4740   17.4101 C   0  0  0  0  0  0  0  0  0  0  0  0
    6.9051   -7.9575   16.4222 C   0  0  0  0  0  0  0  0  0  0  0  0
    8.9969   -6.3552   17.9668 N   0  0  0  0  0  0  0  0  0  0  0  0
   10.6702   -3.9051   22.4070 C   0  0  0  0  0  0  0  0  0  0  0  0
   11.0625   -3.0028   18.8894 C   0  0  0  0  0  0  0  0  0  0  0  0
    5.6180   -7.9194   16.1754 O   0  0  0  0  0  0  0  0  0  0  0  0
    9.7259   -5.3080   18.4485 C   0  0  0  0  0  0  0  0  0  0  0  0
    9.4578   -5.0200   16.3036 N   0  0  0  0  0  0  0  0  0  0  0  0
    5.0287   -8.9365   16.8223 C   0  0  0  0  0  0  0  0  0  0  0  0
    8.7742   -6.1498   16.6764 C   0  0  0  0  0  0  0  0  0  0  0  0
   10.9418   -3.4032   21.2053 O   0  0  0  0  0  0  0  0  0  0  0  0
    1.4797   -8.6258   16.2950 C   0  0  0  0  0  0  0  0  0  0  0  0
    9.2861   -1.2743   25.3585 C   0  0  0  0  0  0  0  0  0  0  0  0
    1.8892  -10.3985   17.7511 N   0  0  0  0  0  0  0  0  0  0  0  0
    9.6210   -0.6952   24.0976 C   0  0  0  0  0  0  0  0  0  0  0  0
    7.0792   -9.0217   17.1429 C   0  0  0  0  0  0  0  0  0  0  0  0
    3.1713  -10.1816   17.6634 C   0  0  0  0  0  0  0  0  0  0  0  0
    2.7878   -8.3822   16.2137 C   0  0  0  0  0  0  0  0  0  0  0  0
    9.4601   -2.6590   25.6528 C   0  0  0  0  0  0  0  0  0  0  0  0
   10.1182   -1.5672   23.1165 C   0  0  0  0  0  0  0  0  0  0  0  0
    1.0552   -9.6360   17.0650 C   0  0  0  0  0  0  0  0  0  0  0  0
    3.6519   -9.1783   16.9039 C   0  0  0  0  0  0  0  0  0  0  0  0
    7.8675   -7.0096   15.9415 C   0  0  0  0  0  0  0  0  0  0  0  0
    5.9733   -9.6553   17.3832 N   0  0  0  0  0  0  0  0  0  0  0  0
   10.2411   -2.9363   23.4301 C   0  0  0  0  0  0  0  0  0  0  0  0
   10.7288   -3.8197   19.9525 C   0  0  0  0  0  0  0  0  0  0  0  0
   10.1189   -5.0054   19.6987 C   0  0  0  0  0  0  0  0  0  0  0  0
  1  3  4  0
  1  7  4  0
  2 21  4  0
  2 27  4  0
  3  9  4  0
  3 10  4  0
  4  8  4  0
  4 18  4  0
  4 25  1  0
  5  9  4  0
  5 12  4  0
  6 13  1  0
  6 27  1  0
  7 28  4  0
  8 11  4  0
  9 29  4  0
 10 12  4  0
 11 24  1  0
 11 26  4  0
 12 25  1  0
 13 28  1  0
 14 20  4  0
 14 23  4  0
 15 17  4  0
 15 21  4  0
 16 19  4  0
 16 23  4  0
 17 22  4  0
 18 26  4  0
 19 24  4  0
 20 24  4  0
 22 27  4  0
 28 29  4  0
M  END
$$$$

 Created by Python create_sdf_string function

 29 33  0  0  0  0  0  0  0  0999 V2000
   10.7215   -3.3326   17.6437 C   0  0  0  0  0  0  0  0  0  0  0  0
    9.9489   -3.4675   24.6487 N   0  0  0  0  0  0  0  0  0  0  0  0
   10.0172   -4.4740   17.4101 C   0  0  0  0  0  0  0  0  0  0  0  0
    6.9051   -7.9575   16.4222 C   0  0  0  0  0  0  0  0  0  0  0  0
    8.9969   -6.3552   17.9668 N   0  0  0  0  0  0  0  0  0  0  0  0
   10.6702   -3.9051   22.4070 C   0  0  0  0  0  0  0  0  0  0  0  0
   11.0625   -3.0028   18.8894 C   0  0  0  0  0  0  0  0  0  0  0  0
    5.6180   -7.9194   16.1754 O   0  0  0  0  0  0  0  0  0  0  0  0
    9.7259   -5.3080   18.4485 C   0  0  0  0  0  0  0  0  0  0  0  0
    9.4578   -5.0200   16.3036 N   0  0  0  0  0  0  0  0  0  0  0  0
    5.0287   -8.9365   16.8223 C   0  0  0  0  0  0  0  0  0  0  0  0
    8.7742   -6.1498   16.6764 C   0  0  0  0  0  0  0  0  0  0  0  0
   10.9418   -3.4032   21.2053 O   0  0  0  0  0  0  0  0  0  0  0  0
    1.4797   -8.6258   16.2950 C   0  0  0  0  0  0  0  0  0  0  0  0
    9.2861   -1.2743   25.3585 C   0  0  0  0  0  0  0  0  0  0  0  0
    1.8892  -10.3985   17.7511 N   0  0  0  0  0  0  0  0  0  0  0  0
    9.6210   -0.6952   24.0976 C   0  0  0  0  0  0  0  0  0  0  0  0
    7.0792   -9.0217   17.1429 C   0  0  0  0  0  0  0  0  0  0  0  0
    3.1713  -10.1816   17.6634 C   0  0  0  0  0  0  0  0  0  0  0  0
    2.7878   -8.3822   16.2137 C   0  0  0  0  0  0  0  0  0  0  0  0
    9.4601   -2.6590   25.6528 C   0  0  0  0  0  0  0  0  0  0  0  0
   10.1182   -1.5672   23.1165 C   0  0  0  0  0  0  0  0  0  0  0  0
    1.0552   -9.6360   17.0650 C   0  0  0  0  0  0  0  0  0  0  0  0
    3.6519   -9.1783   16.9039 C   0  0  0  0  0  0  0  0  0  0  0  0
    7.8675   -7.0096   15.9415 C   0  0  0  0  0  0  0  0  0  0  0  0
    5.9733   -9.6553   17.3832 N   0  0  0  0  0  0  0  0  0  0  0  0
   10.2411   -2.9363   23.4301 C   0  0  0  0  0  0  0  0  0  0  0  0
   10.7288   -3.8197   19.9525 C   0  0  0  0  0  0  0  0  0  0  0  0
   10.1189   -5.0054   19.6987 C   0  0  0  0  0  0  0  0  0  0  0  0
  1  3  4  0
  1  7  4  0
  2 21  4  0
  2 27  4  0
  3  9  4  0
  3 10  4  0
  4  8  4  0
  4 18  4  0
  4 25  1  0
  5  9  4  0
  5 12  4  0
  6 13  1  0
  6 27  1  0
  7 28  4  0
  8 11  4  0
  9 29  4  0
 10 12  4  0
 11 24  1  0
 11 26  4  0
 12 25  1  0
 13 28  1  0
 14 20  4  0
 14 23  4  0
 15 17  4  0
 15 21  4  0
 16 19  4  0
 16 23  4  0
 17 22  4  0
 18 26  4  0
 19 24  4  0
 20 24  4  0
 22 27  4  0
 28 29  4  0
M  END
$$$$

 Created by Python create_sdf_string function

 29 33  0  0  0  0  0  0  0  0999 V2000
   10.7215   -3.3326   17.6437 C   0  0  0  0  0  0  0  0  0  0  0  0
    9.9489   -3.4675   24.6487 N   0  0  0  0  0  0  0  0  0  0  0  0
   10.0172   -4.4740   17.4101 C   0  0  0  0  0  0  0  0  0  0  0  0
    6.9051   -7.9575   16.4222 C   0  0  0  0  0  0  0  0  0  0  0  0
    8.9969   -6.3552   17.9668 N   0  0  0  0  0  0  0  0  0  0  0  0
   10.6702   -3.9051   22.4070 C   0  0  0  0  0  0  0  0  0  0  0  0
   11.0625   -3.0028   18.8894 C   0  0  0  0  0  0  0  0  0  0  0  0
    5.6180   -7.9194   16.1754 O   0  0  0  0  0  0  0  0  0  0  0  0
    9.7259   -5.3080   18.4485 C   0  0  0  0  0  0  0  0  0  0  0  0
    9.4578   -5.0200   16.3036 N   0  0  0  0  0  0  0  0  0  0  0  0
    5.0287   -8.9365   16.8223 C   0  0  0  0  0  0  0  0  0  0  0  0
    8.7742   -6.1498   16.6764 C   0  0  0  0  0  0  0  0  0  0  0  0
   10.9418   -3.4032   21.2053 O   0  0  0  0  0  0  0  0  0  0  0  0
    1.4797   -8.6258   16.2950 C   0  0  0  0  0  0  0  0  0  0  0  0
    9.2861   -1.2743   25.3585 C   0  0  0  0  0  0  0  0  0  0  0  0
    1.8892  -10.3985   17.7511 N   0  0  0  0  0  0  0  0  0  0  0  0
    9.6210   -0.6952   24.0976 C   0  0  0  0  0  0  0  0  0  0  0  0
    7.0792   -9.0217   17.1429 C   0  0  0  0  0  0  0  0  0  0  0  0
    3.1713  -10.1816   17.6634 C   0  0  0  0  0  0  0  0  0  0  0  0
    2.7878   -8.3822   16.2137 C   0  0  0  0  0  0  0  0  0  0  0  0
    9.4601   -2.6590   25.6528 C   0  0  0  0  0  0  0  0  0  0  0  0
   10.1182   -1.5672   23.1165 C   0  0  0  0  0  0  0  0  0  0  0  0
    1.0552   -9.6360   17.0650 C   0  0  0  0  0  0  0  0  0  0  0  0
    3.6519   -9.1783   16.9039 C   0  0  0  0  0  0  0  0  0  0  0  0
    7.8675   -7.0096   15.9415 C   0  0  0  0  0  0  0  0  0  0  0  0
    5.9733   -9.6553   17.3832 N   0  0  0  0  0  0  0  0  0  0  0  0
   10.2411   -2.9363   23.4301 C   0  0  0  0  0  0  0  0  0  0  0  0
   10.7288   -3.8197   19.9525 C   0  0  0  0  0  0  0  0  0  0  0  0
   10.1189   -5.0054   19.6987 C   0  0  0  0  0  0  0  0  0  0  0  0
  1  3  4  0
  1  7  4  0
  2 21  4  0
  2 27  4  0
  3  9  4  0
  3 10  4  0
  4  8  4  0
  4 18  4  0
  4 25  1  0
  5  9  4  0
  5 12  4  0
  6 13  1  0
  6 27  1  0
  7 28  4  0
  8 11  4  0
  9 29  4  0
 10 12  4  0
 11 24  1  0
 11 26  4  0
 12 25  1  0
 13 28  1  0
 14 20  4  0
 14 23  4  0
 15 17  4  0
 15 21  4  0
 16 19  4  0
 16 23  4  0
 17 22  4  0
 18 26  4  0
 19 24  4  0
 20 24  4  0
 22 27  4  0
 28 29  4  0
M  END
$$$$

 Created by Python create_sdf_string function

 29 33  0  0  0  0  0  0  0  0999 V2000
   10.7215   -3.3326   17.6437 C   0  0  0  0  0  0  0  0  0  0  0  0
    9.9489   -3.4675   24.6487 N   0  0  0  0  0  0  0  0  0  0  0  0
   10.0172   -4.4740   17.4101 C   0  0  0  0  0  0  0  0  0  0  0  0
    6.9051   -7.9575   16.4222 C   0  0  0  0  0  0  0  0  0  0  0  0
    8.9969   -6.3552   17.9668 N   0  0  0  0  0  0  0  0  0  0  0  0
   10.6702   -3.9051   22.4070 C   0  0  0  0  0  0  0  0  0  0  0  0
   11.0625   -3.0028   18.8894 C   0  0  0  0  0  0  0  0  0  0  0  0
    5.6180   -7.9194   16.1754 O   0  0  0  0  0  0  0  0  0  0  0  0
    9.7259   -5.3080   18.4485 C   0  0  0  0  0  0  0  0  0  0  0  0
    9.4578   -5.0200   16.3036 N   0  0  0  0  0  0  0  0  0  0  0  0
    5.0287   -8.9365   16.8223 C   0  0  0  0  0  0  0  0  0  0  0  0
    8.7742   -6.1498   16.6764 C   0  0  0  0  0  0  0  0  0  0  0  0
   10.9418   -3.4032   21.2053 O   0  0  0  0  0  0  0  0  0  0  0  0
    1.4797   -8.6258   16.2950 C   0  0  0  0  0  0  0  0  0  0  0  0
    9.2861   -1.2743   25.3585 C   0  0  0  0  0  0  0  0  0  0  0  0
    1.8892  -10.3985   17.7511 N   0  0  0  0  0  0  0  0  0  0  0  0
    9.6210   -0.6952   24.0976 C   0  0  0  0  0  0  0  0  0  0  0  0
    7.0792   -9.0217   17.1429 C   0  0  0  0  0  0  0  0  0  0  0  0
    3.1713  -10.1816   17.6634 C   0  0  0  0  0  0  0  0  0  0  0  0
    2.7878   -8.3822   16.2137 C   0  0  0  0  0  0  0  0  0  0  0  0
    9.4601   -2.6590   25.6528 C   0  0  0  0  0  0  0  0  0  0  0  0
   10.1182   -1.5672   23.1165 C   0  0  0  0  0  0  0  0  0  0  0  0
    1.0552   -9.6360   17.0650 C   0  0  0  0  0  0  0  0  0  0  0  0
    3.6519   -9.1783   16.9039 C   0  0  0  0  0  0  0  0  0  0  0  0
    7.8675   -7.0096   15.9415 C   0  0  0  0  0  0  0  0  0  0  0  0
    5.9733   -9.6553   17.3832 N   0  0  0  0  0  0  0  0  0  0  0  0
   10.2411   -2.9363   23.4301 C   0  0  0  0  0  0  0  0  0  0  0  0
   10.7288   -3.8197   19.9525 C   0  0  0  0  0  0  0  0  0  0  0  0
   10.1189   -5.0054   19.6987 C   0  0  0  0  0  0  0  0  0  0  0  0
  1  3  4  0
  1  7  4  0
  2 21  4  0
  2 27  4  0
  3  9  4  0
  3 10  4  0
  4  8  4  0
  4 18  4  0
  4 25  1  0
  5  9  4  0
  5 12  4  0
  6 13  1  0
  6 27  1  0
  7 28  4  0
  8 11  4  0
  9 29  4  0
 10 12  4  0
 11 24  1  0
 11 26  4  0
 12 25  1  0
 13 28  1  0
 14 20  4  0
 14 23  4  0
 15 17  4  0
 15 21  4  0
 16 19  4  0
 16 23  4  0
 17 22  4  0
 18 26  4  0
 19 24  4  0
 20 24  4  0
 22 27  4  0
 28 29  4  0
M  END
$$$$

 Created by Python create_sdf_string function

 29 33  0  0  0  0  0  0  0  0999 V2000
   10.7215   -3.3326   17.6437 C   0  0  0  0  0  0  0  0  0  0  0  0
    9.9489   -3.4675   24.6487 N   0  0  0  0  0  0  0  0  0  0  0  0
   10.0172   -4.4740   17.4101 C   0  0  0  0  0  0  0  0  0  0  0  0
    6.9051   -7.9575   16.4222 C   0  0  0  0  0  0  0  0  0  0  0  0
    8.9969   -6.3552   17.9668 N   0  0  0  0  0  0  0  0  0  0  0  0
   10.6702   -3.9051   22.4070 C   0  0  0  0  0  0  0  0  0  0  0  0
   11.0625   -3.0028   18.8894 C   0  0  0  0  0  0  0  0  0  0  0  0
    5.6180   -7.9194   16.1754 O   0  0  0  0  0  0  0  0  0  0  0  0
    9.7259   -5.3080   18.4485 C   0  0  0  0  0  0  0  0  0  0  0  0
    9.4578   -5.0200   16.3036 N   0  0  0  0  0  0  0  0  0  0  0  0
    5.0287   -8.9365   16.8223 C   0  0  0  0  0  0  0  0  0  0  0  0
    8.7742   -6.1498   16.6764 C   0  0  0  0  0  0  0  0  0  0  0  0
   10.9418   -3.4032   21.2053 O   0  0  0  0  0  0  0  0  0  0  0  0
    1.4797   -8.6258   16.2950 C   0  0  0  0  0  0  0  0  0  0  0  0
    9.2861   -1.2743   25.3585 C   0  0  0  0  0  0  0  0  0  0  0  0
    1.8892  -10.3985   17.7511 N   0  0  0  0  0  0  0  0  0  0  0  0
    9.6210   -0.6952   24.0976 C   0  0  0  0  0  0  0  0  0  0  0  0
    7.0792   -9.0217   17.1429 C   0  0  0  0  0  0  0  0  0  0  0  0
    3.1713  -10.1816   17.6634 C   0  0  0  0  0  0  0  0  0  0  0  0
    2.7878   -8.3822   16.2137 C   0  0  0  0  0  0  0  0  0  0  0  0
    9.4601   -2.6590   25.6528 C   0  0  0  0  0  0  0  0  0  0  0  0
   10.1182   -1.5672   23.1165 C   0  0  0  0  0  0  0  0  0  0  0  0
    1.0552   -9.6360   17.0650 C   0  0  0  0  0  0  0  0  0  0  0  0
    3.6519   -9.1783   16.9039 C   0  0  0  0  0  0  0  0  0  0  0  0
    7.8675   -7.0096   15.9415 C   0  0  0  0  0  0  0  0  0  0  0  0
    5.9733   -9.6553   17.3832 N   0  0  0  0  0  0  0  0  0  0  0  0
   10.2411   -2.9363   23.4301 C   0  0  0  0  0  0  0  0  0  0  0  0
   10.7288   -3.8197   19.9525 C   0  0  0  0  0  0  0  0  0  0  0  0
   10.1189   -5.0054   19.6987 C   0  0  0  0  0  0  0  0  0  0  0  0
  1  3  4  0
  1  7  4  0
  2 21  4  0
  2 27  4  0
  3  9  4  0
  3 10  4  0
  4  8  4  0
  4 18  4  0
  4 25  1  0
  5  9  4  0
  5 12  4  0
  6 13  1  0
  6 27  1  0
  7 28  4  0
  8 11  4  0
  9 29  4  0
 10 12  4  0
 11 24  1  0
 11 26  4  0
 12 25  1  0
 13 28  1  0
 14 20  4  0
 14 23  4  0
 15 17  4  0
 15 21  4  0
 16 19  4  0
 16 23  4  0
 17 22  4  0
 18 26  4  0
 19 24  4  0
 20 24  4  0
 22 27  4  0
 28 29  4  0
M  END
$$$$

 Created by Python create_sdf_string function

 29 33  0  0  0  0  0  0  0  0999 V2000
   10.7215   -3.3326   17.6437 C   0  0  0  0  0  0  0  0  0  0  0  0
    9.9489   -3.4675   24.6487 N   0  0  0  0  0  0  0  0  0  0  0  0
   10.0172   -4.4740   17.4101 C   0  0  0  0  0  0  0  0  0  0  0  0
    6.9051   -7.9575   16.4222 C   0  0  0  0  0  0  0  0  0  0  0  0
    8.9969   -6.3552   17.9668 N   0  0  0  0  0  0  0  0  0  0  0  0
   10.6702   -3.9051   22.4070 C   0  0  0  0  0  0  0  0  0  0  0  0
   11.0625   -3.0028   18.8894 C   0  0  0  0  0  0  0  0  0  0  0  0
    5.6180   -7.9194   16.1754 O   0  0  0  0  0  0  0  0  0  0  0  0
    9.7259   -5.3080   18.4485 C   0  0  0  0  0  0  0  0  0  0  0  0
    9.4578   -5.0200   16.3036 N   0  0  0  0  0  0  0  0  0  0  0  0
    5.0287   -8.9365   16.8223 C   0  0  0  0  0  0  0  0  0  0  0  0
    8.7742   -6.1498   16.6764 C   0  0  0  0  0  0  0  0  0  0  0  0
   10.9418   -3.4032   21.2053 O   0  0  0  0  0  0  0  0  0  0  0  0
    1.4797   -8.6258   16.2950 C   0  0  0  0  0  0  0  0  0  0  0  0
    9.2861   -1.2743   25.3585 C   0  0  0  0  0  0  0  0  0  0  0  0
    1.8892  -10.3985   17.7511 N   0  0  0  0  0  0  0  0  0  0  0  0
    9.6210   -0.6952   24.0976 C   0  0  0  0  0  0  0  0  0  0  0  0
    7.0792   -9.0217   17.1429 C   0  0  0  0  0  0  0  0  0  0  0  0
    3.1713  -10.1816   17.6634 C   0  0  0  0  0  0  0  0  0  0  0  0
    2.7878   -8.3822   16.2137 C   0  0  0  0  0  0  0  0  0  0  0  0
    9.4601   -2.6590   25.6528 C   0  0  0  0  0  0  0  0  0  0  0  0
   10.1182   -1.5672   23.1165 C   0  0  0  0  0  0  0  0  0  0  0  0
    1.0552   -9.6360   17.0650 C   0  0  0  0  0  0  0  0  0  0  0  0
    3.6519   -9.1783   16.9039 C   0  0  0  0  0  0  0  0  0  0  0  0
    7.8675   -7.0096   15.9415 C   0  0  0  0  0  0  0  0  0  0  0  0
    5.9733   -9.6553   17.3832 N   0  0  0  0  0  0  0  0  0  0  0  0
   10.2411   -2.9363   23.4301 C   0  0  0  0  0  0  0  0  0  0  0  0
   10.7288   -3.8197   19.9525 C   0  0  0  0  0  0  0  0  0  0  0  0
   10.1189   -5.0054   19.6987 C   0  0  0  0  0  0  0  0  0  0  0  0
  1  3  4  0
  1  7  4  0
  2 21  4  0
  2 27  4  0
  3  9  4  0
  3 10  4  0
  4  8  4  0
  4 18  4  0
  4 25  1  0
  5  9  4  0
  5 12  4  0
  6 13  1  0
  6 27  1  0
  7 28  4  0
  8 11  4  0
  9 29  4  0
 10 12  4  0
 11 24  1  0
 11 26  4  0
 12 25  1  0
 13 28  1  0
 14 20  4  0
 14 23  4  0
 15 17  4  0
 15 21  4  0
 16 19  4  0
 16 23  4  0
 17 22  4  0
 18 26  4  0
 19 24  4  0
 20 24  4  0
 22 27  4  0
 28 29  4  0
M  END
$$$$

 Created by Python create_sdf_string function

 29 33  0  0  0  0  0  0  0  0999 V2000
   10.7215   -3.3326   17.6437 C   0  0  0  0  0  0  0  0  0  0  0  0
    9.9489   -3.4675   24.6487 N   0  0  0  0  0  0  0  0  0  0  0  0
   10.0172   -4.4740   17.4101 C   0  0  0  0  0  0  0  0  0  0  0  0
    6.9051   -7.9575   16.4222 C   0  0  0  0  0  0  0  0  0  0  0  0
    8.9969   -6.3552   17.9668 N   0  0  0  0  0  0  0  0  0  0  0  0
   10.6702   -3.9051   22.4070 C   0  0  0  0  0  0  0  0  0  0  0  0
   11.0625   -3.0028   18.8894 C   0  0  0  0  0  0  0  0  0  0  0  0
    5.6180   -7.9194   16.1754 O   0  0  0  0  0  0  0  0  0  0  0  0
    9.7259   -5.3080   18.4485 C   0  0  0  0  0  0  0  0  0  0  0  0
    9.4578   -5.0200   16.3036 N   0  0  0  0  0  0  0  0  0  0  0  0
    5.0287   -8.9365   16.8223 C   0  0  0  0  0  0  0  0  0  0  0  0
    8.7742   -6.1498   16.6764 C   0  0  0  0  0  0  0  0  0  0  0  0
   10.9418   -3.4032   21.2053 O   0  0  0  0  0  0  0  0  0  0  0  0
    1.4797   -8.6258   16.2950 C   0  0  0  0  0  0  0  0  0  0  0  0
    9.2861   -1.2743   25.3585 C   0  0  0  0  0  0  0  0  0  0  0  0
    1.8892  -10.3985   17.7511 N   0  0  0  0  0  0  0  0  0  0  0  0
    9.6210   -0.6952   24.0976 C   0  0  0  0  0  0  0  0  0  0  0  0
    7.0792   -9.0217   17.1429 C   0  0  0  0  0  0  0  0  0  0  0  0
    3.1713  -10.1816   17.6634 C   0  0  0  0  0  0  0  0  0  0  0  0
    2.7878   -8.3822   16.2137 C   0  0  0  0  0  0  0  0  0  0  0  0
    9.4601   -2.6590   25.6528 C   0  0  0  0  0  0  0  0  0  0  0  0
   10.1182   -1.5672   23.1165 C   0  0  0  0  0  0  0  0  0  0  0  0
    1.0552   -9.6360   17.0650 C   0  0  0  0  0  0  0  0  0  0  0  0
    3.6519   -9.1783   16.9039 C   0  0  0  0  0  0  0  0  0  0  0  0
    7.8675   -7.0096   15.9415 C   0  0  0  0  0  0  0  0  0  0  0  0
    5.9733   -9.6553   17.3832 N   0  0  0  0  0  0  0  0  0  0  0  0
   10.2411   -2.9363   23.4301 C   0  0  0  0  0  0  0  0  0  0  0  0
   10.7288   -3.8197   19.9525 C   0  0  0  0  0  0  0  0  0  0  0  0
   10.1189   -5.0054   19.6987 C   0  0  0  0  0  0  0  0  0  0  0  0
  1  3  4  0
  1  7  4  0
  2 21  4  0
  2 27  4  0
  3  9  4  0
  3 10  4  0
  4  8  4  0
  4 18  4  0
  4 25  1  0
  5  9  4  0
  5 12  4  0
  6 13  1  0
  6 27  1  0
  7 28  4  0
  8 11  4  0
  9 29  4  0
 10 12  4  0
 11 24  1  0
 11 26  4  0
 12 25  1  0
 13 28  1  0
 14 20  4  0
 14 23  4  0
 15 17  4  0
 15 21  4  0
 16 19  4  0
 16 23  4  0
 17 22  4  0
 18 26  4  0
 19 24  4  0
 20 24  4  0
 22 27  4  0
 28 29  4  0
M  END
$$$$

 Created by Python create_sdf_string function

 29 33  0  0  0  0  0  0  0  0999 V2000
   10.7215   -3.3326   17.6437 C   0  0  0  0  0  0  0  0  0  0  0  0
    9.9489   -3.4675   24.6487 N   0  0  0  0  0  0  0  0  0  0  0  0
   10.0172   -4.4740   17.4101 C   0  0  0  0  0  0  0  0  0  0  0  0
    6.9051   -7.9575   16.4222 C   0  0  0  0  0  0  0  0  0  0  0  0
    8.9969   -6.3552   17.9668 N   0  0  0  0  0  0  0  0  0  0  0  0
   10.6702   -3.9051   22.4070 C   0  0  0  0  0  0  0  0  0  0  0  0
   11.0625   -3.0028   18.8894 C   0  0  0  0  0  0  0  0  0  0  0  0
    5.6180   -7.9194   16.1754 O   0  0  0  0  0  0  0  0  0  0  0  0
    9.7259   -5.3080   18.4485 C   0  0  0  0  0  0  0  0  0  0  0  0
    9.4578   -5.0200   16.3036 N   0  0  0  0  0  0  0  0  0  0  0  0
    5.0287   -8.9365   16.8223 C   0  0  0  0  0  0  0  0  0  0  0  0
    8.7742   -6.1498   16.6764 C   0  0  0  0  0  0  0  0  0  0  0  0
   10.9418   -3.4032   21.2053 O   0  0  0  0  0  0  0  0  0  0  0  0
    1.4797   -8.6258   16.2950 C   0  0  0  0  0  0  0  0  0  0  0  0
    9.2861   -1.2743   25.3585 C   0  0  0  0  0  0  0  0  0  0  0  0
    1.8892  -10.3985   17.7511 N   0  0  0  0  0  0  0  0  0  0  0  0
    9.6210   -0.6952   24.0976 C   0  0  0  0  0  0  0  0  0  0  0  0
    7.0792   -9.0217   17.1429 C   0  0  0  0  0  0  0  0  0  0  0  0
    3.1713  -10.1816   17.6634 C   0  0  0  0  0  0  0  0  0  0  0  0
    2.7878   -8.3822   16.2137 C   0  0  0  0  0  0  0  0  0  0  0  0
    9.4601   -2.6590   25.6528 C   0  0  0  0  0  0  0  0  0  0  0  0
   10.1182   -1.5672   23.1165 C   0  0  0  0  0  0  0  0  0  0  0  0
    1.0552   -9.6360   17.0650 C   0  0  0  0  0  0  0  0  0  0  0  0
    3.6519   -9.1783   16.9039 C   0  0  0  0  0  0  0  0  0  0  0  0
    7.8675   -7.0096   15.9415 C   0  0  0  0  0  0  0  0  0  0  0  0
    5.9733   -9.6553   17.3832 N   0  0  0  0  0  0  0  0  0  0  0  0
   10.2411   -2.9363   23.4301 C   0  0  0  0  0  0  0  0  0  0  0  0
   10.7288   -3.8197   19.9525 C   0  0  0  0  0  0  0  0  0  0  0  0
   10.1189   -5.0054   19.6987 C   0  0  0  0  0  0  0  0  0  0  0  0
  1  3  4  0
  1  7  4  0
  2 21  4  0
  2 27  4  0
  3  9  4  0
  3 10  4  0
  4  8  4  0
  4 18  4  0
  4 25  1  0
  5  9  4  0
  5 12  4  0
  6 13  1  0
  6 27  1  0
  7 28  4  0
  8 11  4  0
  9 29  4  0
 10 12  4  0
 11 24  1  0
 11 26  4  0
 12 25  1  0
 13 28  1  0
 14 20  4  0
 14 23  4  0
 15 17  4  0
 15 21  4  0
 16 19  4  0
 16 23  4  0
 17 22  4  0
 18 26  4  0
 19 24  4  0
 20 24  4  0
 22 27  4  0
 28 29  4  0
M  END
$$$$

 Created by Python create_sdf_string function

 29 33  0  0  0  0  0  0  0  0999 V2000
   10.7215   -3.3326   17.6437 C   0  0  0  0  0  0  0  0  0  0  0  0
    9.9489   -3.4675   24.6487 N   0  0  0  0  0  0  0  0  0  0  0  0
   10.0172   -4.4740   17.4101 C   0  0  0  0  0  0  0  0  0  0  0  0
    6.9051   -7.9575   16.4222 C   0  0  0  0  0  0  0  0  0  0  0  0
    8.9969   -6.3552   17.9668 N   0  0  0  0  0  0  0  0  0  0  0  0
   10.6702   -3.9051   22.4070 C   0  0  0  0  0  0  0  0  0  0  0  0
   11.0625   -3.0028   18.8894 C   0  0  0  0  0  0  0  0  0  0  0  0
    5.6180   -7.9194   16.1754 O   0  0  0  0  0  0  0  0  0  0  0  0
    9.7259   -5.3080   18.4485 C   0  0  0  0  0  0  0  0  0  0  0  0
    9.4578   -5.0200   16.3036 N   0  0  0  0  0  0  0  0  0  0  0  0
    5.0287   -8.9365   16.8223 C   0  0  0  0  0  0  0  0  0  0  0  0
    8.7742   -6.1498   16.6764 C   0  0  0  0  0  0  0  0  0  0  0  0
   10.9418   -3.4032   21.2053 O   0  0  0  0  0  0  0  0  0  0  0  0
    1.4797   -8.6258   16.2950 C   0  0  0  0  0  0  0  0  0  0  0  0
    9.2861   -1.2743   25.3585 C   0  0  0  0  0  0  0  0  0  0  0  0
    1.8892  -10.3985   17.7511 N   0  0  0  0  0  0  0  0  0  0  0  0
    9.6210   -0.6952   24.0976 C   0  0  0  0  0  0  0  0  0  0  0  0
    7.0792   -9.0217   17.1429 C   0  0  0  0  0  0  0  0  0  0  0  0
    3.1713  -10.1816   17.6634 C   0  0  0  0  0  0  0  0  0  0  0  0
    2.7878   -8.3822   16.2137 C   0  0  0  0  0  0  0  0  0  0  0  0
    9.4601   -2.6590   25.6528 C   0  0  0  0  0  0  0  0  0  0  0  0
   10.1182   -1.5672   23.1165 C   0  0  0  0  0  0  0  0  0  0  0  0
    1.0552   -9.6360   17.0650 C   0  0  0  0  0  0  0  0  0  0  0  0
    3.6519   -9.1783   16.9039 C   0  0  0  0  0  0  0  0  0  0  0  0
    7.8675   -7.0096   15.9415 C   0  0  0  0  0  0  0  0  0  0  0  0
    5.9733   -9.6553   17.3832 N   0  0  0  0  0  0  0  0  0  0  0  0
   10.2411   -2.9363   23.4301 C   0  0  0  0  0  0  0  0  0  0  0  0
   10.7288   -3.8197   19.9525 C   0  0  0  0  0  0  0  0  0  0  0  0
   10.1189   -5.0054   19.6987 C   0  0  0  0  0  0  0  0  0  0  0  0
  1  3  4  0
  1  7  4  0
  2 21  4  0
  2 27  4  0
  3  9  4  0
  3 10  4  0
  4  8  4  0
  4 18  4  0
  4 25  1  0
  5  9  4  0
  5 12  4  0
  6 13  1  0
  6 27  1  0
  7 28  4  0
  8 11  4  0
  9 29  4  0
 10 12  4  0
 11 24  1  0
 11 26  4  0
 12 25  1  0
 13 28  1  0
 14 20  4  0
 14 23  4  0
 15 17  4  0
 15 21  4  0
 16 19  4  0
 16 23  4  0
 17 22  4  0
 18 26  4  0
 19 24  4  0
 20 24  4  0
 22 27  4  0
 28 29  4  0
M  END
$$$$

 Created by Python create_sdf_string function

 29 33  0  0  0  0  0  0  0  0999 V2000
   10.7215   -3.3326   17.6437 C   0  0  0  0  0  0  0  0  0  0  0  0
    9.9489   -3.4675   24.6487 N   0  0  0  0  0  0  0  0  0  0  0  0
   10.0172   -4.4740   17.4101 C   0  0  0  0  0  0  0  0  0  0  0  0
    6.9051   -7.9575   16.4222 C   0  0  0  0  0  0  0  0  0  0  0  0
    8.9969   -6.3552   17.9668 N   0  0  0  0  0  0  0  0  0  0  0  0
   10.6702   -3.9051   22.4070 C   0  0  0  0  0  0  0  0  0  0  0  0
   11.0625   -3.0028   18.8894 C   0  0  0  0  0  0  0  0  0  0  0  0
    5.6180   -7.9194   16.1754 O   0  0  0  0  0  0  0  0  0  0  0  0
    9.7259   -5.3080   18.4485 C   0  0  0  0  0  0  0  0  0  0  0  0
    9.4578   -5.0200   16.3036 N   0  0  0  0  0  0  0  0  0  0  0  0
    5.0287   -8.9365   16.8223 C   0  0  0  0  0  0  0  0  0  0  0  0
    8.7742   -6.1498   16.6764 C   0  0  0  0  0  0  0  0  0  0  0  0
   10.9418   -3.4032   21.2053 O   0  0  0  0  0  0  0  0  0  0  0  0
    1.4797   -8.6258   16.2950 C   0  0  0  0  0  0  0  0  0  0  0  0
    9.2861   -1.2743   25.3585 C   0  0  0  0  0  0  0  0  0  0  0  0
    1.8892  -10.3985   17.7511 N   0  0  0  0  0  0  0  0  0  0  0  0
    9.6210   -0.6952   24.0976 C   0  0  0  0  0  0  0  0  0  0  0  0
    7.0792   -9.0217   17.1429 C   0  0  0  0  0  0  0  0  0  0  0  0
    3.1713  -10.1816   17.6634 C   0  0  0  0  0  0  0  0  0  0  0  0
    2.7878   -8.3822   16.2137 C   0  0  0  0  0  0  0  0  0  0  0  0
    9.4601   -2.6590   25.6528 C   0  0  0  0  0  0  0  0  0  0  0  0
   10.1182   -1.5672   23.1165 C   0  0  0  0  0  0  0  0  0  0  0  0
    1.0552   -9.6360   17.0650 C   0  0  0  0  0  0  0  0  0  0  0  0
    3.6519   -9.1783   16.9039 C   0  0  0  0  0  0  0  0  0  0  0  0
    7.8675   -7.0096   15.9415 C   0  0  0  0  0  0  0  0  0  0  0  0
    5.9733   -9.6553   17.3832 N   0  0  0  0  0  0  0  0  0  0  0  0
   10.2411   -2.9363   23.4301 C   0  0  0  0  0  0  0  0  0  0  0  0
   10.7288   -3.8197   19.9525 C   0  0  0  0  0  0  0  0  0  0  0  0
   10.1189   -5.0054   19.6987 C   0  0  0  0  0  0  0  0  0  0  0  0
  1  3  4  0
  1  7  4  0
  2 21  4  0
  2 27  4  0
  3  9  4  0
  3 10  4  0
  4  8  4  0
  4 18  4  0
  4 25  1  0
  5  9  4  0
  5 12  4  0
  6 13  1  0
  6 27  1  0
  7 28  4  0
  8 11  4  0
  9 29  4  0
 10 12  4  0
 11 24  1  0
 11 26  4  0
 12 25  1  0
 13 28  1  0
 14 20  4  0
 14 23  4  0
 15 17  4  0
 15 21  4  0
 16 19  4  0
 16 23  4  0
 17 22  4  0
 18 26  4  0
 19 24  4  0
 20 24  4  0
 22 27  4  0
 28 29  4  0
M  END
$$$$

 Created by Python create_sdf_string function

 29 33  0  0  0  0  0  0  0  0999 V2000
   10.7215   -3.3326   17.6437 C   0  0  0  0  0  0  0  0  0  0  0  0
    9.9489   -3.4675   24.6487 N   0  0  0  0  0  0  0  0  0  0  0  0
   10.0172   -4.4740   17.4101 C   0  0  0  0  0  0  0  0  0  0  0  0
    6.9051   -7.9575   16.4222 C   0  0  0  0  0  0  0  0  0  0  0  0
    8.9969   -6.3552   17.9668 N   0  0  0  0  0  0  0  0  0  0  0  0
   10.6702   -3.9051   22.4070 C   0  0  0  0  0  0  0  0  0  0  0  0
   11.0625   -3.0028   18.8894 C   0  0  0  0  0  0  0  0  0  0  0  0
    5.6180   -7.9194   16.1754 O   0  0  0  0  0  0  0  0  0  0  0  0
    9.7259   -5.3080   18.4485 C   0  0  0  0  0  0  0  0  0  0  0  0
    9.4578   -5.0200   16.3036 N   0  0  0  0  0  0  0  0  0  0  0  0
    5.0287   -8.9365   16.8223 C   0  0  0  0  0  0  0  0  0  0  0  0
    8.7742   -6.1498   16.6764 C   0  0  0  0  0  0  0  0  0  0  0  0
   10.9418   -3.4032   21.2053 O   0  0  0  0  0  0  0  0  0  0  0  0
    1.4797   -8.6258   16.2950 C   0  0  0  0  0  0  0  0  0  0  0  0
    9.2861   -1.2743   25.3585 C   0  0  0  0  0  0  0  0  0  0  0  0
    1.8892  -10.3985   17.7511 N   0  0  0  0  0  0  0  0  0  0  0  0
    9.6210   -0.6952   24.0976 C   0  0  0  0  0  0  0  0  0  0  0  0
    7.0792   -9.0217   17.1429 C   0  0  0  0  0  0  0  0  0  0  0  0
    3.1713  -10.1816   17.6634 C   0  0  0  0  0  0  0  0  0  0  0  0
    2.7878   -8.3822   16.2137 C   0  0  0  0  0  0  0  0  0  0  0  0
    9.4601   -2.6590   25.6528 C   0  0  0  0  0  0  0  0  0  0  0  0
   10.1182   -1.5672   23.1165 C   0  0  0  0  0  0  0  0  0  0  0  0
    1.0552   -9.6360   17.0650 C   0  0  0  0  0  0  0  0  0  0  0  0
    3.6519   -9.1783   16.9039 C   0  0  0  0  0  0  0  0  0  0  0  0
    7.8675   -7.0096   15.9415 C   0  0  0  0  0  0  0  0  0  0  0  0
    5.9733   -9.6553   17.3832 N   0  0  0  0  0  0  0  0  0  0  0  0
   10.2411   -2.9363   23.4301 C   0  0  0  0  0  0  0  0  0  0  0  0
   10.7288   -3.8197   19.9525 C   0  0  0  0  0  0  0  0  0  0  0  0
   10.1189   -5.0054   19.6987 C   0  0  0  0  0  0  0  0  0  0  0  0
  1  3  4  0
  1  7  4  0
  2 21  4  0
  2 27  4  0
  3  9  4  0
  3 10  4  0
  4  8  4  0
  4 18  4  0
  4 25  1  0
  5  9  4  0
  5 12  4  0
  6 13  1  0
  6 27  1  0
  7 28  4  0
  8 11  4  0
  9 29  4  0
 10 12  4  0
 11 24  1  0
 11 26  4  0
 12 25  1  0
 13 28  1  0
 14 20  4  0
 14 23  4  0
 15 17  4  0
 15 21  4  0
 16 19  4  0
 16 23  4  0
 17 22  4  0
 18 26  4  0
 19 24  4  0
 20 24  4  0
 22 27  4  0
 28 29  4  0
M  END
$$$$

 Created by Python create_sdf_string function

 29 33  0  0  0  0  0  0  0  0999 V2000
   10.7215   -3.3326   17.6437 C   0  0  0  0  0  0  0  0  0  0  0  0
    9.9489   -3.4675   24.6487 N   0  0  0  0  0  0  0  0  0  0  0  0
   10.0172   -4.4740   17.4101 C   0  0  0  0  0  0  0  0  0  0  0  0
    6.9051   -7.9575   16.4222 C   0  0  0  0  0  0  0  0  0  0  0  0
    8.9969   -6.3552   17.9668 N   0  0  0  0  0  0  0  0  0  0  0  0
   10.6702   -3.9051   22.4070 C   0  0  0  0  0  0  0  0  0  0  0  0
   11.0625   -3.0028   18.8894 C   0  0  0  0  0  0  0  0  0  0  0  0
    5.6180   -7.9194   16.1754 O   0  0  0  0  0  0  0  0  0  0  0  0
    9.7259   -5.3080   18.4485 C   0  0  0  0  0  0  0  0  0  0  0  0
    9.4578   -5.0200   16.3036 N   0  0  0  0  0  0  0  0  0  0  0  0
    5.0287   -8.9365   16.8223 C   0  0  0  0  0  0  0  0  0  0  0  0
    8.7742   -6.1498   16.6764 C   0  0  0  0  0  0  0  0  0  0  0  0
   10.9418   -3.4032   21.2053 O   0  0  0  0  0  0  0  0  0  0  0  0
    1.4797   -8.6258   16.2950 C   0  0  0  0  0  0  0  0  0  0  0  0
    9.2861   -1.2743   25.3585 C   0  0  0  0  0  0  0  0  0  0  0  0
    1.8892  -10.3985   17.7511 N   0  0  0  0  0  0  0  0  0  0  0  0
    9.6210   -0.6952   24.0976 C   0  0  0  0  0  0  0  0  0  0  0  0
    7.0792   -9.0217   17.1429 C   0  0  0  0  0  0  0  0  0  0  0  0
    3.1713  -10.1816   17.6634 C   0  0  0  0  0  0  0  0  0  0  0  0
    2.7878   -8.3822   16.2137 C   0  0  0  0  0  0  0  0  0  0  0  0
    9.4601   -2.6590   25.6528 C   0  0  0  0  0  0  0  0  0  0  0  0
   10.1182   -1.5672   23.1165 C   0  0  0  0  0  0  0  0  0  0  0  0
    1.0552   -9.6360   17.0650 C   0  0  0  0  0  0  0  0  0  0  0  0
    3.6519   -9.1783   16.9039 C   0  0  0  0  0  0  0  0  0  0  0  0
    7.8675   -7.0096   15.9415 C   0  0  0  0  0  0  0  0  0  0  0  0
    5.9733   -9.6553   17.3832 N   0  0  0  0  0  0  0  0  0  0  0  0
   10.2411   -2.9363   23.4301 C   0  0  0  0  0  0  0  0  0  0  0  0
   10.7288   -3.8197   19.9525 C   0  0  0  0  0  0  0  0  0  0  0  0
   10.1189   -5.0054   19.6987 C   0  0  0  0  0  0  0  0  0  0  0  0
  1  3  4  0
  1  7  4  0
  2 21  4  0
  2 27  4  0
  3  9  4  0
  3 10  4  0
  4  8  4  0
  4 18  4  0
  4 25  1  0
  5  9  4  0
  5 12  4  0
  6 13  1  0
  6 27  1  0
  7 28  4  0
  8 11  4  0
  9 29  4  0
 10 12  4  0
 11 24  1  0
 11 26  4  0
 12 25  1  0
 13 28  1  0
 14 20  4  0
 14 23  4  0
 15 17  4  0
 15 21  4  0
 16 19  4  0
 16 23  4  0
 17 22  4  0
 18 26  4  0
 19 24  4  0
 20 24  4  0
 22 27  4  0
 28 29  4  0
M  END
$$$$

 Created by Python create_sdf_string function

 29 33  0  0  0  0  0  0  0  0999 V2000
   10.7215   -3.3326   17.6437 C   0  0  0  0  0  0  0  0  0  0  0  0
    9.9489   -3.4675   24.6487 N   0  0  0  0  0  0  0  0  0  0  0  0
   10.0172   -4.4740   17.4101 C   0  0  0  0  0  0  0  0  0  0  0  0
    6.9051   -7.9575   16.4222 C   0  0  0  0  0  0  0  0  0  0  0  0
    8.9969   -6.3552   17.9668 N   0  0  0  0  0  0  0  0  0  0  0  0
   10.6702   -3.9051   22.4070 C   0  0  0  0  0  0  0  0  0  0  0  0
   11.0625   -3.0028   18.8894 C   0  0  0  0  0  0  0  0  0  0  0  0
    5.6180   -7.9194   16.1754 O   0  0  0  0  0  0  0  0  0  0  0  0
    9.7259   -5.3080   18.4485 C   0  0  0  0  0  0  0  0  0  0  0  0
    9.4578   -5.0200   16.3036 N   0  0  0  0  0  0  0  0  0  0  0  0
    5.0287   -8.9365   16.8223 C   0  0  0  0  0  0  0  0  0  0  0  0
    8.7742   -6.1498   16.6764 C   0  0  0  0  0  0  0  0  0  0  0  0
   10.9418   -3.4032   21.2053 O   0  0  0  0  0  0  0  0  0  0  0  0
    1.4797   -8.6258   16.2950 C   0  0  0  0  0  0  0  0  0  0  0  0
    9.2861   -1.2743   25.3585 C   0  0  0  0  0  0  0  0  0  0  0  0
    1.8892  -10.3985   17.7511 N   0  0  0  0  0  0  0  0  0  0  0  0
    9.6210   -0.6952   24.0976 C   0  0  0  0  0  0  0  0  0  0  0  0
    7.0792   -9.0217   17.1429 C   0  0  0  0  0  0  0  0  0  0  0  0
    3.1713  -10.1816   17.6634 C   0  0  0  0  0  0  0  0  0  0  0  0
    2.7878   -8.3822   16.2137 C   0  0  0  0  0  0  0  0  0  0  0  0
    9.4601   -2.6590   25.6528 C   0  0  0  0  0  0  0  0  0  0  0  0
   10.1182   -1.5672   23.1165 C   0  0  0  0  0  0  0  0  0  0  0  0
    1.0552   -9.6360   17.0650 C   0  0  0  0  0  0  0  0  0  0  0  0
    3.6519   -9.1783   16.9039 C   0  0  0  0  0  0  0  0  0  0  0  0
    7.8675   -7.0096   15.9415 C   0  0  0  0  0  0  0  0  0  0  0  0
    5.9733   -9.6553   17.3832 N   0  0  0  0  0  0  0  0  0  0  0  0
   10.2411   -2.9363   23.4301 C   0  0  0  0  0  0  0  0  0  0  0  0
   10.7288   -3.8197   19.9525 C   0  0  0  0  0  0  0  0  0  0  0  0
   10.1189   -5.0054   19.6987 C   0  0  0  0  0  0  0  0  0  0  0  0
  1  3  4  0
  1  7  4  0
  2 21  4  0
  2 27  4  0
  3  9  4  0
  3 10  4  0
  4  8  4  0
  4 18  4  0
  4 25  1  0
  5  9  4  0
  5 12  4  0
  6 13  1  0
  6 27  1  0
  7 28  4  0
  8 11  4  0
  9 29  4  0
 10 12  4  0
 11 24  1  0
 11 26  4  0
 12 25  1  0
 13 28  1  0
 14 20  4  0
 14 23  4  0
 15 17  4  0
 15 21  4  0
 16 19  4  0
 16 23  4  0
 17 22  4  0
 18 26  4  0
 19 24  4  0
 20 24  4  0
 22 27  4  0
 28 29  4  0
M  END
$$$$

 Created by Python create_sdf_string function

 29 33  0  0  0  0  0  0  0  0999 V2000
   10.7215   -3.3326   17.6437 C   0  0  0  0  0  0  0  0  0  0  0  0
    9.9489   -3.4675   24.6487 N   0  0  0  0  0  0  0  0  0  0  0  0
   10.0172   -4.4740   17.4101 C   0  0  0  0  0  0  0  0  0  0  0  0
    6.9051   -7.9575   16.4222 C   0  0  0  0  0  0  0  0  0  0  0  0
    8.9969   -6.3552   17.9668 N   0  0  0  0  0  0  0  0  0  0  0  0
   10.6702   -3.9051   22.4070 C   0  0  0  0  0  0  0  0  0  0  0  0
   11.0625   -3.0028   18.8894 C   0  0  0  0  0  0  0  0  0  0  0  0
    5.6180   -7.9194   16.1754 O   0  0  0  0  0  0  0  0  0  0  0  0
    9.7259   -5.3080   18.4485 C   0  0  0  0  0  0  0  0  0  0  0  0
    9.4578   -5.0200   16.3036 N   0  0  0  0  0  0  0  0  0  0  0  0
    5.0287   -8.9365   16.8223 C   0  0  0  0  0  0  0  0  0  0  0  0
    8.7742   -6.1498   16.6764 C   0  0  0  0  0  0  0  0  0  0  0  0
   10.9418   -3.4032   21.2053 O   0  0  0  0  0  0  0  0  0  0  0  0
    1.4797   -8.6258   16.2950 C   0  0  0  0  0  0  0  0  0  0  0  0
    9.2861   -1.2743   25.3585 C   0  0  0  0  0  0  0  0  0  0  0  0
    1.8892  -10.3985   17.7511 N   0  0  0  0  0  0  0  0  0  0  0  0
    9.6210   -0.6952   24.0976 C   0  0  0  0  0  0  0  0  0  0  0  0
    7.0792   -9.0217   17.1429 C   0  0  0  0  0  0  0  0  0  0  0  0
    3.1713  -10.1816   17.6634 C   0  0  0  0  0  0  0  0  0  0  0  0
    2.7878   -8.3822   16.2137 C   0  0  0  0  0  0  0  0  0  0  0  0
    9.4601   -2.6590   25.6528 C   0  0  0  0  0  0  0  0  0  0  0  0
   10.1182   -1.5672   23.1165 C   0  0  0  0  0  0  0  0  0  0  0  0
    1.0552   -9.6360   17.0650 C   0  0  0  0  0  0  0  0  0  0  0  0
    3.6519   -9.1783   16.9039 C   0  0  0  0  0  0  0  0  0  0  0  0
    7.8675   -7.0096   15.9415 C   0  0  0  0  0  0  0  0  0  0  0  0
    5.9733   -9.6553   17.3832 N   0  0  0  0  0  0  0  0  0  0  0  0
   10.2411   -2.9363   23.4301 C   0  0  0  0  0  0  0  0  0  0  0  0
   10.7288   -3.8197   19.9525 C   0  0  0  0  0  0  0  0  0  0  0  0
   10.1189   -5.0054   19.6987 C   0  0  0  0  0  0  0  0  0  0  0  0
  1  3  4  0
  1  7  4  0
  2 21  4  0
  2 27  4  0
  3  9  4  0
  3 10  4  0
  4  8  4  0
  4 18  4  0
  4 25  1  0
  5  9  4  0
  5 12  4  0
  6 13  1  0
  6 27  1  0
  7 28  4  0
  8 11  4  0
  9 29  4  0
 10 12  4  0
 11 24  1  0
 11 26  4  0
 12 25  1  0
 13 28  1  0
 14 20  4  0
 14 23  4  0
 15 17  4  0
 15 21  4  0
 16 19  4  0
 16 23  4  0
 17 22  4  0
 18 26  4  0
 19 24  4  0
 20 24  4  0
 22 27  4  0
 28 29  4  0
M  END
$$$$

 Created by Python create_sdf_string function

 29 33  0  0  0  0  0  0  0  0999 V2000
   10.7215   -3.3326   17.6437 C   0  0  0  0  0  0  0  0  0  0  0  0
    9.9489   -3.4675   24.6487 N   0  0  0  0  0  0  0  0  0  0  0  0
   10.0172   -4.4740   17.4101 C   0  0  0  0  0  0  0  0  0  0  0  0
    6.9051   -7.9575   16.4222 C   0  0  0  0  0  0  0  0  0  0  0  0
    8.9969   -6.3552   17.9668 N   0  0  0  0  0  0  0  0  0  0  0  0
   10.6702   -3.9051   22.4070 C   0  0  0  0  0  0  0  0  0  0  0  0
   11.0625   -3.0028   18.8894 C   0  0  0  0  0  0  0  0  0  0  0  0
    5.6180   -7.9194   16.1754 O   0  0  0  0  0  0  0  0  0  0  0  0
    9.7259   -5.3080   18.4485 C   0  0  0  0  0  0  0  0  0  0  0  0
    9.4578   -5.0200   16.3036 N   0  0  0  0  0  0  0  0  0  0  0  0
    5.0287   -8.9365   16.8223 C   0  0  0  0  0  0  0  0  0  0  0  0
    8.7742   -6.1498   16.6764 C   0  0  0  0  0  0  0  0  0  0  0  0
   10.9418   -3.4032   21.2053 O   0  0  0  0  0  0  0  0  0  0  0  0
    1.4797   -8.6258   16.2950 C   0  0  0  0  0  0  0  0  0  0  0  0
    9.2861   -1.2743   25.3585 C   0  0  0  0  0  0  0  0  0  0  0  0
    1.8892  -10.3985   17.7511 N   0  0  0  0  0  0  0  0  0  0  0  0
    9.6210   -0.6952   24.0976 C   0  0  0  0  0  0  0  0  0  0  0  0
    7.0792   -9.0217   17.1429 C   0  0  0  0  0  0  0  0  0  0  0  0
    3.1713  -10.1816   17.6634 C   0  0  0  0  0  0  0  0  0  0  0  0
    2.7878   -8.3822   16.2137 C   0  0  0  0  0  0  0  0  0  0  0  0
    9.4601   -2.6590   25.6528 C   0  0  0  0  0  0  0  0  0  0  0  0
   10.1182   -1.5672   23.1165 C   0  0  0  0  0  0  0  0  0  0  0  0
    1.0552   -9.6360   17.0650 C   0  0  0  0  0  0  0  0  0  0  0  0
    3.6519   -9.1783   16.9039 C   0  0  0  0  0  0  0  0  0  0  0  0
    7.8675   -7.0096   15.9415 C   0  0  0  0  0  0  0  0  0  0  0  0
    5.9733   -9.6553   17.3832 N   0  0  0  0  0  0  0  0  0  0  0  0
   10.2411   -2.9363   23.4301 C   0  0  0  0  0  0  0  0  0  0  0  0
   10.7288   -3.8197   19.9525 C   0  0  0  0  0  0  0  0  0  0  0  0
   10.1189   -5.0054   19.6987 C   0  0  0  0  0  0  0  0  0  0  0  0
  1  3  4  0
  1  7  4  0
  2 21  4  0
  2 27  4  0
  3  9  4  0
  3 10  4  0
  4  8  4  0
  4 18  4  0
  4 25  1  0
  5  9  4  0
  5 12  4  0
  6 13  1  0
  6 27  1  0
  7 28  4  0
  8 11  4  0
  9 29  4  0
 10 12  4  0
 11 24  1  0
 11 26  4  0
 12 25  1  0
 13 28  1  0
 14 20  4  0
 14 23  4  0
 15 17  4  0
 15 21  4  0
 16 19  4  0
 16 23  4  0
 17 22  4  0
 18 26  4  0
 19 24  4  0
 20 24  4  0
 22 27  4  0
 28 29  4  0
M  END
$$$$

 Created by Python create_sdf_string function

 29 33  0  0  0  0  0  0  0  0999 V2000
   10.7215   -3.3326   17.6437 C   0  0  0  0  0  0  0  0  0  0  0  0
    9.9489   -3.4675   24.6487 N   0  0  0  0  0  0  0  0  0  0  0  0
   10.0172   -4.4740   17.4101 C   0  0  0  0  0  0  0  0  0  0  0  0
    6.9051   -7.9575   16.4222 C   0  0  0  0  0  0  0  0  0  0  0  0
    8.9969   -6.3552   17.9668 N   0  0  0  0  0  0  0  0  0  0  0  0
   10.6702   -3.9051   22.4070 C   0  0  0  0  0  0  0  0  0  0  0  0
   11.0625   -3.0028   18.8894 C   0  0  0  0  0  0  0  0  0  0  0  0
    5.6180   -7.9194   16.1754 O   0  0  0  0  0  0  0  0  0  0  0  0
    9.7259   -5.3080   18.4485 C   0  0  0  0  0  0  0  0  0  0  0  0
    9.4578   -5.0200   16.3036 N   0  0  0  0  0  0  0  0  0  0  0  0
    5.0287   -8.9365   16.8223 C   0  0  0  0  0  0  0  0  0  0  0  0
    8.7742   -6.1498   16.6764 C   0  0  0  0  0  0  0  0  0  0  0  0
   10.9418   -3.4032   21.2053 O   0  0  0  0  0  0  0  0  0  0  0  0
    1.4797   -8.6258   16.2950 C   0  0  0  0  0  0  0  0  0  0  0  0
    9.2861   -1.2743   25.3585 C   0  0  0  0  0  0  0  0  0  0  0  0
    1.8892  -10.3985   17.7511 N   0  0  0  0  0  0  0  0  0  0  0  0
    9.6210   -0.6952   24.0976 C   0  0  0  0  0  0  0  0  0  0  0  0
    7.0792   -9.0217   17.1429 C   0  0  0  0  0  0  0  0  0  0  0  0
    3.1713  -10.1816   17.6634 C   0  0  0  0  0  0  0  0  0  0  0  0
    2.7878   -8.3822   16.2137 C   0  0  0  0  0  0  0  0  0  0  0  0
    9.4601   -2.6590   25.6528 C   0  0  0  0  0  0  0  0  0  0  0  0
   10.1182   -1.5672   23.1165 C   0  0  0  0  0  0  0  0  0  0  0  0
    1.0552   -9.6360   17.0650 C   0  0  0  0  0  0  0  0  0  0  0  0
    3.6519   -9.1783   16.9039 C   0  0  0  0  0  0  0  0  0  0  0  0
    7.8675   -7.0096   15.9415 C   0  0  0  0  0  0  0  0  0  0  0  0
    5.9733   -9.6553   17.3832 N   0  0  0  0  0  0  0  0  0  0  0  0
   10.2411   -2.9363   23.4301 C   0  0  0  0  0  0  0  0  0  0  0  0
   10.7288   -3.8197   19.9525 C   0  0  0  0  0  0  0  0  0  0  0  0
   10.1189   -5.0054   19.6987 C   0  0  0  0  0  0  0  0  0  0  0  0
  1  3  4  0
  1  7  4  0
  2 21  4  0
  2 27  4  0
  3  9  4  0
  3 10  4  0
  4  8  4  0
  4 18  4  0
  4 25  1  0
  5  9  4  0
  5 12  4  0
  6 13  1  0
  6 27  1  0
  7 28  4  0
  8 11  4  0
  9 29  4  0
 10 12  4  0
 11 24  1  0
 11 26  4  0
 12 25  1  0
 13 28  1  0
 14 20  4  0
 14 23  4  0
 15 17  4  0
 15 21  4  0
 16 19  4  0
 16 23  4  0
 17 22  4  0
 18 26  4  0
 19 24  4  0
 20 24  4  0
 22 27  4  0
 28 29  4  0
M  END
$$$$

 Created by Python create_sdf_string function

 29 33  0  0  0  0  0  0  0  0999 V2000
   10.7215   -3.3326   17.6437 C   0  0  0  0  0  0  0  0  0  0  0  0
    9.9489   -3.4675   24.6487 N   0  0  0  0  0  0  0  0  0  0  0  0
   10.0172   -4.4740   17.4101 C   0  0  0  0  0  0  0  0  0  0  0  0
    6.9051   -7.9575   16.4222 C   0  0  0  0  0  0  0  0  0  0  0  0
    8.9969   -6.3552   17.9668 N   0  0  0  0  0  0  0  0  0  0  0  0
   10.6702   -3.9051   22.4070 C   0  0  0  0  0  0  0  0  0  0  0  0
   11.0625   -3.0028   18.8894 C   0  0  0  0  0  0  0  0  0  0  0  0
    5.6180   -7.9194   16.1754 O   0  0  0  0  0  0  0  0  0  0  0  0
    9.7259   -5.3080   18.4485 C   0  0  0  0  0  0  0  0  0  0  0  0
    9.4578   -5.0200   16.3036 N   0  0  0  0  0  0  0  0  0  0  0  0
    5.0287   -8.9365   16.8223 C   0  0  0  0  0  0  0  0  0  0  0  0
    8.7742   -6.1498   16.6764 C   0  0  0  0  0  0  0  0  0  0  0  0
   10.9418   -3.4032   21.2053 O   0  0  0  0  0  0  0  0  0  0  0  0
    1.4797   -8.6258   16.2950 C   0  0  0  0  0  0  0  0  0  0  0  0
    9.2861   -1.2743   25.3585 C   0  0  0  0  0  0  0  0  0  0  0  0
    1.8892  -10.3985   17.7511 N   0  0  0  0  0  0  0  0  0  0  0  0
    9.6210   -0.6952   24.0976 C   0  0  0  0  0  0  0  0  0  0  0  0
    7.0792   -9.0217   17.1429 C   0  0  0  0  0  0  0  0  0  0  0  0
    3.1713  -10.1816   17.6634 C   0  0  0  0  0  0  0  0  0  0  0  0
    2.7878   -8.3822   16.2137 C   0  0  0  0  0  0  0  0  0  0  0  0
    9.4601   -2.6590   25.6528 C   0  0  0  0  0  0  0  0  0  0  0  0
   10.1182   -1.5672   23.1165 C   0  0  0  0  0  0  0  0  0  0  0  0
    1.0552   -9.6360   17.0650 C   0  0  0  0  0  0  0  0  0  0  0  0
    3.6519   -9.1783   16.9039 C   0  0  0  0  0  0  0  0  0  0  0  0
    7.8675   -7.0096   15.9415 C   0  0  0  0  0  0  0  0  0  0  0  0
    5.9733   -9.6553   17.3832 N   0  0  0  0  0  0  0  0  0  0  0  0
   10.2411   -2.9363   23.4301 C   0  0  0  0  0  0  0  0  0  0  0  0
   10.7288   -3.8197   19.9525 C   0  0  0  0  0  0  0  0  0  0  0  0
   10.1189   -5.0054   19.6987 C   0  0  0  0  0  0  0  0  0  0  0  0
  1  3  4  0
  1  7  4  0
  2 21  4  0
  2 27  4  0
  3  9  4  0
  3 10  4  0
  4  8  4  0
  4 18  4  0
  4 25  1  0
  5  9  4  0
  5 12  4  0
  6 13  1  0
  6 27  1  0
  7 28  4  0
  8 11  4  0
  9 29  4  0
 10 12  4  0
 11 24  1  0
 11 26  4  0
 12 25  1  0
 13 28  1  0
 14 20  4  0
 14 23  4  0
 15 17  4  0
 15 21  4  0
 16 19  4  0
 16 23  4  0
 17 22  4  0
 18 26  4  0
 19 24  4  0
 20 24  4  0
 22 27  4  0
 28 29  4  0
M  END
$$$$

 Created by Python create_sdf_string function

 29 33  0  0  0  0  0  0  0  0999 V2000
   10.7215   -3.3326   17.6437 C   0  0  0  0  0  0  0  0  0  0  0  0
    9.9489   -3.4675   24.6487 N   0  0  0  0  0  0  0  0  0  0  0  0
   10.0172   -4.4740   17.4101 C   0  0  0  0  0  0  0  0  0  0  0  0
    6.9051   -7.9575   16.4222 C   0  0  0  0  0  0  0  0  0  0  0  0
    8.9969   -6.3552   17.9668 N   0  0  0  0  0  0  0  0  0  0  0  0
   10.6702   -3.9051   22.4070 C   0  0  0  0  0  0  0  0  0  0  0  0
   11.0625   -3.0028   18.8894 C   0  0  0  0  0  0  0  0  0  0  0  0
    5.6180   -7.9194   16.1754 O   0  0  0  0  0  0  0  0  0  0  0  0
    9.7259   -5.3080   18.4485 C   0  0  0  0  0  0  0  0  0  0  0  0
    9.4578   -5.0200   16.3036 N   0  0  0  0  0  0  0  0  0  0  0  0
    5.0287   -8.9365   16.8223 C   0  0  0  0  0  0  0  0  0  0  0  0
    8.7742   -6.1498   16.6764 C   0  0  0  0  0  0  0  0  0  0  0  0
   10.9418   -3.4032   21.2053 O   0  0  0  0  0  0  0  0  0  0  0  0
    1.4797   -8.6258   16.2950 C   0  0  0  0  0  0  0  0  0  0  0  0
    9.2861   -1.2743   25.3585 C   0  0  0  0  0  0  0  0  0  0  0  0
    1.8892  -10.3985   17.7511 N   0  0  0  0  0  0  0  0  0  0  0  0
    9.6210   -0.6952   24.0976 C   0  0  0  0  0  0  0  0  0  0  0  0
    7.0792   -9.0217   17.1429 C   0  0  0  0  0  0  0  0  0  0  0  0
    3.1713  -10.1816   17.6634 C   0  0  0  0  0  0  0  0  0  0  0  0
    2.7878   -8.3822   16.2137 C   0  0  0  0  0  0  0  0  0  0  0  0
    9.4601   -2.6590   25.6528 C   0  0  0  0  0  0  0  0  0  0  0  0
   10.1182   -1.5672   23.1165 C   0  0  0  0  0  0  0  0  0  0  0  0
    1.0552   -9.6360   17.0650 C   0  0  0  0  0  0  0  0  0  0  0  0
    3.6519   -9.1783   16.9039 C   0  0  0  0  0  0  0  0  0  0  0  0
    7.8675   -7.0096   15.9415 C   0  0  0  0  0  0  0  0  0  0  0  0
    5.9733   -9.6553   17.3832 N   0  0  0  0  0  0  0  0  0  0  0  0
   10.2411   -2.9363   23.4301 C   0  0  0  0  0  0  0  0  0  0  0  0
   10.7288   -3.8197   19.9525 C   0  0  0  0  0  0  0  0  0  0  0  0
   10.1189   -5.0054   19.6987 C   0  0  0  0  0  0  0  0  0  0  0  0
  1  3  4  0
  1  7  4  0
  2 21  4  0
  2 27  4  0
  3  9  4  0
  3 10  4  0
  4  8  4  0
  4 18  4  0
  4 25  1  0
  5  9  4  0
  5 12  4  0
  6 13  1  0
  6 27  1  0
  7 28  4  0
  8 11  4  0
  9 29  4  0
 10 12  4  0
 11 24  1  0
 11 26  4  0
 12 25  1  0
 13 28  1  0
 14 20  4  0
 14 23  4  0
 15 17  4  0
 15 21  4  0
 16 19  4  0
 16 23  4  0
 17 22  4  0
 18 26  4  0
 19 24  4  0
 20 24  4  0
 22 27  4  0
 28 29  4  0
M  END
$$$$

 Created by Python create_sdf_string function

 29 33  0  0  0  0  0  0  0  0999 V2000
   10.7215   -3.3326   17.6437 C   0  0  0  0  0  0  0  0  0  0  0  0
    9.9489   -3.4675   24.6487 N   0  0  0  0  0  0  0  0  0  0  0  0
   10.0172   -4.4740   17.4101 C   0  0  0  0  0  0  0  0  0  0  0  0
    6.9051   -7.9575   16.4222 C   0  0  0  0  0  0  0  0  0  0  0  0
    8.9969   -6.3552   17.9668 N   0  0  0  0  0  0  0  0  0  0  0  0
   10.6702   -3.9051   22.4070 C   0  0  0  0  0  0  0  0  0  0  0  0
   11.0625   -3.0028   18.8894 C   0  0  0  0  0  0  0  0  0  0  0  0
    5.6180   -7.9194   16.1754 O   0  0  0  0  0  0  0  0  0  0  0  0
    9.7259   -5.3080   18.4485 C   0  0  0  0  0  0  0  0  0  0  0  0
    9.4578   -5.0200   16.3036 N   0  0  0  0  0  0  0  0  0  0  0  0
    5.0287   -8.9365   16.8223 C   0  0  0  0  0  0  0  0  0  0  0  0
    8.7742   -6.1498   16.6764 C   0  0  0  0  0  0  0  0  0  0  0  0
   10.9418   -3.4032   21.2053 O   0  0  0  0  0  0  0  0  0  0  0  0
    1.4797   -8.6258   16.2950 C   0  0  0  0  0  0  0  0  0  0  0  0
    9.2861   -1.2743   25.3585 C   0  0  0  0  0  0  0  0  0  0  0  0
    1.8892  -10.3985   17.7511 N   0  0  0  0  0  0  0  0  0  0  0  0
    9.6210   -0.6952   24.0976 C   0  0  0  0  0  0  0  0  0  0  0  0
    7.0792   -9.0217   17.1429 C   0  0  0  0  0  0  0  0  0  0  0  0
    3.1713  -10.1816   17.6634 C   0  0  0  0  0  0  0  0  0  0  0  0
    2.7878   -8.3822   16.2137 C   0  0  0  0  0  0  0  0  0  0  0  0
    9.4601   -2.6590   25.6528 C   0  0  0  0  0  0  0  0  0  0  0  0
   10.1182   -1.5672   23.1165 C   0  0  0  0  0  0  0  0  0  0  0  0
    1.0552   -9.6360   17.0650 C   0  0  0  0  0  0  0  0  0  0  0  0
    3.6519   -9.1783   16.9039 C   0  0  0  0  0  0  0  0  0  0  0  0
    7.8675   -7.0096   15.9415 C   0  0  0  0  0  0  0  0  0  0  0  0
    5.9733   -9.6553   17.3832 N   0  0  0  0  0  0  0  0  0  0  0  0
   10.2411   -2.9363   23.4301 C   0  0  0  0  0  0  0  0  0  0  0  0
   10.7288   -3.8197   19.9525 C   0  0  0  0  0  0  0  0  0  0  0  0
   10.1189   -5.0054   19.6987 C   0  0  0  0  0  0  0  0  0  0  0  0
  1  3  4  0
  1  7  4  0
  2 21  4  0
  2 27  4  0
  3  9  4  0
  3 10  4  0
  4  8  4  0
  4 18  4  0
  4 25  1  0
  5  9  4  0
  5 12  4  0
  6 13  1  0
  6 27  1  0
  7 28  4  0
  8 11  4  0
  9 29  4  0
 10 12  4  0
 11 24  1  0
 11 26  4  0
 12 25  1  0
 13 28  1  0
 14 20  4  0
 14 23  4  0
 15 17  4  0
 15 21  4  0
 16 19  4  0
 16 23  4  0
 17 22  4  0
 18 26  4  0
 19 24  4  0
 20 24  4  0
 22 27  4  0
 28 29  4  0
M  END
$$$$

 Created by Python create_sdf_string function

 29 33  0  0  0  0  0  0  0  0999 V2000
   10.7215   -3.3326   17.6437 C   0  0  0  0  0  0  0  0  0  0  0  0
    9.9489   -3.4675   24.6487 N   0  0  0  0  0  0  0  0  0  0  0  0
   10.0172   -4.4740   17.4101 C   0  0  0  0  0  0  0  0  0  0  0  0
    6.9051   -7.9575   16.4222 C   0  0  0  0  0  0  0  0  0  0  0  0
    8.9969   -6.3552   17.9668 N   0  0  0  0  0  0  0  0  0  0  0  0
   10.6702   -3.9051   22.4070 C   0  0  0  0  0  0  0  0  0  0  0  0
   11.0625   -3.0028   18.8894 C   0  0  0  0  0  0  0  0  0  0  0  0
    5.6180   -7.9194   16.1754 O   0  0  0  0  0  0  0  0  0  0  0  0
    9.7259   -5.3080   18.4485 C   0  0  0  0  0  0  0  0  0  0  0  0
    9.4578   -5.0200   16.3036 N   0  0  0  0  0  0  0  0  0  0  0  0
    5.0287   -8.9365   16.8223 C   0  0  0  0  0  0  0  0  0  0  0  0
    8.7742   -6.1498   16.6764 C   0  0  0  0  0  0  0  0  0  0  0  0
   10.9418   -3.4032   21.2053 O   0  0  0  0  0  0  0  0  0  0  0  0
    1.4797   -8.6258   16.2950 C   0  0  0  0  0  0  0  0  0  0  0  0
    9.2861   -1.2743   25.3585 C   0  0  0  0  0  0  0  0  0  0  0  0
    1.8892  -10.3985   17.7511 N   0  0  0  0  0  0  0  0  0  0  0  0
    9.6210   -0.6952   24.0976 C   0  0  0  0  0  0  0  0  0  0  0  0
    7.0792   -9.0217   17.1429 C   0  0  0  0  0  0  0  0  0  0  0  0
    3.1713  -10.1816   17.6634 C   0  0  0  0  0  0  0  0  0  0  0  0
    2.7878   -8.3822   16.2137 C   0  0  0  0  0  0  0  0  0  0  0  0
    9.4601   -2.6590   25.6528 C   0  0  0  0  0  0  0  0  0  0  0  0
   10.1182   -1.5672   23.1165 C   0  0  0  0  0  0  0  0  0  0  0  0
    1.0552   -9.6360   17.0650 C   0  0  0  0  0  0  0  0  0  0  0  0
    3.6519   -9.1783   16.9039 C   0  0  0  0  0  0  0  0  0  0  0  0
    7.8675   -7.0096   15.9415 C   0  0  0  0  0  0  0  0  0  0  0  0
    5.9733   -9.6553   17.3832 N   0  0  0  0  0  0  0  0  0  0  0  0
   10.2411   -2.9363   23.4301 C   0  0  0  0  0  0  0  0  0  0  0  0
   10.7288   -3.8197   19.9525 C   0  0  0  0  0  0  0  0  0  0  0  0
   10.1189   -5.0054   19.6987 C   0  0  0  0  0  0  0  0  0  0  0  0
  1  3  4  0
  1  7  4  0
  2 21  4  0
  2 27  4  0
  3  9  4  0
  3 10  4  0
  4  8  4  0
  4 18  4  0
  4 25  1  0
  5  9  4  0
  5 12  4  0
  6 13  1  0
  6 27  1  0
  7 28  4  0
  8 11  4  0
  9 29  4  0
 10 12  4  0
 11 24  1  0
 11 26  4  0
 12 25  1  0
 13 28  1  0
 14 20  4  0
 14 23  4  0
 15 17  4  0
 15 21  4  0
 16 19  4  0
 16 23  4  0
 17 22  4  0
 18 26  4  0
 19 24  4  0
 20 24  4  0
 22 27  4  0
 28 29  4  0
M  END
$$$$

 Created by Python create_sdf_string function

 29 33  0  0  0  0  0  0  0  0999 V2000
   10.7215   -3.3326   17.6437 C   0  0  0  0  0  0  0  0  0  0  0  0
    9.9489   -3.4675   24.6487 N   0  0  0  0  0  0  0  0  0  0  0  0
   10.0172   -4.4740   17.4101 C   0  0  0  0  0  0  0  0  0  0  0  0
    6.9051   -7.9575   16.4222 C   0  0  0  0  0  0  0  0  0  0  0  0
    8.9969   -6.3552   17.9668 N   0  0  0  0  0  0  0  0  0  0  0  0
   10.6702   -3.9051   22.4070 C   0  0  0  0  0  0  0  0  0  0  0  0
   11.0625   -3.0028   18.8894 C   0  0  0  0  0  0  0  0  0  0  0  0
    5.6180   -7.9194   16.1754 O   0  0  0  0  0  0  0  0  0  0  0  0
    9.7259   -5.3080   18.4485 C   0  0  0  0  0  0  0  0  0  0  0  0
    9.4578   -5.0200   16.3036 N   0  0  0  0  0  0  0  0  0  0  0  0
    5.0287   -8.9365   16.8223 C   0  0  0  0  0  0  0  0  0  0  0  0
    8.7742   -6.1498   16.6764 C   0  0  0  0  0  0  0  0  0  0  0  0
   10.9418   -3.4032   21.2053 O   0  0  0  0  0  0  0  0  0  0  0  0
    1.4797   -8.6258   16.2950 C   0  0  0  0  0  0  0  0  0  0  0  0
    9.2861   -1.2743   25.3585 C   0  0  0  0  0  0  0  0  0  0  0  0
    1.8892  -10.3985   17.7511 N   0  0  0  0  0  0  0  0  0  0  0  0
    9.6210   -0.6952   24.0976 C   0  0  0  0  0  0  0  0  0  0  0  0
    7.0792   -9.0217   17.1429 C   0  0  0  0  0  0  0  0  0  0  0  0
    3.1713  -10.1816   17.6634 C   0  0  0  0  0  0  0  0  0  0  0  0
    2.7878   -8.3822   16.2137 C   0  0  0  0  0  0  0  0  0  0  0  0
    9.4601   -2.6590   25.6528 C   0  0  0  0  0  0  0  0  0  0  0  0
   10.1182   -1.5672   23.1165 C   0  0  0  0  0  0  0  0  0  0  0  0
    1.0552   -9.6360   17.0650 C   0  0  0  0  0  0  0  0  0  0  0  0
    3.6519   -9.1783   16.9039 C   0  0  0  0  0  0  0  0  0  0  0  0
    7.8675   -7.0096   15.9415 C   0  0  0  0  0  0  0  0  0  0  0  0
    5.9733   -9.6553   17.3832 N   0  0  0  0  0  0  0  0  0  0  0  0
   10.2411   -2.9363   23.4301 C   0  0  0  0  0  0  0  0  0  0  0  0
   10.7288   -3.8197   19.9525 C   0  0  0  0  0  0  0  0  0  0  0  0
   10.1189   -5.0054   19.6987 C   0  0  0  0  0  0  0  0  0  0  0  0
  1  3  4  0
  1  7  4  0
  2 21  4  0
  2 27  4  0
  3  9  4  0
  3 10  4  0
  4  8  4  0
  4 18  4  0
  4 25  1  0
  5  9  4  0
  5 12  4  0
  6 13  1  0
  6 27  1  0
  7 28  4  0
  8 11  4  0
  9 29  4  0
 10 12  4  0
 11 24  1  0
 11 26  4  0
 12 25  1  0
 13 28  1  0
 14 20  4  0
 14 23  4  0
 15 17  4  0
 15 21  4  0
 16 19  4  0
 16 23  4  0
 17 22  4  0
 18 26  4  0
 19 24  4  0
 20 24  4  0
 22 27  4  0
 28 29  4  0
M  END
$$$$

 Created by Python create_sdf_string function

 29 33  0  0  0  0  0  0  0  0999 V2000
   10.7215   -3.3326   17.6437 C   0  0  0  0  0  0  0  0  0  0  0  0
    9.9489   -3.4675   24.6487 N   0  0  0  0  0  0  0  0  0  0  0  0
   10.0172   -4.4740   17.4101 C   0  0  0  0  0  0  0  0  0  0  0  0
    6.9051   -7.9575   16.4222 C   0  0  0  0  0  0  0  0  0  0  0  0
    8.9969   -6.3552   17.9668 N   0  0  0  0  0  0  0  0  0  0  0  0
   10.6702   -3.9051   22.4070 C   0  0  0  0  0  0  0  0  0  0  0  0
   11.0625   -3.0028   18.8894 C   0  0  0  0  0  0  0  0  0  0  0  0
    5.6180   -7.9194   16.1754 O   0  0  0  0  0  0  0  0  0  0  0  0
    9.7259   -5.3080   18.4485 C   0  0  0  0  0  0  0  0  0  0  0  0
    9.4578   -5.0200   16.3036 N   0  0  0  0  0  0  0  0  0  0  0  0
    5.0287   -8.9365   16.8223 C   0  0  0  0  0  0  0  0  0  0  0  0
    8.7742   -6.1498   16.6764 C   0  0  0  0  0  0  0  0  0  0  0  0
   10.9418   -3.4032   21.2053 O   0  0  0  0  0  0  0  0  0  0  0  0
    1.4797   -8.6258   16.2950 C   0  0  0  0  0  0  0  0  0  0  0  0
    9.2861   -1.2743   25.3585 C   0  0  0  0  0  0  0  0  0  0  0  0
    1.8892  -10.3985   17.7511 N   0  0  0  0  0  0  0  0  0  0  0  0
    9.6210   -0.6952   24.0976 C   0  0  0  0  0  0  0  0  0  0  0  0
    7.0792   -9.0217   17.1429 C   0  0  0  0  0  0  0  0  0  0  0  0
    3.1713  -10.1816   17.6634 C   0  0  0  0  0  0  0  0  0  0  0  0
    2.7878   -8.3822   16.2137 C   0  0  0  0  0  0  0  0  0  0  0  0
    9.4601   -2.6590   25.6528 C   0  0  0  0  0  0  0  0  0  0  0  0
   10.1182   -1.5672   23.1165 C   0  0  0  0  0  0  0  0  0  0  0  0
    1.0552   -9.6360   17.0650 C   0  0  0  0  0  0  0  0  0  0  0  0
    3.6519   -9.1783   16.9039 C   0  0  0  0  0  0  0  0  0  0  0  0
    7.8675   -7.0096   15.9415 C   0  0  0  0  0  0  0  0  0  0  0  0
    5.9733   -9.6553   17.3832 N   0  0  0  0  0  0  0  0  0  0  0  0
   10.2411   -2.9363   23.4301 C   0  0  0  0  0  0  0  0  0  0  0  0
   10.7288   -3.8197   19.9525 C   0  0  0  0  0  0  0  0  0  0  0  0
   10.1189   -5.0054   19.6987 C   0  0  0  0  0  0  0  0  0  0  0  0
  1  3  4  0
  1  7  4  0
  2 21  4  0
  2 27  4  0
  3  9  4  0
  3 10  4  0
  4  8  4  0
  4 18  4  0
  4 25  1  0
  5  9  4  0
  5 12  4  0
  6 13  1  0
  6 27  1  0
  7 28  4  0
  8 11  4  0
  9 29  4  0
 10 12  4  0
 11 24  1  0
 11 26  4  0
 12 25  1  0
 13 28  1  0
 14 20  4  0
 14 23  4  0
 15 17  4  0
 15 21  4  0
 16 19  4  0
 16 23  4  0
 17 22  4  0
 18 26  4  0
 19 24  4  0
 20 24  4  0
 22 27  4  0
 28 29  4  0
M  END
$$$$

 Created by Python create_sdf_string function

 29 33  0  0  0  0  0  0  0  0999 V2000
   10.7215   -3.3326   17.6437 C   0  0  0  0  0  0  0  0  0  0  0  0
    9.9489   -3.4675   24.6487 N   0  0  0  0  0  0  0  0  0  0  0  0
   10.0172   -4.4740   17.4101 C   0  0  0  0  0  0  0  0  0  0  0  0
    6.9051   -7.9575   16.4222 C   0  0  0  0  0  0  0  0  0  0  0  0
    8.9969   -6.3552   17.9668 N   0  0  0  0  0  0  0  0  0  0  0  0
   10.6702   -3.9051   22.4070 C   0  0  0  0  0  0  0  0  0  0  0  0
   11.0625   -3.0028   18.8894 C   0  0  0  0  0  0  0  0  0  0  0  0
    5.6180   -7.9194   16.1754 O   0  0  0  0  0  0  0  0  0  0  0  0
    9.7259   -5.3080   18.4485 C   0  0  0  0  0  0  0  0  0  0  0  0
    9.4578   -5.0200   16.3036 N   0  0  0  0  0  0  0  0  0  0  0  0
    5.0287   -8.9365   16.8223 C   0  0  0  0  0  0  0  0  0  0  0  0
    8.7742   -6.1498   16.6764 C   0  0  0  0  0  0  0  0  0  0  0  0
   10.9418   -3.4032   21.2053 O   0  0  0  0  0  0  0  0  0  0  0  0
    1.4797   -8.6258   16.2950 C   0  0  0  0  0  0  0  0  0  0  0  0
    9.2861   -1.2743   25.3585 C   0  0  0  0  0  0  0  0  0  0  0  0
    1.8892  -10.3985   17.7511 N   0  0  0  0  0  0  0  0  0  0  0  0
    9.6210   -0.6952   24.0976 C   0  0  0  0  0  0  0  0  0  0  0  0
    7.0792   -9.0217   17.1429 C   0  0  0  0  0  0  0  0  0  0  0  0
    3.1713  -10.1816   17.6634 C   0  0  0  0  0  0  0  0  0  0  0  0
    2.7878   -8.3822   16.2137 C   0  0  0  0  0  0  0  0  0  0  0  0
    9.4601   -2.6590   25.6528 C   0  0  0  0  0  0  0  0  0  0  0  0
   10.1182   -1.5672   23.1165 C   0  0  0  0  0  0  0  0  0  0  0  0
    1.0552   -9.6360   17.0650 C   0  0  0  0  0  0  0  0  0  0  0  0
    3.6519   -9.1783   16.9039 C   0  0  0  0  0  0  0  0  0  0  0  0
    7.8675   -7.0096   15.9415 C   0  0  0  0  0  0  0  0  0  0  0  0
    5.9733   -9.6553   17.3832 N   0  0  0  0  0  0  0  0  0  0  0  0
   10.2411   -2.9363   23.4301 C   0  0  0  0  0  0  0  0  0  0  0  0
   10.7288   -3.8197   19.9525 C   0  0  0  0  0  0  0  0  0  0  0  0
   10.1189   -5.0054   19.6987 C   0  0  0  0  0  0  0  0  0  0  0  0
  1  3  4  0
  1  7  4  0
  2 21  4  0
  2 27  4  0
  3  9  4  0
  3 10  4  0
  4  8  4  0
  4 18  4  0
  4 25  1  0
  5  9  4  0
  5 12  4  0
  6 13  1  0
  6 27  1  0
  7 28  4  0
  8 11  4  0
  9 29  4  0
 10 12  4  0
 11 24  1  0
 11 26  4  0
 12 25  1  0
 13 28  1  0
 14 20  4  0
 14 23  4  0
 15 17  4  0
 15 21  4  0
 16 19  4  0
 16 23  4  0
 17 22  4  0
 18 26  4  0
 19 24  4  0
 20 24  4  0
 22 27  4  0
 28 29  4  0
M  END
$$$$

 Created by Python create_sdf_string function

 29 33  0  0  0  0  0  0  0  0999 V2000
   10.7215   -3.3326   17.6437 C   0  0  0  0  0  0  0  0  0  0  0  0
    9.9489   -3.4675   24.6487 N   0  0  0  0  0  0  0  0  0  0  0  0
   10.0172   -4.4740   17.4101 C   0  0  0  0  0  0  0  0  0  0  0  0
    6.9051   -7.9575   16.4222 C   0  0  0  0  0  0  0  0  0  0  0  0
    8.9969   -6.3552   17.9668 N   0  0  0  0  0  0  0  0  0  0  0  0
   10.6702   -3.9051   22.4070 C   0  0  0  0  0  0  0  0  0  0  0  0
   11.0625   -3.0028   18.8894 C   0  0  0  0  0  0  0  0  0  0  0  0
    5.6180   -7.9194   16.1754 O   0  0  0  0  0  0  0  0  0  0  0  0
    9.7259   -5.3080   18.4485 C   0  0  0  0  0  0  0  0  0  0  0  0
    9.4578   -5.0200   16.3036 N   0  0  0  0  0  0  0  0  0  0  0  0
    5.0287   -8.9365   16.8223 C   0  0  0  0  0  0  0  0  0  0  0  0
    8.7742   -6.1498   16.6764 C   0  0  0  0  0  0  0  0  0  0  0  0
   10.9418   -3.4032   21.2053 O   0  0  0  0  0  0  0  0  0  0  0  0
    1.4797   -8.6258   16.2950 C   0  0  0  0  0  0  0  0  0  0  0  0
    9.2861   -1.2743   25.3585 C   0  0  0  0  0  0  0  0  0  0  0  0
    1.8892  -10.3985   17.7511 N   0  0  0  0  0  0  0  0  0  0  0  0
    9.6210   -0.6952   24.0976 C   0  0  0  0  0  0  0  0  0  0  0  0
    7.0792   -9.0217   17.1429 C   0  0  0  0  0  0  0  0  0  0  0  0
    3.1713  -10.1816   17.6634 C   0  0  0  0  0  0  0  0  0  0  0  0
    2.7878   -8.3822   16.2137 C   0  0  0  0  0  0  0  0  0  0  0  0
    9.4601   -2.6590   25.6528 C   0  0  0  0  0  0  0  0  0  0  0  0
   10.1182   -1.5672   23.1165 C   0  0  0  0  0  0  0  0  0  0  0  0
    1.0552   -9.6360   17.0650 C   0  0  0  0  0  0  0  0  0  0  0  0
    3.6519   -9.1783   16.9039 C   0  0  0  0  0  0  0  0  0  0  0  0
    7.8675   -7.0096   15.9415 C   0  0  0  0  0  0  0  0  0  0  0  0
    5.9733   -9.6553   17.3832 N   0  0  0  0  0  0  0  0  0  0  0  0
   10.2411   -2.9363   23.4301 C   0  0  0  0  0  0  0  0  0  0  0  0
   10.7288   -3.8197   19.9525 C   0  0  0  0  0  0  0  0  0  0  0  0
   10.1189   -5.0054   19.6987 C   0  0  0  0  0  0  0  0  0  0  0  0
  1  3  4  0
  1  7  4  0
  2 21  4  0
  2 27  4  0
  3  9  4  0
  3 10  4  0
  4  8  4  0
  4 18  4  0
  4 25  1  0
  5  9  4  0
  5 12  4  0
  6 13  1  0
  6 27  1  0
  7 28  4  0
  8 11  4  0
  9 29  4  0
 10 12  4  0
 11 24  1  0
 11 26  4  0
 12 25  1  0
 13 28  1  0
 14 20  4  0
 14 23  4  0
 15 17  4  0
 15 21  4  0
 16 19  4  0
 16 23  4  0
 17 22  4  0
 18 26  4  0
 19 24  4  0
 20 24  4  0
 22 27  4  0
 28 29  4  0
M  END
$$$$

 Created by Python create_sdf_string function

 29 33  0  0  0  0  0  0  0  0999 V2000
   10.7215   -3.3326   17.6437 C   0  0  0  0  0  0  0  0  0  0  0  0
    9.9489   -3.4675   24.6487 N   0  0  0  0  0  0  0  0  0  0  0  0
   10.0172   -4.4740   17.4101 C   0  0  0  0  0  0  0  0  0  0  0  0
    6.9051   -7.9575   16.4222 C   0  0  0  0  0  0  0  0  0  0  0  0
    8.9969   -6.3552   17.9668 N   0  0  0  0  0  0  0  0  0  0  0  0
   10.6702   -3.9051   22.4070 C   0  0  0  0  0  0  0  0  0  0  0  0
   11.0625   -3.0028   18.8894 C   0  0  0  0  0  0  0  0  0  0  0  0
    5.6180   -7.9194   16.1754 O   0  0  0  0  0  0  0  0  0  0  0  0
    9.7259   -5.3080   18.4485 C   0  0  0  0  0  0  0  0  0  0  0  0
    9.4578   -5.0200   16.3036 N   0  0  0  0  0  0  0  0  0  0  0  0
    5.0287   -8.9365   16.8223 C   0  0  0  0  0  0  0  0  0  0  0  0
    8.7742   -6.1498   16.6764 C   0  0  0  0  0  0  0  0  0  0  0  0
   10.9418   -3.4032   21.2053 O   0  0  0  0  0  0  0  0  0  0  0  0
    1.4797   -8.6258   16.2950 C   0  0  0  0  0  0  0  0  0  0  0  0
    9.2861   -1.2743   25.3585 C   0  0  0  0  0  0  0  0  0  0  0  0
    1.8892  -10.3985   17.7511 N   0  0  0  0  0  0  0  0  0  0  0  0
    9.6210   -0.6952   24.0976 C   0  0  0  0  0  0  0  0  0  0  0  0
    7.0792   -9.0217   17.1429 C   0  0  0  0  0  0  0  0  0  0  0  0
    3.1713  -10.1816   17.6634 C   0  0  0  0  0  0  0  0  0  0  0  0
    2.7878   -8.3822   16.2137 C   0  0  0  0  0  0  0  0  0  0  0  0
    9.4601   -2.6590   25.6528 C   0  0  0  0  0  0  0  0  0  0  0  0
   10.1182   -1.5672   23.1165 C   0  0  0  0  0  0  0  0  0  0  0  0
    1.0552   -9.6360   17.0650 C   0  0  0  0  0  0  0  0  0  0  0  0
    3.6519   -9.1783   16.9039 C   0  0  0  0  0  0  0  0  0  0  0  0
    7.8675   -7.0096   15.9415 C   0  0  0  0  0  0  0  0  0  0  0  0
    5.9733   -9.6553   17.3832 N   0  0  0  0  0  0  0  0  0  0  0  0
   10.2411   -2.9363   23.4301 C   0  0  0  0  0  0  0  0  0  0  0  0
   10.7288   -3.8197   19.9525 C   0  0  0  0  0  0  0  0  0  0  0  0
   10.1189   -5.0054   19.6987 C   0  0  0  0  0  0  0  0  0  0  0  0
  1  3  4  0
  1  7  4  0
  2 21  4  0
  2 27  4  0
  3  9  4  0
  3 10  4  0
  4  8  4  0
  4 18  4  0
  4 25  1  0
  5  9  4  0
  5 12  4  0
  6 13  1  0
  6 27  1  0
  7 28  4  0
  8 11  4  0
  9 29  4  0
 10 12  4  0
 11 24  1  0
 11 26  4  0
 12 25  1  0
 13 28  1  0
 14 20  4  0
 14 23  4  0
 15 17  4  0
 15 21  4  0
 16 19  4  0
 16 23  4  0
 17 22  4  0
 18 26  4  0
 19 24  4  0
 20 24  4  0
 22 27  4  0
 28 29  4  0
M  END
$$$$

 Created by Python create_sdf_string function

 29 33  0  0  0  0  0  0  0  0999 V2000
   10.7215   -3.3326   17.6437 C   0  0  0  0  0  0  0  0  0  0  0  0
    9.9489   -3.4675   24.6487 N   0  0  0  0  0  0  0  0  0  0  0  0
   10.0172   -4.4740   17.4101 C   0  0  0  0  0  0  0  0  0  0  0  0
    6.9051   -7.9575   16.4222 C   0  0  0  0  0  0  0  0  0  0  0  0
    8.9969   -6.3552   17.9668 N   0  0  0  0  0  0  0  0  0  0  0  0
   10.6702   -3.9051   22.4070 C   0  0  0  0  0  0  0  0  0  0  0  0
   11.0625   -3.0028   18.8894 C   0  0  0  0  0  0  0  0  0  0  0  0
    5.6180   -7.9194   16.1754 O   0  0  0  0  0  0  0  0  0  0  0  0
    9.7259   -5.3080   18.4485 C   0  0  0  0  0  0  0  0  0  0  0  0
    9.4578   -5.0200   16.3036 N   0  0  0  0  0  0  0  0  0  0  0  0
    5.0287   -8.9365   16.8223 C   0  0  0  0  0  0  0  0  0  0  0  0
    8.7742   -6.1498   16.6764 C   0  0  0  0  0  0  0  0  0  0  0  0
   10.9418   -3.4032   21.2053 O   0  0  0  0  0  0  0  0  0  0  0  0
    1.4797   -8.6258   16.2950 C   0  0  0  0  0  0  0  0  0  0  0  0
    9.2861   -1.2743   25.3585 C   0  0  0  0  0  0  0  0  0  0  0  0
    1.8892  -10.3985   17.7511 N   0  0  0  0  0  0  0  0  0  0  0  0
    9.6210   -0.6952   24.0976 C   0  0  0  0  0  0  0  0  0  0  0  0
    7.0792   -9.0217   17.1429 C   0  0  0  0  0  0  0  0  0  0  0  0
    3.1713  -10.1816   17.6634 C   0  0  0  0  0  0  0  0  0  0  0  0
    2.7878   -8.3822   16.2137 C   0  0  0  0  0  0  0  0  0  0  0  0
    9.4601   -2.6590   25.6528 C   0  0  0  0  0  0  0  0  0  0  0  0
   10.1182   -1.5672   23.1165 C   0  0  0  0  0  0  0  0  0  0  0  0
    1.0552   -9.6360   17.0650 C   0  0  0  0  0  0  0  0  0  0  0  0
    3.6519   -9.1783   16.9039 C   0  0  0  0  0  0  0  0  0  0  0  0
    7.8675   -7.0096   15.9415 C   0  0  0  0  0  0  0  0  0  0  0  0
    5.9733   -9.6553   17.3832 N   0  0  0  0  0  0  0  0  0  0  0  0
   10.2411   -2.9363   23.4301 C   0  0  0  0  0  0  0  0  0  0  0  0
   10.7288   -3.8197   19.9525 C   0  0  0  0  0  0  0  0  0  0  0  0
   10.1189   -5.0054   19.6987 C   0  0  0  0  0  0  0  0  0  0  0  0
  1  3  4  0
  1  7  4  0
  2 21  4  0
  2 27  4  0
  3  9  4  0
  3 10  4  0
  4  8  4  0
  4 18  4  0
  4 25  1  0
  5  9  4  0
  5 12  4  0
  6 13  1  0
  6 27  1  0
  7 28  4  0
  8 11  4  0
  9 29  4  0
 10 12  4  0
 11 24  1  0
 11 26  4  0
 12 25  1  0
 13 28  1  0
 14 20  4  0
 14 23  4  0
 15 17  4  0
 15 21  4  0
 16 19  4  0
 16 23  4  0
 17 22  4  0
 18 26  4  0
 19 24  4  0
 20 24  4  0
 22 27  4  0
 28 29  4  0
M  END
$$$$

 Created by Python create_sdf_string function

 29 33  0  0  0  0  0  0  0  0999 V2000
   10.7215   -3.3326   17.6437 C   0  0  0  0  0  0  0  0  0  0  0  0
    9.9489   -3.4675   24.6487 N   0  0  0  0  0  0  0  0  0  0  0  0
   10.0172   -4.4740   17.4101 C   0  0  0  0  0  0  0  0  0  0  0  0
    6.9051   -7.9575   16.4222 C   0  0  0  0  0  0  0  0  0  0  0  0
    8.9969   -6.3552   17.9668 N   0  0  0  0  0  0  0  0  0  0  0  0
   10.6702   -3.9051   22.4070 C   0  0  0  0  0  0  0  0  0  0  0  0
   11.0625   -3.0028   18.8894 C   0  0  0  0  0  0  0  0  0  0  0  0
    5.6180   -7.9194   16.1754 O   0  0  0  0  0  0  0  0  0  0  0  0
    9.7259   -5.3080   18.4485 C   0  0  0  0  0  0  0  0  0  0  0  0
    9.4578   -5.0200   16.3036 N   0  0  0  0  0  0  0  0  0  0  0  0
    5.0287   -8.9365   16.8223 C   0  0  0  0  0  0  0  0  0  0  0  0
    8.7742   -6.1498   16.6764 C   0  0  0  0  0  0  0  0  0  0  0  0
   10.9418   -3.4032   21.2053 O   0  0  0  0  0  0  0  0  0  0  0  0
    1.4797   -8.6258   16.2950 C   0  0  0  0  0  0  0  0  0  0  0  0
    9.2861   -1.2743   25.3585 C   0  0  0  0  0  0  0  0  0  0  0  0
    1.8892  -10.3985   17.7511 N   0  0  0  0  0  0  0  0  0  0  0  0
    9.6210   -0.6952   24.0976 C   0  0  0  0  0  0  0  0  0  0  0  0
    7.0792   -9.0217   17.1429 C   0  0  0  0  0  0  0  0  0  0  0  0
    3.1713  -10.1816   17.6634 C   0  0  0  0  0  0  0  0  0  0  0  0
    2.7878   -8.3822   16.2137 C   0  0  0  0  0  0  0  0  0  0  0  0
    9.4601   -2.6590   25.6528 C   0  0  0  0  0  0  0  0  0  0  0  0
   10.1182   -1.5672   23.1165 C   0  0  0  0  0  0  0  0  0  0  0  0
    1.0552   -9.6360   17.0650 C   0  0  0  0  0  0  0  0  0  0  0  0
    3.6519   -9.1783   16.9039 C   0  0  0  0  0  0  0  0  0  0  0  0
    7.8675   -7.0096   15.9415 C   0  0  0  0  0  0  0  0  0  0  0  0
    5.9733   -9.6553   17.3832 N   0  0  0  0  0  0  0  0  0  0  0  0
   10.2411   -2.9363   23.4301 C   0  0  0  0  0  0  0  0  0  0  0  0
   10.7288   -3.8197   19.9525 C   0  0  0  0  0  0  0  0  0  0  0  0
   10.1189   -5.0054   19.6987 C   0  0  0  0  0  0  0  0  0  0  0  0
  1  3  4  0
  1  7  4  0
  2 21  4  0
  2 27  4  0
  3  9  4  0
  3 10  4  0
  4  8  4  0
  4 18  4  0
  4 25  1  0
  5  9  4  0
  5 12  4  0
  6 13  1  0
  6 27  1  0
  7 28  4  0
  8 11  4  0
  9 29  4  0
 10 12  4  0
 11 24  1  0
 11 26  4  0
 12 25  1  0
 13 28  1  0
 14 20  4  0
 14 23  4  0
 15 17  4  0
 15 21  4  0
 16 19  4  0
 16 23  4  0
 17 22  4  0
 18 26  4  0
 19 24  4  0
 20 24  4  0
 22 27  4  0
 28 29  4  0
M  END
$$$$

 Created by Python create_sdf_string function

 29 33  0  0  0  0  0  0  0  0999 V2000
   10.7215   -3.3326   17.6437 C   0  0  0  0  0  0  0  0  0  0  0  0
    9.9489   -3.4675   24.6487 N   0  0  0  0  0  0  0  0  0  0  0  0
   10.0172   -4.4740   17.4101 C   0  0  0  0  0  0  0  0  0  0  0  0
    6.9051   -7.9575   16.4222 C   0  0  0  0  0  0  0  0  0  0  0  0
    8.9969   -6.3552   17.9668 N   0  0  0  0  0  0  0  0  0  0  0  0
   10.6702   -3.9051   22.4070 C   0  0  0  0  0  0  0  0  0  0  0  0
   11.0625   -3.0028   18.8894 C   0  0  0  0  0  0  0  0  0  0  0  0
    5.6180   -7.9194   16.1754 O   0  0  0  0  0  0  0  0  0  0  0  0
    9.7259   -5.3080   18.4485 C   0  0  0  0  0  0  0  0  0  0  0  0
    9.4578   -5.0200   16.3036 N   0  0  0  0  0  0  0  0  0  0  0  0
    5.0287   -8.9365   16.8223 C   0  0  0  0  0  0  0  0  0  0  0  0
    8.7742   -6.1498   16.6764 C   0  0  0  0  0  0  0  0  0  0  0  0
   10.9418   -3.4032   21.2053 O   0  0  0  0  0  0  0  0  0  0  0  0
    1.4797   -8.6258   16.2950 C   0  0  0  0  0  0  0  0  0  0  0  0
    9.2861   -1.2743   25.3585 C   0  0  0  0  0  0  0  0  0  0  0  0
    1.8892  -10.3985   17.7511 N   0  0  0  0  0  0  0  0  0  0  0  0
    9.6210   -0.6952   24.0976 C   0  0  0  0  0  0  0  0  0  0  0  0
    7.0792   -9.0217   17.1429 C   0  0  0  0  0  0  0  0  0  0  0  0
    3.1713  -10.1816   17.6634 C   0  0  0  0  0  0  0  0  0  0  0  0
    2.7878   -8.3822   16.2137 C   0  0  0  0  0  0  0  0  0  0  0  0
    9.4601   -2.6590   25.6528 C   0  0  0  0  0  0  0  0  0  0  0  0
   10.1182   -1.5672   23.1165 C   0  0  0  0  0  0  0  0  0  0  0  0
    1.0552   -9.6360   17.0650 C   0  0  0  0  0  0  0  0  0  0  0  0
    3.6519   -9.1783   16.9039 C   0  0  0  0  0  0  0  0  0  0  0  0
    7.8675   -7.0096   15.9415 C   0  0  0  0  0  0  0  0  0  0  0  0
    5.9733   -9.6553   17.3832 N   0  0  0  0  0  0  0  0  0  0  0  0
   10.2411   -2.9363   23.4301 C   0  0  0  0  0  0  0  0  0  0  0  0
   10.7288   -3.8197   19.9525 C   0  0  0  0  0  0  0  0  0  0  0  0
   10.1189   -5.0054   19.6987 C   0  0  0  0  0  0  0  0  0  0  0  0
  1  3  4  0
  1  7  4  0
  2 21  4  0
  2 27  4  0
  3  9  4  0
  3 10  4  0
  4  8  4  0
  4 18  4  0
  4 25  1  0
  5  9  4  0
  5 12  4  0
  6 13  1  0
  6 27  1  0
  7 28  4  0
  8 11  4  0
  9 29  4  0
 10 12  4  0
 11 24  1  0
 11 26  4  0
 12 25  1  0
 13 28  1  0
 14 20  4  0
 14 23  4  0
 15 17  4  0
 15 21  4  0
 16 19  4  0
 16 23  4  0
 17 22  4  0
 18 26  4  0
 19 24  4  0
 20 24  4  0
 22 27  4  0
 28 29  4  0
M  END
$$$$

 Created by Python create_sdf_string function

 29 33  0  0  0  0  0  0  0  0999 V2000
   10.7215   -3.3326   17.6437 C   0  0  0  0  0  0  0  0  0  0  0  0
    9.9489   -3.4675   24.6487 N   0  0  0  0  0  0  0  0  0  0  0  0
   10.0172   -4.4740   17.4101 C   0  0  0  0  0  0  0  0  0  0  0  0
    6.9051   -7.9575   16.4222 C   0  0  0  0  0  0  0  0  0  0  0  0
    8.9969   -6.3552   17.9668 N   0  0  0  0  0  0  0  0  0  0  0  0
   10.6702   -3.9051   22.4070 C   0  0  0  0  0  0  0  0  0  0  0  0
   11.0625   -3.0028   18.8894 C   0  0  0  0  0  0  0  0  0  0  0  0
    5.6180   -7.9194   16.1754 O   0  0  0  0  0  0  0  0  0  0  0  0
    9.7259   -5.3080   18.4485 C   0  0  0  0  0  0  0  0  0  0  0  0
    9.4578   -5.0200   16.3036 N   0  0  0  0  0  0  0  0  0  0  0  0
    5.0287   -8.9365   16.8223 C   0  0  0  0  0  0  0  0  0  0  0  0
    8.7742   -6.1498   16.6764 C   0  0  0  0  0  0  0  0  0  0  0  0
   10.9418   -3.4032   21.2053 O   0  0  0  0  0  0  0  0  0  0  0  0
    1.4797   -8.6258   16.2950 C   0  0  0  0  0  0  0  0  0  0  0  0
    9.2861   -1.2743   25.3585 C   0  0  0  0  0  0  0  0  0  0  0  0
    1.8892  -10.3985   17.7511 N   0  0  0  0  0  0  0  0  0  0  0  0
    9.6210   -0.6952   24.0976 C   0  0  0  0  0  0  0  0  0  0  0  0
    7.0792   -9.0217   17.1429 C   0  0  0  0  0  0  0  0  0  0  0  0
    3.1713  -10.1816   17.6634 C   0  0  0  0  0  0  0  0  0  0  0  0
    2.7878   -8.3822   16.2137 C   0  0  0  0  0  0  0  0  0  0  0  0
    9.4601   -2.6590   25.6528 C   0  0  0  0  0  0  0  0  0  0  0  0
   10.1182   -1.5672   23.1165 C   0  0  0  0  0  0  0  0  0  0  0  0
    1.0552   -9.6360   17.0650 C   0  0  0  0  0  0  0  0  0  0  0  0
    3.6519   -9.1783   16.9039 C   0  0  0  0  0  0  0  0  0  0  0  0
    7.8675   -7.0096   15.9415 C   0  0  0  0  0  0  0  0  0  0  0  0
    5.9733   -9.6553   17.3832 N   0  0  0  0  0  0  0  0  0  0  0  0
   10.2411   -2.9363   23.4301 C   0  0  0  0  0  0  0  0  0  0  0  0
   10.7288   -3.8197   19.9525 C   0  0  0  0  0  0  0  0  0  0  0  0
   10.1189   -5.0054   19.6987 C   0  0  0  0  0  0  0  0  0  0  0  0
  1  3  4  0
  1  7  4  0
  2 21  4  0
  2 27  4  0
  3  9  4  0
  3 10  4  0
  4  8  4  0
  4 18  4  0
  4 25  1  0
  5  9  4  0
  5 12  4  0
  6 13  1  0
  6 27  1  0
  7 28  4  0
  8 11  4  0
  9 29  4  0
 10 12  4  0
 11 24  1  0
 11 26  4  0
 12 25  1  0
 13 28  1  0
 14 20  4  0
 14 23  4  0
 15 17  4  0
 15 21  4  0
 16 19  4  0
 16 23  4  0
 17 22  4  0
 18 26  4  0
 19 24  4  0
 20 24  4  0
 22 27  4  0
 28 29  4  0
M  END
$$$$

 Created by Python create_sdf_string function

 29 33  0  0  0  0  0  0  0  0999 V2000
   10.7215   -3.3326   17.6437 C   0  0  0  0  0  0  0  0  0  0  0  0
    9.9489   -3.4675   24.6487 N   0  0  0  0  0  0  0  0  0  0  0  0
   10.0172   -4.4740   17.4101 C   0  0  0  0  0  0  0  0  0  0  0  0
    6.9051   -7.9575   16.4222 C   0  0  0  0  0  0  0  0  0  0  0  0
    8.9969   -6.3552   17.9668 N   0  0  0  0  0  0  0  0  0  0  0  0
   10.6702   -3.9051   22.4070 C   0  0  0  0  0  0  0  0  0  0  0  0
   11.0625   -3.0028   18.8894 C   0  0  0  0  0  0  0  0  0  0  0  0
    5.6180   -7.9194   16.1754 O   0  0  0  0  0  0  0  0  0  0  0  0
    9.7259   -5.3080   18.4485 C   0  0  0  0  0  0  0  0  0  0  0  0
    9.4578   -5.0200   16.3036 N   0  0  0  0  0  0  0  0  0  0  0  0
    5.0287   -8.9365   16.8223 C   0  0  0  0  0  0  0  0  0  0  0  0
    8.7742   -6.1498   16.6764 C   0  0  0  0  0  0  0  0  0  0  0  0
   10.9418   -3.4032   21.2053 O   0  0  0  0  0  0  0  0  0  0  0  0
    1.4797   -8.6258   16.2950 C   0  0  0  0  0  0  0  0  0  0  0  0
    9.2861   -1.2743   25.3585 C   0  0  0  0  0  0  0  0  0  0  0  0
    1.8892  -10.3985   17.7511 N   0  0  0  0  0  0  0  0  0  0  0  0
    9.6210   -0.6952   24.0976 C   0  0  0  0  0  0  0  0  0  0  0  0
    7.0792   -9.0217   17.1429 C   0  0  0  0  0  0  0  0  0  0  0  0
    3.1713  -10.1816   17.6634 C   0  0  0  0  0  0  0  0  0  0  0  0
    2.7878   -8.3822   16.2137 C   0  0  0  0  0  0  0  0  0  0  0  0
    9.4601   -2.6590   25.6528 C   0  0  0  0  0  0  0  0  0  0  0  0
   10.1182   -1.5672   23.1165 C   0  0  0  0  0  0  0  0  0  0  0  0
    1.0552   -9.6360   17.0650 C   0  0  0  0  0  0  0  0  0  0  0  0
    3.6519   -9.1783   16.9039 C   0  0  0  0  0  0  0  0  0  0  0  0
    7.8675   -7.0096   15.9415 C   0  0  0  0  0  0  0  0  0  0  0  0
    5.9733   -9.6553   17.3832 N   0  0  0  0  0  0  0  0  0  0  0  0
   10.2411   -2.9363   23.4301 C   0  0  0  0  0  0  0  0  0  0  0  0
   10.7288   -3.8197   19.9525 C   0  0  0  0  0  0  0  0  0  0  0  0
   10.1189   -5.0054   19.6987 C   0  0  0  0  0  0  0  0  0  0  0  0
  1  3  4  0
  1  7  4  0
  2 21  4  0
  2 27  4  0
  3  9  4  0
  3 10  4  0
  4  8  4  0
  4 18  4  0
  4 25  1  0
  5  9  4  0
  5 12  4  0
  6 13  1  0
  6 27  1  0
  7 28  4  0
  8 11  4  0
  9 29  4  0
 10 12  4  0
 11 24  1  0
 11 26  4  0
 12 25  1  0
 13 28  1  0
 14 20  4  0
 14 23  4  0
 15 17  4  0
 15 21  4  0
 16 19  4  0
 16 23  4  0
 17 22  4  0
 18 26  4  0
 19 24  4  0
 20 24  4  0
 22 27  4  0
 28 29  4  0
M  END
$$$$

 Created by Python create_sdf_string function

 29 33  0  0  0  0  0  0  0  0999 V2000
   10.7215   -3.3326   17.6437 C   0  0  0  0  0  0  0  0  0  0  0  0
    9.9489   -3.4675   24.6487 N   0  0  0  0  0  0  0  0  0  0  0  0
   10.0172   -4.4740   17.4101 C   0  0  0  0  0  0  0  0  0  0  0  0
    6.9051   -7.9575   16.4222 C   0  0  0  0  0  0  0  0  0  0  0  0
    8.9969   -6.3552   17.9668 N   0  0  0  0  0  0  0  0  0  0  0  0
   10.6702   -3.9051   22.4070 C   0  0  0  0  0  0  0  0  0  0  0  0
   11.0625   -3.0028   18.8894 C   0  0  0  0  0  0  0  0  0  0  0  0
    5.6180   -7.9194   16.1754 O   0  0  0  0  0  0  0  0  0  0  0  0
    9.7259   -5.3080   18.4485 C   0  0  0  0  0  0  0  0  0  0  0  0
    9.4578   -5.0200   16.3036 N   0  0  0  0  0  0  0  0  0  0  0  0
    5.0287   -8.9365   16.8223 C   0  0  0  0  0  0  0  0  0  0  0  0
    8.7742   -6.1498   16.6764 C   0  0  0  0  0  0  0  0  0  0  0  0
   10.9418   -3.4032   21.2053 O   0  0  0  0  0  0  0  0  0  0  0  0
    1.4797   -8.6258   16.2950 C   0  0  0  0  0  0  0  0  0  0  0  0
    9.2861   -1.2743   25.3585 C   0  0  0  0  0  0  0  0  0  0  0  0
    1.8892  -10.3985   17.7511 N   0  0  0  0  0  0  0  0  0  0  0  0
    9.6210   -0.6952   24.0976 C   0  0  0  0  0  0  0  0  0  0  0  0
    7.0792   -9.0217   17.1429 C   0  0  0  0  0  0  0  0  0  0  0  0
    3.1713  -10.1816   17.6634 C   0  0  0  0  0  0  0  0  0  0  0  0
    2.7878   -8.3822   16.2137 C   0  0  0  0  0  0  0  0  0  0  0  0
    9.4601   -2.6590   25.6528 C   0  0  0  0  0  0  0  0  0  0  0  0
   10.1182   -1.5672   23.1165 C   0  0  0  0  0  0  0  0  0  0  0  0
    1.0552   -9.6360   17.0650 C   0  0  0  0  0  0  0  0  0  0  0  0
    3.6519   -9.1783   16.9039 C   0  0  0  0  0  0  0  0  0  0  0  0
    7.8675   -7.0096   15.9415 C   0  0  0  0  0  0  0  0  0  0  0  0
    5.9733   -9.6553   17.3832 N   0  0  0  0  0  0  0  0  0  0  0  0
   10.2411   -2.9363   23.4301 C   0  0  0  0  0  0  0  0  0  0  0  0
   10.7288   -3.8197   19.9525 C   0  0  0  0  0  0  0  0  0  0  0  0
   10.1189   -5.0054   19.6987 C   0  0  0  0  0  0  0  0  0  0  0  0
  1  3  4  0
  1  7  4  0
  2 21  4  0
  2 27  4  0
  3  9  4  0
  3 10  4  0
  4  8  4  0
  4 18  4  0
  4 25  1  0
  5  9  4  0
  5 12  4  0
  6 13  1  0
  6 27  1  0
  7 28  4  0
  8 11  4  0
  9 29  4  0
 10 12  4  0
 11 24  1  0
 11 26  4  0
 12 25  1  0
 13 28  1  0
 14 20  4  0
 14 23  4  0
 15 17  4  0
 15 21  4  0
 16 19  4  0
 16 23  4  0
 17 22  4  0
 18 26  4  0
 19 24  4  0
 20 24  4  0
 22 27  4  0
 28 29  4  0
M  END
$$$$

 Created by Python create_sdf_string function

 29 33  0  0  0  0  0  0  0  0999 V2000
   10.7215   -3.3326   17.6437 C   0  0  0  0  0  0  0  0  0  0  0  0
    9.9489   -3.4675   24.6487 N   0  0  0  0  0  0  0  0  0  0  0  0
   10.0172   -4.4740   17.4101 C   0  0  0  0  0  0  0  0  0  0  0  0
    6.9051   -7.9575   16.4222 C   0  0  0  0  0  0  0  0  0  0  0  0
    8.9969   -6.3552   17.9668 N   0  0  0  0  0  0  0  0  0  0  0  0
   10.6702   -3.9051   22.4070 C   0  0  0  0  0  0  0  0  0  0  0  0
   11.0625   -3.0028   18.8894 C   0  0  0  0  0  0  0  0  0  0  0  0
    5.6180   -7.9194   16.1754 O   0  0  0  0  0  0  0  0  0  0  0  0
    9.7259   -5.3080   18.4485 C   0  0  0  0  0  0  0  0  0  0  0  0
    9.4578   -5.0200   16.3036 N   0  0  0  0  0  0  0  0  0  0  0  0
    5.0287   -8.9365   16.8223 C   0  0  0  0  0  0  0  0  0  0  0  0
    8.7742   -6.1498   16.6764 C   0  0  0  0  0  0  0  0  0  0  0  0
   10.9418   -3.4032   21.2053 O   0  0  0  0  0  0  0  0  0  0  0  0
    1.4797   -8.6258   16.2950 C   0  0  0  0  0  0  0  0  0  0  0  0
    9.2861   -1.2743   25.3585 C   0  0  0  0  0  0  0  0  0  0  0  0
    1.8892  -10.3985   17.7511 N   0  0  0  0  0  0  0  0  0  0  0  0
    9.6210   -0.6952   24.0976 C   0  0  0  0  0  0  0  0  0  0  0  0
    7.0792   -9.0217   17.1429 C   0  0  0  0  0  0  0  0  0  0  0  0
    3.1713  -10.1816   17.6634 C   0  0  0  0  0  0  0  0  0  0  0  0
    2.7878   -8.3822   16.2137 C   0  0  0  0  0  0  0  0  0  0  0  0
    9.4601   -2.6590   25.6528 C   0  0  0  0  0  0  0  0  0  0  0  0
   10.1182   -1.5672   23.1165 C   0  0  0  0  0  0  0  0  0  0  0  0
    1.0552   -9.6360   17.0650 C   0  0  0  0  0  0  0  0  0  0  0  0
    3.6519   -9.1783   16.9039 C   0  0  0  0  0  0  0  0  0  0  0  0
    7.8675   -7.0096   15.9415 C   0  0  0  0  0  0  0  0  0  0  0  0
    5.9733   -9.6553   17.3832 N   0  0  0  0  0  0  0  0  0  0  0  0
   10.2411   -2.9363   23.4301 C   0  0  0  0  0  0  0  0  0  0  0  0
   10.7288   -3.8197   19.9525 C   0  0  0  0  0  0  0  0  0  0  0  0
   10.1189   -5.0054   19.6987 C   0  0  0  0  0  0  0  0  0  0  0  0
  1  3  4  0
  1  7  4  0
  2 21  4  0
  2 27  4  0
  3  9  4  0
  3 10  4  0
  4  8  4  0
  4 18  4  0
  4 25  1  0
  5  9  4  0
  5 12  4  0
  6 13  1  0
  6 27  1  0
  7 28  4  0
  8 11  4  0
  9 29  4  0
 10 12  4  0
 11 24  1  0
 11 26  4  0
 12 25  1  0
 13 28  1  0
 14 20  4  0
 14 23  4  0
 15 17  4  0
 15 21  4  0
 16 19  4  0
 16 23  4  0
 17 22  4  0
 18 26  4  0
 19 24  4  0
 20 24  4  0
 22 27  4  0
 28 29  4  0
M  END
$$$$

 Created by Python create_sdf_string function

 29 33  0  0  0  0  0  0  0  0999 V2000
   10.7215   -3.3326   17.6437 C   0  0  0  0  0  0  0  0  0  0  0  0
    9.9489   -3.4675   24.6487 N   0  0  0  0  0  0  0  0  0  0  0  0
   10.0172   -4.4740   17.4101 C   0  0  0  0  0  0  0  0  0  0  0  0
    6.9051   -7.9575   16.4222 C   0  0  0  0  0  0  0  0  0  0  0  0
    8.9969   -6.3552   17.9668 N   0  0  0  0  0  0  0  0  0  0  0  0
   10.6702   -3.9051   22.4070 C   0  0  0  0  0  0  0  0  0  0  0  0
   11.0625   -3.0028   18.8894 C   0  0  0  0  0  0  0  0  0  0  0  0
    5.6180   -7.9194   16.1754 O   0  0  0  0  0  0  0  0  0  0  0  0
    9.7259   -5.3080   18.4485 C   0  0  0  0  0  0  0  0  0  0  0  0
    9.4578   -5.0200   16.3036 N   0  0  0  0  0  0  0  0  0  0  0  0
    5.0287   -8.9365   16.8223 C   0  0  0  0  0  0  0  0  0  0  0  0
    8.7742   -6.1498   16.6764 C   0  0  0  0  0  0  0  0  0  0  0  0
   10.9418   -3.4032   21.2053 O   0  0  0  0  0  0  0  0  0  0  0  0
    1.4797   -8.6258   16.2950 C   0  0  0  0  0  0  0  0  0  0  0  0
    9.2861   -1.2743   25.3585 C   0  0  0  0  0  0  0  0  0  0  0  0
    1.8892  -10.3985   17.7511 N   0  0  0  0  0  0  0  0  0  0  0  0
    9.6210   -0.6952   24.0976 C   0  0  0  0  0  0  0  0  0  0  0  0
    7.0792   -9.0217   17.1429 C   0  0  0  0  0  0  0  0  0  0  0  0
    3.1713  -10.1816   17.6634 C   0  0  0  0  0  0  0  0  0  0  0  0
    2.7878   -8.3822   16.2137 C   0  0  0  0  0  0  0  0  0  0  0  0
    9.4601   -2.6590   25.6528 C   0  0  0  0  0  0  0  0  0  0  0  0
   10.1182   -1.5672   23.1165 C   0  0  0  0  0  0  0  0  0  0  0  0
    1.0552   -9.6360   17.0650 C   0  0  0  0  0  0  0  0  0  0  0  0
    3.6519   -9.1783   16.9039 C   0  0  0  0  0  0  0  0  0  0  0  0
    7.8675   -7.0096   15.9415 C   0  0  0  0  0  0  0  0  0  0  0  0
    5.9733   -9.6553   17.3832 N   0  0  0  0  0  0  0  0  0  0  0  0
   10.2411   -2.9363   23.4301 C   0  0  0  0  0  0  0  0  0  0  0  0
   10.7288   -3.8197   19.9525 C   0  0  0  0  0  0  0  0  0  0  0  0
   10.1189   -5.0054   19.6987 C   0  0  0  0  0  0  0  0  0  0  0  0
  1  3  4  0
  1  7  4  0
  2 21  4  0
  2 27  4  0
  3  9  4  0
  3 10  4  0
  4  8  4  0
  4 18  4  0
  4 25  1  0
  5  9  4  0
  5 12  4  0
  6 13  1  0
  6 27  1  0
  7 28  4  0
  8 11  4  0
  9 29  4  0
 10 12  4  0
 11 24  1  0
 11 26  4  0
 12 25  1  0
 13 28  1  0
 14 20  4  0
 14 23  4  0
 15 17  4  0
 15 21  4  0
 16 19  4  0
 16 23  4  0
 17 22  4  0
 18 26  4  0
 19 24  4  0
 20 24  4  0
 22 27  4  0
 28 29  4  0
M  END
$$$$

 Created by Python create_sdf_string function

 29 33  0  0  0  0  0  0  0  0999 V2000
   10.7215   -3.3326   17.6437 C   0  0  0  0  0  0  0  0  0  0  0  0
    9.9489   -3.4675   24.6487 N   0  0  0  0  0  0  0  0  0  0  0  0
   10.0172   -4.4740   17.4101 C   0  0  0  0  0  0  0  0  0  0  0  0
    6.9051   -7.9575   16.4222 C   0  0  0  0  0  0  0  0  0  0  0  0
    8.9969   -6.3552   17.9668 N   0  0  0  0  0  0  0  0  0  0  0  0
   10.6702   -3.9051   22.4070 C   0  0  0  0  0  0  0  0  0  0  0  0
   11.0625   -3.0028   18.8894 C   0  0  0  0  0  0  0  0  0  0  0  0
    5.6180   -7.9194   16.1754 O   0  0  0  0  0  0  0  0  0  0  0  0
    9.7259   -5.3080   18.4485 C   0  0  0  0  0  0  0  0  0  0  0  0
    9.4578   -5.0200   16.3036 N   0  0  0  0  0  0  0  0  0  0  0  0
    5.0287   -8.9365   16.8223 C   0  0  0  0  0  0  0  0  0  0  0  0
    8.7742   -6.1498   16.6764 C   0  0  0  0  0  0  0  0  0  0  0  0
   10.9418   -3.4032   21.2053 O   0  0  0  0  0  0  0  0  0  0  0  0
    1.4797   -8.6258   16.2950 C   0  0  0  0  0  0  0  0  0  0  0  0
    9.2861   -1.2743   25.3585 C   0  0  0  0  0  0  0  0  0  0  0  0
    1.8892  -10.3985   17.7511 N   0  0  0  0  0  0  0  0  0  0  0  0
    9.6210   -0.6952   24.0976 C   0  0  0  0  0  0  0  0  0  0  0  0
    7.0792   -9.0217   17.1429 C   0  0  0  0  0  0  0  0  0  0  0  0
    3.1713  -10.1816   17.6634 C   0  0  0  0  0  0  0  0  0  0  0  0
    2.7878   -8.3822   16.2137 C   0  0  0  0  0  0  0  0  0  0  0  0
    9.4601   -2.6590   25.6528 C   0  0  0  0  0  0  0  0  0  0  0  0
   10.1182   -1.5672   23.1165 C   0  0  0  0  0  0  0  0  0  0  0  0
    1.0552   -9.6360   17.0650 C   0  0  0  0  0  0  0  0  0  0  0  0
    3.6519   -9.1783   16.9039 C   0  0  0  0  0  0  0  0  0  0  0  0
    7.8675   -7.0096   15.9415 C   0  0  0  0  0  0  0  0  0  0  0  0
    5.9733   -9.6553   17.3832 N   0  0  0  0  0  0  0  0  0  0  0  0
   10.2411   -2.9363   23.4301 C   0  0  0  0  0  0  0  0  0  0  0  0
   10.7288   -3.8197   19.9525 C   0  0  0  0  0  0  0  0  0  0  0  0
   10.1189   -5.0054   19.6987 C   0  0  0  0  0  0  0  0  0  0  0  0
  1  3  4  0
  1  7  4  0
  2 21  4  0
  2 27  4  0
  3  9  4  0
  3 10  4  0
  4  8  4  0
  4 18  4  0
  4 25  1  0
  5  9  4  0
  5 12  4  0
  6 13  1  0
  6 27  1  0
  7 28  4  0
  8 11  4  0
  9 29  4  0
 10 12  4  0
 11 24  1  0
 11 26  4  0
 12 25  1  0
 13 28  1  0
 14 20  4  0
 14 23  4  0
 15 17  4  0
 15 21  4  0
 16 19  4  0
 16 23  4  0
 17 22  4  0
 18 26  4  0
 19 24  4  0
 20 24  4  0
 22 27  4  0
 28 29  4  0
M  END
$$$$

 Created by Python create_sdf_string function

 29 33  0  0  0  0  0  0  0  0999 V2000
   10.7215   -3.3326   17.6437 C   0  0  0  0  0  0  0  0  0  0  0  0
    9.9489   -3.4675   24.6487 N   0  0  0  0  0  0  0  0  0  0  0  0
   10.0172   -4.4740   17.4101 C   0  0  0  0  0  0  0  0  0  0  0  0
    6.9051   -7.9575   16.4222 C   0  0  0  0  0  0  0  0  0  0  0  0
    8.9969   -6.3552   17.9668 N   0  0  0  0  0  0  0  0  0  0  0  0
   10.6702   -3.9051   22.4070 C   0  0  0  0  0  0  0  0  0  0  0  0
   11.0625   -3.0028   18.8894 C   0  0  0  0  0  0  0  0  0  0  0  0
    5.6180   -7.9194   16.1754 O   0  0  0  0  0  0  0  0  0  0  0  0
    9.7259   -5.3080   18.4485 C   0  0  0  0  0  0  0  0  0  0  0  0
    9.4578   -5.0200   16.3036 N   0  0  0  0  0  0  0  0  0  0  0  0
    5.0287   -8.9365   16.8223 C   0  0  0  0  0  0  0  0  0  0  0  0
    8.7742   -6.1498   16.6764 C   0  0  0  0  0  0  0  0  0  0  0  0
   10.9418   -3.4032   21.2053 O   0  0  0  0  0  0  0  0  0  0  0  0
    1.4797   -8.6258   16.2950 C   0  0  0  0  0  0  0  0  0  0  0  0
    9.2861   -1.2743   25.3585 C   0  0  0  0  0  0  0  0  0  0  0  0
    1.8892  -10.3985   17.7511 N   0  0  0  0  0  0  0  0  0  0  0  0
    9.6210   -0.6952   24.0976 C   0  0  0  0  0  0  0  0  0  0  0  0
    7.0792   -9.0217   17.1429 C   0  0  0  0  0  0  0  0  0  0  0  0
    3.1713  -10.1816   17.6634 C   0  0  0  0  0  0  0  0  0  0  0  0
    2.7878   -8.3822   16.2137 C   0  0  0  0  0  0  0  0  0  0  0  0
    9.4601   -2.6590   25.6528 C   0  0  0  0  0  0  0  0  0  0  0  0
   10.1182   -1.5672   23.1165 C   0  0  0  0  0  0  0  0  0  0  0  0
    1.0552   -9.6360   17.0650 C   0  0  0  0  0  0  0  0  0  0  0  0
    3.6519   -9.1783   16.9039 C   0  0  0  0  0  0  0  0  0  0  0  0
    7.8675   -7.0096   15.9415 C   0  0  0  0  0  0  0  0  0  0  0  0
    5.9733   -9.6553   17.3832 N   0  0  0  0  0  0  0  0  0  0  0  0
   10.2411   -2.9363   23.4301 C   0  0  0  0  0  0  0  0  0  0  0  0
   10.7288   -3.8197   19.9525 C   0  0  0  0  0  0  0  0  0  0  0  0
   10.1189   -5.0054   19.6987 C   0  0  0  0  0  0  0  0  0  0  0  0
  1  3  4  0
  1  7  4  0
  2 21  4  0
  2 27  4  0
  3  9  4  0
  3 10  4  0
  4  8  4  0
  4 18  4  0
  4 25  1  0
  5  9  4  0
  5 12  4  0
  6 13  1  0
  6 27  1  0
  7 28  4  0
  8 11  4  0
  9 29  4  0
 10 12  4  0
 11 24  1  0
 11 26  4  0
 12 25  1  0
 13 28  1  0
 14 20  4  0
 14 23  4  0
 15 17  4  0
 15 21  4  0
 16 19  4  0
 16 23  4  0
 17 22  4  0
 18 26  4  0
 19 24  4  0
 20 24  4  0
 22 27  4  0
 28 29  4  0
M  END
$$$$

 Created by Python create_sdf_string function

 29 33  0  0  0  0  0  0  0  0999 V2000
   10.7215   -3.3326   17.6437 C   0  0  0  0  0  0  0  0  0  0  0  0
    9.9489   -3.4675   24.6487 N   0  0  0  0  0  0  0  0  0  0  0  0
   10.0172   -4.4740   17.4101 C   0  0  0  0  0  0  0  0  0  0  0  0
    6.9051   -7.9575   16.4222 C   0  0  0  0  0  0  0  0  0  0  0  0
    8.9969   -6.3552   17.9668 N   0  0  0  0  0  0  0  0  0  0  0  0
   10.6702   -3.9051   22.4070 C   0  0  0  0  0  0  0  0  0  0  0  0
   11.0625   -3.0028   18.8894 C   0  0  0  0  0  0  0  0  0  0  0  0
    5.6180   -7.9194   16.1754 O   0  0  0  0  0  0  0  0  0  0  0  0
    9.7259   -5.3080   18.4485 C   0  0  0  0  0  0  0  0  0  0  0  0
    9.4578   -5.0200   16.3036 N   0  0  0  0  0  0  0  0  0  0  0  0
    5.0287   -8.9365   16.8223 C   0  0  0  0  0  0  0  0  0  0  0  0
    8.7742   -6.1498   16.6764 C   0  0  0  0  0  0  0  0  0  0  0  0
   10.9418   -3.4032   21.2053 O   0  0  0  0  0  0  0  0  0  0  0  0
    1.4797   -8.6258   16.2950 C   0  0  0  0  0  0  0  0  0  0  0  0
    9.2861   -1.2743   25.3585 C   0  0  0  0  0  0  0  0  0  0  0  0
    1.8892  -10.3985   17.7511 N   0  0  0  0  0  0  0  0  0  0  0  0
    9.6210   -0.6952   24.0976 C   0  0  0  0  0  0  0  0  0  0  0  0
    7.0792   -9.0217   17.1429 C   0  0  0  0  0  0  0  0  0  0  0  0
    3.1713  -10.1816   17.6634 C   0  0  0  0  0  0  0  0  0  0  0  0
    2.7878   -8.3822   16.2137 C   0  0  0  0  0  0  0  0  0  0  0  0
    9.4601   -2.6590   25.6528 C   0  0  0  0  0  0  0  0  0  0  0  0
   10.1182   -1.5672   23.1165 C   0  0  0  0  0  0  0  0  0  0  0  0
    1.0552   -9.6360   17.0650 C   0  0  0  0  0  0  0  0  0  0  0  0
    3.6519   -9.1783   16.9039 C   0  0  0  0  0  0  0  0  0  0  0  0
    7.8675   -7.0096   15.9415 C   0  0  0  0  0  0  0  0  0  0  0  0
    5.9733   -9.6553   17.3832 N   0  0  0  0  0  0  0  0  0  0  0  0
   10.2411   -2.9363   23.4301 C   0  0  0  0  0  0  0  0  0  0  0  0
   10.7288   -3.8197   19.9525 C   0  0  0  0  0  0  0  0  0  0  0  0
   10.1189   -5.0054   19.6987 C   0  0  0  0  0  0  0  0  0  0  0  0
  1  3  4  0
  1  7  4  0
  2 21  4  0
  2 27  4  0
  3  9  4  0
  3 10  4  0
  4  8  4  0
  4 18  4  0
  4 25  1  0
  5  9  4  0
  5 12  4  0
  6 13  1  0
  6 27  1  0
  7 28  4  0
  8 11  4  0
  9 29  4  0
 10 12  4  0
 11 24  1  0
 11 26  4  0
 12 25  1  0
 13 28  1  0
 14 20  4  0
 14 23  4  0
 15 17  4  0
 15 21  4  0
 16 19  4  0
 16 23  4  0
 17 22  4  0
 18 26  4  0
 19 24  4  0
 20 24  4  0
 22 27  4  0
 28 29  4  0
M  END
$$$$

 Created by Python create_sdf_string function

 29 33  0  0  0  0  0  0  0  0999 V2000
   10.7215   -3.3326   17.6437 C   0  0  0  0  0  0  0  0  0  0  0  0
    9.9489   -3.4675   24.6487 N   0  0  0  0  0  0  0  0  0  0  0  0
   10.0172   -4.4740   17.4101 C   0  0  0  0  0  0  0  0  0  0  0  0
    6.9051   -7.9575   16.4222 C   0  0  0  0  0  0  0  0  0  0  0  0
    8.9969   -6.3552   17.9668 N   0  0  0  0  0  0  0  0  0  0  0  0
   10.6702   -3.9051   22.4070 C   0  0  0  0  0  0  0  0  0  0  0  0
   11.0625   -3.0028   18.8894 C   0  0  0  0  0  0  0  0  0  0  0  0
    5.6180   -7.9194   16.1754 O   0  0  0  0  0  0  0  0  0  0  0  0
    9.7259   -5.3080   18.4485 C   0  0  0  0  0  0  0  0  0  0  0  0
    9.4578   -5.0200   16.3036 N   0  0  0  0  0  0  0  0  0  0  0  0
    5.0287   -8.9365   16.8223 C   0  0  0  0  0  0  0  0  0  0  0  0
    8.7742   -6.1498   16.6764 C   0  0  0  0  0  0  0  0  0  0  0  0
   10.9418   -3.4032   21.2053 O   0  0  0  0  0  0  0  0  0  0  0  0
    1.4797   -8.6258   16.2950 C   0  0  0  0  0  0  0  0  0  0  0  0
    9.2861   -1.2743   25.3585 C   0  0  0  0  0  0  0  0  0  0  0  0
    1.8892  -10.3985   17.7511 N   0  0  0  0  0  0  0  0  0  0  0  0
    9.6210   -0.6952   24.0976 C   0  0  0  0  0  0  0  0  0  0  0  0
    7.0792   -9.0217   17.1429 C   0  0  0  0  0  0  0  0  0  0  0  0
    3.1713  -10.1816   17.6634 C   0  0  0  0  0  0  0  0  0  0  0  0
    2.7878   -8.3822   16.2137 C   0  0  0  0  0  0  0  0  0  0  0  0
    9.4601   -2.6590   25.6528 C   0  0  0  0  0  0  0  0  0  0  0  0
   10.1182   -1.5672   23.1165 C   0  0  0  0  0  0  0  0  0  0  0  0
    1.0552   -9.6360   17.0650 C   0  0  0  0  0  0  0  0  0  0  0  0
    3.6519   -9.1783   16.9039 C   0  0  0  0  0  0  0  0  0  0  0  0
    7.8675   -7.0096   15.9415 C   0  0  0  0  0  0  0  0  0  0  0  0
    5.9733   -9.6553   17.3832 N   0  0  0  0  0  0  0  0  0  0  0  0
   10.2411   -2.9363   23.4301 C   0  0  0  0  0  0  0  0  0  0  0  0
   10.7288   -3.8197   19.9525 C   0  0  0  0  0  0  0  0  0  0  0  0
   10.1189   -5.0054   19.6987 C   0  0  0  0  0  0  0  0  0  0  0  0
  1  3  4  0
  1  7  4  0
  2 21  4  0
  2 27  4  0
  3  9  4  0
  3 10  4  0
  4  8  4  0
  4 18  4  0
  4 25  1  0
  5  9  4  0
  5 12  4  0
  6 13  1  0
  6 27  1  0
  7 28  4  0
  8 11  4  0
  9 29  4  0
 10 12  4  0
 11 24  1  0
 11 26  4  0
 12 25  1  0
 13 28  1  0
 14 20  4  0
 14 23  4  0
 15 17  4  0
 15 21  4  0
 16 19  4  0
 16 23  4  0
 17 22  4  0
 18 26  4  0
 19 24  4  0
 20 24  4  0
 22 27  4  0
 28 29  4  0
M  END
$$$$

 Created by Python create_sdf_string function

 29 33  0  0  0  0  0  0  0  0999 V2000
   10.7215   -3.3326   17.6437 C   0  0  0  0  0  0  0  0  0  0  0  0
    9.9489   -3.4675   24.6487 N   0  0  0  0  0  0  0  0  0  0  0  0
   10.0172   -4.4740   17.4101 C   0  0  0  0  0  0  0  0  0  0  0  0
    6.9051   -7.9575   16.4222 C   0  0  0  0  0  0  0  0  0  0  0  0
    8.9969   -6.3552   17.9668 N   0  0  0  0  0  0  0  0  0  0  0  0
   10.6702   -3.9051   22.4070 C   0  0  0  0  0  0  0  0  0  0  0  0
   11.0625   -3.0028   18.8894 C   0  0  0  0  0  0  0  0  0  0  0  0
    5.6180   -7.9194   16.1754 O   0  0  0  0  0  0  0  0  0  0  0  0
    9.7259   -5.3080   18.4485 C   0  0  0  0  0  0  0  0  0  0  0  0
    9.4578   -5.0200   16.3036 N   0  0  0  0  0  0  0  0  0  0  0  0
    5.0287   -8.9365   16.8223 C   0  0  0  0  0  0  0  0  0  0  0  0
    8.7742   -6.1498   16.6764 C   0  0  0  0  0  0  0  0  0  0  0  0
   10.9418   -3.4032   21.2053 O   0  0  0  0  0  0  0  0  0  0  0  0
    1.4797   -8.6258   16.2950 C   0  0  0  0  0  0  0  0  0  0  0  0
    9.2861   -1.2743   25.3585 C   0  0  0  0  0  0  0  0  0  0  0  0
    1.8892  -10.3985   17.7511 N   0  0  0  0  0  0  0  0  0  0  0  0
    9.6210   -0.6952   24.0976 C   0  0  0  0  0  0  0  0  0  0  0  0
    7.0792   -9.0217   17.1429 C   0  0  0  0  0  0  0  0  0  0  0  0
    3.1713  -10.1816   17.6634 C   0  0  0  0  0  0  0  0  0  0  0  0
    2.7878   -8.3822   16.2137 C   0  0  0  0  0  0  0  0  0  0  0  0
    9.4601   -2.6590   25.6528 C   0  0  0  0  0  0  0  0  0  0  0  0
   10.1182   -1.5672   23.1165 C   0  0  0  0  0  0  0  0  0  0  0  0
    1.0552   -9.6360   17.0650 C   0  0  0  0  0  0  0  0  0  0  0  0
    3.6519   -9.1783   16.9039 C   0  0  0  0  0  0  0  0  0  0  0  0
    7.8675   -7.0096   15.9415 C   0  0  0  0  0  0  0  0  0  0  0  0
    5.9733   -9.6553   17.3832 N   0  0  0  0  0  0  0  0  0  0  0  0
   10.2411   -2.9363   23.4301 C   0  0  0  0  0  0  0  0  0  0  0  0
   10.7288   -3.8197   19.9525 C   0  0  0  0  0  0  0  0  0  0  0  0
   10.1189   -5.0054   19.6987 C   0  0  0  0  0  0  0  0  0  0  0  0
  1  3  4  0
  1  7  4  0
  2 21  4  0
  2 27  4  0
  3  9  4  0
  3 10  4  0
  4  8  4  0
  4 18  4  0
  4 25  1  0
  5  9  4  0
  5 12  4  0
  6 13  1  0
  6 27  1  0
  7 28  4  0
  8 11  4  0
  9 29  4  0
 10 12  4  0
 11 24  1  0
 11 26  4  0
 12 25  1  0
 13 28  1  0
 14 20  4  0
 14 23  4  0
 15 17  4  0
 15 21  4  0
 16 19  4  0
 16 23  4  0
 17 22  4  0
 18 26  4  0
 19 24  4  0
 20 24  4  0
 22 27  4  0
 28 29  4  0
M  END
$$$$

 Created by Python create_sdf_string function

 29 33  0  0  0  0  0  0  0  0999 V2000
   10.7215   -3.3326   17.6437 C   0  0  0  0  0  0  0  0  0  0  0  0
    9.9489   -3.4675   24.6487 N   0  0  0  0  0  0  0  0  0  0  0  0
   10.0172   -4.4740   17.4101 C   0  0  0  0  0  0  0  0  0  0  0  0
    6.9051   -7.9575   16.4222 C   0  0  0  0  0  0  0  0  0  0  0  0
    8.9969   -6.3552   17.9668 N   0  0  0  0  0  0  0  0  0  0  0  0
   10.6702   -3.9051   22.4070 C   0  0  0  0  0  0  0  0  0  0  0  0
   11.0625   -3.0028   18.8894 C   0  0  0  0  0  0  0  0  0  0  0  0
    5.6180   -7.9194   16.1754 O   0  0  0  0  0  0  0  0  0  0  0  0
    9.7259   -5.3080   18.4485 C   0  0  0  0  0  0  0  0  0  0  0  0
    9.4578   -5.0200   16.3036 N   0  0  0  0  0  0  0  0  0  0  0  0
    5.0287   -8.9365   16.8223 C   0  0  0  0  0  0  0  0  0  0  0  0
    8.7742   -6.1498   16.6764 C   0  0  0  0  0  0  0  0  0  0  0  0
   10.9418   -3.4032   21.2053 O   0  0  0  0  0  0  0  0  0  0  0  0
    1.4797   -8.6258   16.2950 C   0  0  0  0  0  0  0  0  0  0  0  0
    9.2861   -1.2743   25.3585 C   0  0  0  0  0  0  0  0  0  0  0  0
    1.8892  -10.3985   17.7511 N   0  0  0  0  0  0  0  0  0  0  0  0
    9.6210   -0.6952   24.0976 C   0  0  0  0  0  0  0  0  0  0  0  0
    7.0792   -9.0217   17.1429 C   0  0  0  0  0  0  0  0  0  0  0  0
    3.1713  -10.1816   17.6634 C   0  0  0  0  0  0  0  0  0  0  0  0
    2.7878   -8.3822   16.2137 C   0  0  0  0  0  0  0  0  0  0  0  0
    9.4601   -2.6590   25.6528 C   0  0  0  0  0  0  0  0  0  0  0  0
   10.1182   -1.5672   23.1165 C   0  0  0  0  0  0  0  0  0  0  0  0
    1.0552   -9.6360   17.0650 C   0  0  0  0  0  0  0  0  0  0  0  0
    3.6519   -9.1783   16.9039 C   0  0  0  0  0  0  0  0  0  0  0  0
    7.8675   -7.0096   15.9415 C   0  0  0  0  0  0  0  0  0  0  0  0
    5.9733   -9.6553   17.3832 N   0  0  0  0  0  0  0  0  0  0  0  0
   10.2411   -2.9363   23.4301 C   0  0  0  0  0  0  0  0  0  0  0  0
   10.7288   -3.8197   19.9525 C   0  0  0  0  0  0  0  0  0  0  0  0
   10.1189   -5.0054   19.6987 C   0  0  0  0  0  0  0  0  0  0  0  0
  1  3  4  0
  1  7  4  0
  2 21  4  0
  2 27  4  0
  3  9  4  0
  3 10  4  0
  4  8  4  0
  4 18  4  0
  4 25  1  0
  5  9  4  0
  5 12  4  0
  6 13  1  0
  6 27  1  0
  7 28  4  0
  8 11  4  0
  9 29  4  0
 10 12  4  0
 11 24  1  0
 11 26  4  0
 12 25  1  0
 13 28  1  0
 14 20  4  0
 14 23  4  0
 15 17  4  0
 15 21  4  0
 16 19  4  0
 16 23  4  0
 17 22  4  0
 18 26  4  0
 19 24  4  0
 20 24  4  0
 22 27  4  0
 28 29  4  0
M  END
$$$$

 Created by Python create_sdf_string function

 29 33  0  0  0  0  0  0  0  0999 V2000
   10.7215   -3.3326   17.6437 C   0  0  0  0  0  0  0  0  0  0  0  0
    9.9489   -3.4675   24.6487 N   0  0  0  0  0  0  0  0  0  0  0  0
   10.0172   -4.4740   17.4101 C   0  0  0  0  0  0  0  0  0  0  0  0
    6.9051   -7.9575   16.4222 C   0  0  0  0  0  0  0  0  0  0  0  0
    8.9969   -6.3552   17.9668 N   0  0  0  0  0  0  0  0  0  0  0  0
   10.6702   -3.9051   22.4070 C   0  0  0  0  0  0  0  0  0  0  0  0
   11.0625   -3.0028   18.8894 C   0  0  0  0  0  0  0  0  0  0  0  0
    5.6180   -7.9194   16.1754 O   0  0  0  0  0  0  0  0  0  0  0  0
    9.7259   -5.3080   18.4485 C   0  0  0  0  0  0  0  0  0  0  0  0
    9.4578   -5.0200   16.3036 N   0  0  0  0  0  0  0  0  0  0  0  0
    5.0287   -8.9365   16.8223 C   0  0  0  0  0  0  0  0  0  0  0  0
    8.7742   -6.1498   16.6764 C   0  0  0  0  0  0  0  0  0  0  0  0
   10.9418   -3.4032   21.2053 O   0  0  0  0  0  0  0  0  0  0  0  0
    1.4797   -8.6258   16.2950 C   0  0  0  0  0  0  0  0  0  0  0  0
    9.2861   -1.2743   25.3585 C   0  0  0  0  0  0  0  0  0  0  0  0
    1.8892  -10.3985   17.7511 N   0  0  0  0  0  0  0  0  0  0  0  0
    9.6210   -0.6952   24.0976 C   0  0  0  0  0  0  0  0  0  0  0  0
    7.0792   -9.0217   17.1429 C   0  0  0  0  0  0  0  0  0  0  0  0
    3.1713  -10.1816   17.6634 C   0  0  0  0  0  0  0  0  0  0  0  0
    2.7878   -8.3822   16.2137 C   0  0  0  0  0  0  0  0  0  0  0  0
    9.4601   -2.6590   25.6528 C   0  0  0  0  0  0  0  0  0  0  0  0
   10.1182   -1.5672   23.1165 C   0  0  0  0  0  0  0  0  0  0  0  0
    1.0552   -9.6360   17.0650 C   0  0  0  0  0  0  0  0  0  0  0  0
    3.6519   -9.1783   16.9039 C   0  0  0  0  0  0  0  0  0  0  0  0
    7.8675   -7.0096   15.9415 C   0  0  0  0  0  0  0  0  0  0  0  0
    5.9733   -9.6553   17.3832 N   0  0  0  0  0  0  0  0  0  0  0  0
   10.2411   -2.9363   23.4301 C   0  0  0  0  0  0  0  0  0  0  0  0
   10.7288   -3.8197   19.9525 C   0  0  0  0  0  0  0  0  0  0  0  0
   10.1189   -5.0054   19.6987 C   0  0  0  0  0  0  0  0  0  0  0  0
  1  3  4  0
  1  7  4  0
  2 21  4  0
  2 27  4  0
  3  9  4  0
  3 10  4  0
  4  8  4  0
  4 18  4  0
  4 25  1  0
  5  9  4  0
  5 12  4  0
  6 13  1  0
  6 27  1  0
  7 28  4  0
  8 11  4  0
  9 29  4  0
 10 12  4  0
 11 24  1  0
 11 26  4  0
 12 25  1  0
 13 28  1  0
 14 20  4  0
 14 23  4  0
 15 17  4  0
 15 21  4  0
 16 19  4  0
 16 23  4  0
 17 22  4  0
 18 26  4  0
 19 24  4  0
 20 24  4  0
 22 27  4  0
 28 29  4  0
M  END
$$$$

 Created by Python create_sdf_string function

 29 33  0  0  0  0  0  0  0  0999 V2000
   10.7215   -3.3326   17.6437 C   0  0  0  0  0  0  0  0  0  0  0  0
    9.9489   -3.4675   24.6487 N   0  0  0  0  0  0  0  0  0  0  0  0
   10.0172   -4.4740   17.4101 C   0  0  0  0  0  0  0  0  0  0  0  0
    6.9051   -7.9575   16.4222 C   0  0  0  0  0  0  0  0  0  0  0  0
    8.9969   -6.3552   17.9668 N   0  0  0  0  0  0  0  0  0  0  0  0
   10.6702   -3.9051   22.4070 C   0  0  0  0  0  0  0  0  0  0  0  0
   11.0625   -3.0028   18.8894 C   0  0  0  0  0  0  0  0  0  0  0  0
    5.6180   -7.9194   16.1754 O   0  0  0  0  0  0  0  0  0  0  0  0
    9.7259   -5.3080   18.4485 C   0  0  0  0  0  0  0  0  0  0  0  0
    9.4578   -5.0200   16.3036 N   0  0  0  0  0  0  0  0  0  0  0  0
    5.0287   -8.9365   16.8223 C   0  0  0  0  0  0  0  0  0  0  0  0
    8.7742   -6.1498   16.6764 C   0  0  0  0  0  0  0  0  0  0  0  0
   10.9418   -3.4032   21.2053 O   0  0  0  0  0  0  0  0  0  0  0  0
    1.4797   -8.6258   16.2950 C   0  0  0  0  0  0  0  0  0  0  0  0
    9.2861   -1.2743   25.3585 C   0  0  0  0  0  0  0  0  0  0  0  0
    1.8892  -10.3985   17.7511 N   0  0  0  0  0  0  0  0  0  0  0  0
    9.6210   -0.6952   24.0976 C   0  0  0  0  0  0  0  0  0  0  0  0
    7.0792   -9.0217   17.1429 C   0  0  0  0  0  0  0  0  0  0  0  0
    3.1713  -10.1816   17.6634 C   0  0  0  0  0  0  0  0  0  0  0  0
    2.7878   -8.3822   16.2137 C   0  0  0  0  0  0  0  0  0  0  0  0
    9.4601   -2.6590   25.6528 C   0  0  0  0  0  0  0  0  0  0  0  0
   10.1182   -1.5672   23.1165 C   0  0  0  0  0  0  0  0  0  0  0  0
    1.0552   -9.6360   17.0650 C   0  0  0  0  0  0  0  0  0  0  0  0
    3.6519   -9.1783   16.9039 C   0  0  0  0  0  0  0  0  0  0  0  0
    7.8675   -7.0096   15.9415 C   0  0  0  0  0  0  0  0  0  0  0  0
    5.9733   -9.6553   17.3832 N   0  0  0  0  0  0  0  0  0  0  0  0
   10.2411   -2.9363   23.4301 C   0  0  0  0  0  0  0  0  0  0  0  0
   10.7288   -3.8197   19.9525 C   0  0  0  0  0  0  0  0  0  0  0  0
   10.1189   -5.0054   19.6987 C   0  0  0  0  0  0  0  0  0  0  0  0
  1  3  4  0
  1  7  4  0
  2 21  4  0
  2 27  4  0
  3  9  4  0
  3 10  4  0
  4  8  4  0
  4 18  4  0
  4 25  1  0
  5  9  4  0
  5 12  4  0
  6 13  1  0
  6 27  1  0
  7 28  4  0
  8 11  4  0
  9 29  4  0
 10 12  4  0
 11 24  1  0
 11 26  4  0
 12 25  1  0
 13 28  1  0
 14 20  4  0
 14 23  4  0
 15 17  4  0
 15 21  4  0
 16 19  4  0
 16 23  4  0
 17 22  4  0
 18 26  4  0
 19 24  4  0
 20 24  4  0
 22 27  4  0
 28 29  4  0
M  END
$$$$

 Created by Python create_sdf_string function

 29 33  0  0  0  0  0  0  0  0999 V2000
   10.7215   -3.3326   17.6437 C   0  0  0  0  0  0  0  0  0  0  0  0
    9.9489   -3.4675   24.6487 N   0  0  0  0  0  0  0  0  0  0  0  0
   10.0172   -4.4740   17.4101 C   0  0  0  0  0  0  0  0  0  0  0  0
    6.9051   -7.9575   16.4222 C   0  0  0  0  0  0  0  0  0  0  0  0
    8.9969   -6.3552   17.9668 N   0  0  0  0  0  0  0  0  0  0  0  0
   10.6702   -3.9051   22.4070 C   0  0  0  0  0  0  0  0  0  0  0  0
   11.0625   -3.0028   18.8894 C   0  0  0  0  0  0  0  0  0  0  0  0
    5.6180   -7.9194   16.1754 O   0  0  0  0  0  0  0  0  0  0  0  0
    9.7259   -5.3080   18.4485 C   0  0  0  0  0  0  0  0  0  0  0  0
    9.4578   -5.0200   16.3036 N   0  0  0  0  0  0  0  0  0  0  0  0
    5.0287   -8.9365   16.8223 C   0  0  0  0  0  0  0  0  0  0  0  0
    8.7742   -6.1498   16.6764 C   0  0  0  0  0  0  0  0  0  0  0  0
   10.9418   -3.4032   21.2053 O   0  0  0  0  0  0  0  0  0  0  0  0
    1.4797   -8.6258   16.2950 C   0  0  0  0  0  0  0  0  0  0  0  0
    9.2861   -1.2743   25.3585 C   0  0  0  0  0  0  0  0  0  0  0  0
    1.8892  -10.3985   17.7511 N   0  0  0  0  0  0  0  0  0  0  0  0
    9.6210   -0.6952   24.0976 C   0  0  0  0  0  0  0  0  0  0  0  0
    7.0792   -9.0217   17.1429 C   0  0  0  0  0  0  0  0  0  0  0  0
    3.1713  -10.1816   17.6634 C   0  0  0  0  0  0  0  0  0  0  0  0
    2.7878   -8.3822   16.2137 C   0  0  0  0  0  0  0  0  0  0  0  0
    9.4601   -2.6590   25.6528 C   0  0  0  0  0  0  0  0  0  0  0  0
   10.1182   -1.5672   23.1165 C   0  0  0  0  0  0  0  0  0  0  0  0
    1.0552   -9.6360   17.0650 C   0  0  0  0  0  0  0  0  0  0  0  0
    3.6519   -9.1783   16.9039 C   0  0  0  0  0  0  0  0  0  0  0  0
    7.8675   -7.0096   15.9415 C   0  0  0  0  0  0  0  0  0  0  0  0
    5.9733   -9.6553   17.3832 N   0  0  0  0  0  0  0  0  0  0  0  0
   10.2411   -2.9363   23.4301 C   0  0  0  0  0  0  0  0  0  0  0  0
   10.7288   -3.8197   19.9525 C   0  0  0  0  0  0  0  0  0  0  0  0
   10.1189   -5.0054   19.6987 C   0  0  0  0  0  0  0  0  0  0  0  0
  1  3  4  0
  1  7  4  0
  2 21  4  0
  2 27  4  0
  3  9  4  0
  3 10  4  0
  4  8  4  0
  4 18  4  0
  4 25  1  0
  5  9  4  0
  5 12  4  0
  6 13  1  0
  6 27  1  0
  7 28  4  0
  8 11  4  0
  9 29  4  0
 10 12  4  0
 11 24  1  0
 11 26  4  0
 12 25  1  0
 13 28  1  0
 14 20  4  0
 14 23  4  0
 15 17  4  0
 15 21  4  0
 16 19  4  0
 16 23  4  0
 17 22  4  0
 18 26  4  0
 19 24  4  0
 20 24  4  0
 22 27  4  0
 28 29  4  0
M  END
$$$$

 Created by Python create_sdf_string function

 29 33  0  0  0  0  0  0  0  0999 V2000
   10.7215   -3.3326   17.6437 C   0  0  0  0  0  0  0  0  0  0  0  0
    9.9489   -3.4675   24.6487 N   0  0  0  0  0  0  0  0  0  0  0  0
   10.0172   -4.4740   17.4101 C   0  0  0  0  0  0  0  0  0  0  0  0
    6.9051   -7.9575   16.4222 C   0  0  0  0  0  0  0  0  0  0  0  0
    8.9969   -6.3552   17.9668 N   0  0  0  0  0  0  0  0  0  0  0  0
   10.6702   -3.9051   22.4070 C   0  0  0  0  0  0  0  0  0  0  0  0
   11.0625   -3.0028   18.8894 C   0  0  0  0  0  0  0  0  0  0  0  0
    5.6180   -7.9194   16.1754 O   0  0  0  0  0  0  0  0  0  0  0  0
    9.7259   -5.3080   18.4485 C   0  0  0  0  0  0  0  0  0  0  0  0
    9.4578   -5.0200   16.3036 N   0  0  0  0  0  0  0  0  0  0  0  0
    5.0287   -8.9365   16.8223 C   0  0  0  0  0  0  0  0  0  0  0  0
    8.7742   -6.1498   16.6764 C   0  0  0  0  0  0  0  0  0  0  0  0
   10.9418   -3.4032   21.2053 O   0  0  0  0  0  0  0  0  0  0  0  0
    1.4797   -8.6258   16.2950 C   0  0  0  0  0  0  0  0  0  0  0  0
    9.2861   -1.2743   25.3585 C   0  0  0  0  0  0  0  0  0  0  0  0
    1.8892  -10.3985   17.7511 N   0  0  0  0  0  0  0  0  0  0  0  0
    9.6210   -0.6952   24.0976 C   0  0  0  0  0  0  0  0  0  0  0  0
    7.0792   -9.0217   17.1429 C   0  0  0  0  0  0  0  0  0  0  0  0
    3.1713  -10.1816   17.6634 C   0  0  0  0  0  0  0  0  0  0  0  0
    2.7878   -8.3822   16.2137 C   0  0  0  0  0  0  0  0  0  0  0  0
    9.4601   -2.6590   25.6528 C   0  0  0  0  0  0  0  0  0  0  0  0
   10.1182   -1.5672   23.1165 C   0  0  0  0  0  0  0  0  0  0  0  0
    1.0552   -9.6360   17.0650 C   0  0  0  0  0  0  0  0  0  0  0  0
    3.6519   -9.1783   16.9039 C   0  0  0  0  0  0  0  0  0  0  0  0
    7.8675   -7.0096   15.9415 C   0  0  0  0  0  0  0  0  0  0  0  0
    5.9733   -9.6553   17.3832 N   0  0  0  0  0  0  0  0  0  0  0  0
   10.2411   -2.9363   23.4301 C   0  0  0  0  0  0  0  0  0  0  0  0
   10.7288   -3.8197   19.9525 C   0  0  0  0  0  0  0  0  0  0  0  0
   10.1189   -5.0054   19.6987 C   0  0  0  0  0  0  0  0  0  0  0  0
  1  3  4  0
  1  7  4  0
  2 21  4  0
  2 27  4  0
  3  9  4  0
  3 10  4  0
  4  8  4  0
  4 18  4  0
  4 25  1  0
  5  9  4  0
  5 12  4  0
  6 13  1  0
  6 27  1  0
  7 28  4  0
  8 11  4  0
  9 29  4  0
 10 12  4  0
 11 24  1  0
 11 26  4  0
 12 25  1  0
 13 28  1  0
 14 20  4  0
 14 23  4  0
 15 17  4  0
 15 21  4  0
 16 19  4  0
 16 23  4  0
 17 22  4  0
 18 26  4  0
 19 24  4  0
 20 24  4  0
 22 27  4  0
 28 29  4  0
M  END
$$$$

 Created by Python create_sdf_string function

 29 33  0  0  0  0  0  0  0  0999 V2000
   10.7215   -3.3326   17.6437 C   0  0  0  0  0  0  0  0  0  0  0  0
    9.9489   -3.4675   24.6487 N   0  0  0  0  0  0  0  0  0  0  0  0
   10.0172   -4.4740   17.4101 C   0  0  0  0  0  0  0  0  0  0  0  0
    6.9051   -7.9575   16.4222 C   0  0  0  0  0  0  0  0  0  0  0  0
    8.9969   -6.3552   17.9668 N   0  0  0  0  0  0  0  0  0  0  0  0
   10.6702   -3.9051   22.4070 C   0  0  0  0  0  0  0  0  0  0  0  0
   11.0625   -3.0028   18.8894 C   0  0  0  0  0  0  0  0  0  0  0  0
    5.6180   -7.9194   16.1754 O   0  0  0  0  0  0  0  0  0  0  0  0
    9.7259   -5.3080   18.4485 C   0  0  0  0  0  0  0  0  0  0  0  0
    9.4578   -5.0200   16.3036 N   0  0  0  0  0  0  0  0  0  0  0  0
    5.0287   -8.9365   16.8223 C   0  0  0  0  0  0  0  0  0  0  0  0
    8.7742   -6.1498   16.6764 C   0  0  0  0  0  0  0  0  0  0  0  0
   10.9418   -3.4032   21.2053 O   0  0  0  0  0  0  0  0  0  0  0  0
    1.4797   -8.6258   16.2950 C   0  0  0  0  0  0  0  0  0  0  0  0
    9.2861   -1.2743   25.3585 C   0  0  0  0  0  0  0  0  0  0  0  0
    1.8892  -10.3985   17.7511 N   0  0  0  0  0  0  0  0  0  0  0  0
    9.6210   -0.6952   24.0976 C   0  0  0  0  0  0  0  0  0  0  0  0
    7.0792   -9.0217   17.1429 C   0  0  0  0  0  0  0  0  0  0  0  0
    3.1713  -10.1816   17.6634 C   0  0  0  0  0  0  0  0  0  0  0  0
    2.7878   -8.3822   16.2137 C   0  0  0  0  0  0  0  0  0  0  0  0
    9.4601   -2.6590   25.6528 C   0  0  0  0  0  0  0  0  0  0  0  0
   10.1182   -1.5672   23.1165 C   0  0  0  0  0  0  0  0  0  0  0  0
    1.0552   -9.6360   17.0650 C   0  0  0  0  0  0  0  0  0  0  0  0
    3.6519   -9.1783   16.9039 C   0  0  0  0  0  0  0  0  0  0  0  0
    7.8675   -7.0096   15.9415 C   0  0  0  0  0  0  0  0  0  0  0  0
    5.9733   -9.6553   17.3832 N   0  0  0  0  0  0  0  0  0  0  0  0
   10.2411   -2.9363   23.4301 C   0  0  0  0  0  0  0  0  0  0  0  0
   10.7288   -3.8197   19.9525 C   0  0  0  0  0  0  0  0  0  0  0  0
   10.1189   -5.0054   19.6987 C   0  0  0  0  0  0  0  0  0  0  0  0
  1  3  4  0
  1  7  4  0
  2 21  4  0
  2 27  4  0
  3  9  4  0
  3 10  4  0
  4  8  4  0
  4 18  4  0
  4 25  1  0
  5  9  4  0
  5 12  4  0
  6 13  1  0
  6 27  1  0
  7 28  4  0
  8 11  4  0
  9 29  4  0
 10 12  4  0
 11 24  1  0
 11 26  4  0
 12 25  1  0
 13 28  1  0
 14 20  4  0
 14 23  4  0
 15 17  4  0
 15 21  4  0
 16 19  4  0
 16 23  4  0
 17 22  4  0
 18 26  4  0
 19 24  4  0
 20 24  4  0
 22 27  4  0
 28 29  4  0
M  END
$$$$

 Created by Python create_sdf_string function

 29 33  0  0  0  0  0  0  0  0999 V2000
   10.7215   -3.3326   17.6437 C   0  0  0  0  0  0  0  0  0  0  0  0
    9.9489   -3.4675   24.6487 N   0  0  0  0  0  0  0  0  0  0  0  0
   10.0172   -4.4740   17.4101 C   0  0  0  0  0  0  0  0  0  0  0  0
    6.9051   -7.9575   16.4222 C   0  0  0  0  0  0  0  0  0  0  0  0
    8.9969   -6.3552   17.9668 N   0  0  0  0  0  0  0  0  0  0  0  0
   10.6702   -3.9051   22.4070 C   0  0  0  0  0  0  0  0  0  0  0  0
   11.0625   -3.0028   18.8894 C   0  0  0  0  0  0  0  0  0  0  0  0
    5.6180   -7.9194   16.1754 O   0  0  0  0  0  0  0  0  0  0  0  0
    9.7259   -5.3080   18.4485 C   0  0  0  0  0  0  0  0  0  0  0  0
    9.4578   -5.0200   16.3036 N   0  0  0  0  0  0  0  0  0  0  0  0
    5.0287   -8.9365   16.8223 C   0  0  0  0  0  0  0  0  0  0  0  0
    8.7742   -6.1498   16.6764 C   0  0  0  0  0  0  0  0  0  0  0  0
   10.9418   -3.4032   21.2053 O   0  0  0  0  0  0  0  0  0  0  0  0
    1.4797   -8.6258   16.2950 C   0  0  0  0  0  0  0  0  0  0  0  0
    9.2861   -1.2743   25.3585 C   0  0  0  0  0  0  0  0  0  0  0  0
    1.8892  -10.3985   17.7511 N   0  0  0  0  0  0  0  0  0  0  0  0
    9.6210   -0.6952   24.0976 C   0  0  0  0  0  0  0  0  0  0  0  0
    7.0792   -9.0217   17.1429 C   0  0  0  0  0  0  0  0  0  0  0  0
    3.1713  -10.1816   17.6634 C   0  0  0  0  0  0  0  0  0  0  0  0
    2.7878   -8.3822   16.2137 C   0  0  0  0  0  0  0  0  0  0  0  0
    9.4601   -2.6590   25.6528 C   0  0  0  0  0  0  0  0  0  0  0  0
   10.1182   -1.5672   23.1165 C   0  0  0  0  0  0  0  0  0  0  0  0
    1.0552   -9.6360   17.0650 C   0  0  0  0  0  0  0  0  0  0  0  0
    3.6519   -9.1783   16.9039 C   0  0  0  0  0  0  0  0  0  0  0  0
    7.8675   -7.0096   15.9415 C   0  0  0  0  0  0  0  0  0  0  0  0
    5.9733   -9.6553   17.3832 N   0  0  0  0  0  0  0  0  0  0  0  0
   10.2411   -2.9363   23.4301 C   0  0  0  0  0  0  0  0  0  0  0  0
   10.7288   -3.8197   19.9525 C   0  0  0  0  0  0  0  0  0  0  0  0
   10.1189   -5.0054   19.6987 C   0  0  0  0  0  0  0  0  0  0  0  0
  1  3  4  0
  1  7  4  0
  2 21  4  0
  2 27  4  0
  3  9  4  0
  3 10  4  0
  4  8  4  0
  4 18  4  0
  4 25  1  0
  5  9  4  0
  5 12  4  0
  6 13  1  0
  6 27  1  0
  7 28  4  0
  8 11  4  0
  9 29  4  0
 10 12  4  0
 11 24  1  0
 11 26  4  0
 12 25  1  0
 13 28  1  0
 14 20  4  0
 14 23  4  0
 15 17  4  0
 15 21  4  0
 16 19  4  0
 16 23  4  0
 17 22  4  0
 18 26  4  0
 19 24  4  0
 20 24  4  0
 22 27  4  0
 28 29  4  0
M  END
$$$$

 Created by Python create_sdf_string function

 29 33  0  0  0  0  0  0  0  0999 V2000
   10.7215   -3.3326   17.6437 C   0  0  0  0  0  0  0  0  0  0  0  0
    9.9489   -3.4675   24.6487 N   0  0  0  0  0  0  0  0  0  0  0  0
   10.0172   -4.4740   17.4101 C   0  0  0  0  0  0  0  0  0  0  0  0
    6.9051   -7.9575   16.4222 C   0  0  0  0  0  0  0  0  0  0  0  0
    8.9969   -6.3552   17.9668 N   0  0  0  0  0  0  0  0  0  0  0  0
   10.6702   -3.9051   22.4070 C   0  0  0  0  0  0  0  0  0  0  0  0
   11.0625   -3.0028   18.8894 C   0  0  0  0  0  0  0  0  0  0  0  0
    5.6180   -7.9194   16.1754 O   0  0  0  0  0  0  0  0  0  0  0  0
    9.7259   -5.3080   18.4485 C   0  0  0  0  0  0  0  0  0  0  0  0
    9.4578   -5.0200   16.3036 N   0  0  0  0  0  0  0  0  0  0  0  0
    5.0287   -8.9365   16.8223 C   0  0  0  0  0  0  0  0  0  0  0  0
    8.7742   -6.1498   16.6764 C   0  0  0  0  0  0  0  0  0  0  0  0
   10.9418   -3.4032   21.2053 O   0  0  0  0  0  0  0  0  0  0  0  0
    1.4797   -8.6258   16.2950 C   0  0  0  0  0  0  0  0  0  0  0  0
    9.2861   -1.2743   25.3585 C   0  0  0  0  0  0  0  0  0  0  0  0
    1.8892  -10.3985   17.7511 N   0  0  0  0  0  0  0  0  0  0  0  0
    9.6210   -0.6952   24.0976 C   0  0  0  0  0  0  0  0  0  0  0  0
    7.0792   -9.0217   17.1429 C   0  0  0  0  0  0  0  0  0  0  0  0
    3.1713  -10.1816   17.6634 C   0  0  0  0  0  0  0  0  0  0  0  0
    2.7878   -8.3822   16.2137 C   0  0  0  0  0  0  0  0  0  0  0  0
    9.4601   -2.6590   25.6528 C   0  0  0  0  0  0  0  0  0  0  0  0
   10.1182   -1.5672   23.1165 C   0  0  0  0  0  0  0  0  0  0  0  0
    1.0552   -9.6360   17.0650 C   0  0  0  0  0  0  0  0  0  0  0  0
    3.6519   -9.1783   16.9039 C   0  0  0  0  0  0  0  0  0  0  0  0
    7.8675   -7.0096   15.9415 C   0  0  0  0  0  0  0  0  0  0  0  0
    5.9733   -9.6553   17.3832 N   0  0  0  0  0  0  0  0  0  0  0  0
   10.2411   -2.9363   23.4301 C   0  0  0  0  0  0  0  0  0  0  0  0
   10.7288   -3.8197   19.9525 C   0  0  0  0  0  0  0  0  0  0  0  0
   10.1189   -5.0054   19.6987 C   0  0  0  0  0  0  0  0  0  0  0  0
  1  3  4  0
  1  7  4  0
  2 21  4  0
  2 27  4  0
  3  9  4  0
  3 10  4  0
  4  8  4  0
  4 18  4  0
  4 25  1  0
  5  9  4  0
  5 12  4  0
  6 13  1  0
  6 27  1  0
  7 28  4  0
  8 11  4  0
  9 29  4  0
 10 12  4  0
 11 24  1  0
 11 26  4  0
 12 25  1  0
 13 28  1  0
 14 20  4  0
 14 23  4  0
 15 17  4  0
 15 21  4  0
 16 19  4  0
 16 23  4  0
 17 22  4  0
 18 26  4  0
 19 24  4  0
 20 24  4  0
 22 27  4  0
 28 29  4  0
M  END
$$$$

 Created by Python create_sdf_string function

 29 33  0  0  0  0  0  0  0  0999 V2000
   10.7215   -3.3326   17.6437 C   0  0  0  0  0  0  0  0  0  0  0  0
    9.9489   -3.4675   24.6487 N   0  0  0  0  0  0  0  0  0  0  0  0
   10.0172   -4.4740   17.4101 C   0  0  0  0  0  0  0  0  0  0  0  0
    6.9051   -7.9575   16.4222 C   0  0  0  0  0  0  0  0  0  0  0  0
    8.9969   -6.3552   17.9668 N   0  0  0  0  0  0  0  0  0  0  0  0
   10.6702   -3.9051   22.4070 C   0  0  0  0  0  0  0  0  0  0  0  0
   11.0625   -3.0028   18.8894 C   0  0  0  0  0  0  0  0  0  0  0  0
    5.6180   -7.9194   16.1754 O   0  0  0  0  0  0  0  0  0  0  0  0
    9.7259   -5.3080   18.4485 C   0  0  0  0  0  0  0  0  0  0  0  0
    9.4578   -5.0200   16.3036 N   0  0  0  0  0  0  0  0  0  0  0  0
    5.0287   -8.9365   16.8223 C   0  0  0  0  0  0  0  0  0  0  0  0
    8.7742   -6.1498   16.6764 C   0  0  0  0  0  0  0  0  0  0  0  0
   10.9418   -3.4032   21.2053 O   0  0  0  0  0  0  0  0  0  0  0  0
    1.4797   -8.6258   16.2950 C   0  0  0  0  0  0  0  0  0  0  0  0
    9.2861   -1.2743   25.3585 C   0  0  0  0  0  0  0  0  0  0  0  0
    1.8892  -10.3985   17.7511 N   0  0  0  0  0  0  0  0  0  0  0  0
    9.6210   -0.6952   24.0976 C   0  0  0  0  0  0  0  0  0  0  0  0
    7.0792   -9.0217   17.1429 C   0  0  0  0  0  0  0  0  0  0  0  0
    3.1713  -10.1816   17.6634 C   0  0  0  0  0  0  0  0  0  0  0  0
    2.7878   -8.3822   16.2137 C   0  0  0  0  0  0  0  0  0  0  0  0
    9.4601   -2.6590   25.6528 C   0  0  0  0  0  0  0  0  0  0  0  0
   10.1182   -1.5672   23.1165 C   0  0  0  0  0  0  0  0  0  0  0  0
    1.0552   -9.6360   17.0650 C   0  0  0  0  0  0  0  0  0  0  0  0
    3.6519   -9.1783   16.9039 C   0  0  0  0  0  0  0  0  0  0  0  0
    7.8675   -7.0096   15.9415 C   0  0  0  0  0  0  0  0  0  0  0  0
    5.9733   -9.6553   17.3832 N   0  0  0  0  0  0  0  0  0  0  0  0
   10.2411   -2.9363   23.4301 C   0  0  0  0  0  0  0  0  0  0  0  0
   10.7288   -3.8197   19.9525 C   0  0  0  0  0  0  0  0  0  0  0  0
   10.1189   -5.0054   19.6987 C   0  0  0  0  0  0  0  0  0  0  0  0
  1  3  4  0
  1  7  4  0
  2 21  4  0
  2 27  4  0
  3  9  4  0
  3 10  4  0
  4  8  4  0
  4 18  4  0
  4 25  1  0
  5  9  4  0
  5 12  4  0
  6 13  1  0
  6 27  1  0
  7 28  4  0
  8 11  4  0
  9 29  4  0
 10 12  4  0
 11 24  1  0
 11 26  4  0
 12 25  1  0
 13 28  1  0
 14 20  4  0
 14 23  4  0
 15 17  4  0
 15 21  4  0
 16 19  4  0
 16 23  4  0
 17 22  4  0
 18 26  4  0
 19 24  4  0
 20 24  4  0
 22 27  4  0
 28 29  4  0
M  END
$$$$

 Created by Python create_sdf_string function

 29 33  0  0  0  0  0  0  0  0999 V2000
   10.7215   -3.3326   17.6437 C   0  0  0  0  0  0  0  0  0  0  0  0
    9.9489   -3.4675   24.6487 N   0  0  0  0  0  0  0  0  0  0  0  0
   10.0172   -4.4740   17.4101 C   0  0  0  0  0  0  0  0  0  0  0  0
    6.9051   -7.9575   16.4222 C   0  0  0  0  0  0  0  0  0  0  0  0
    8.9969   -6.3552   17.9668 N   0  0  0  0  0  0  0  0  0  0  0  0
   10.6702   -3.9051   22.4070 C   0  0  0  0  0  0  0  0  0  0  0  0
   11.0625   -3.0028   18.8894 C   0  0  0  0  0  0  0  0  0  0  0  0
    5.6180   -7.9194   16.1754 O   0  0  0  0  0  0  0  0  0  0  0  0
    9.7259   -5.3080   18.4485 C   0  0  0  0  0  0  0  0  0  0  0  0
    9.4578   -5.0200   16.3036 N   0  0  0  0  0  0  0  0  0  0  0  0
    5.0287   -8.9365   16.8223 C   0  0  0  0  0  0  0  0  0  0  0  0
    8.7742   -6.1498   16.6764 C   0  0  0  0  0  0  0  0  0  0  0  0
   10.9418   -3.4032   21.2053 O   0  0  0  0  0  0  0  0  0  0  0  0
    1.4797   -8.6258   16.2950 C   0  0  0  0  0  0  0  0  0  0  0  0
    9.2861   -1.2743   25.3585 C   0  0  0  0  0  0  0  0  0  0  0  0
    1.8892  -10.3985   17.7511 N   0  0  0  0  0  0  0  0  0  0  0  0
    9.6210   -0.6952   24.0976 C   0  0  0  0  0  0  0  0  0  0  0  0
    7.0792   -9.0217   17.1429 C   0  0  0  0  0  0  0  0  0  0  0  0
    3.1713  -10.1816   17.6634 C   0  0  0  0  0  0  0  0  0  0  0  0
    2.7878   -8.3822   16.2137 C   0  0  0  0  0  0  0  0  0  0  0  0
    9.4601   -2.6590   25.6528 C   0  0  0  0  0  0  0  0  0  0  0  0
   10.1182   -1.5672   23.1165 C   0  0  0  0  0  0  0  0  0  0  0  0
    1.0552   -9.6360   17.0650 C   0  0  0  0  0  0  0  0  0  0  0  0
    3.6519   -9.1783   16.9039 C   0  0  0  0  0  0  0  0  0  0  0  0
    7.8675   -7.0096   15.9415 C   0  0  0  0  0  0  0  0  0  0  0  0
    5.9733   -9.6553   17.3832 N   0  0  0  0  0  0  0  0  0  0  0  0
   10.2411   -2.9363   23.4301 C   0  0  0  0  0  0  0  0  0  0  0  0
   10.7288   -3.8197   19.9525 C   0  0  0  0  0  0  0  0  0  0  0  0
   10.1189   -5.0054   19.6987 C   0  0  0  0  0  0  0  0  0  0  0  0
  1  3  4  0
  1  7  4  0
  2 21  4  0
  2 27  4  0
  3  9  4  0
  3 10  4  0
  4  8  4  0
  4 18  4  0
  4 25  1  0
  5  9  4  0
  5 12  4  0
  6 13  1  0
  6 27  1  0
  7 28  4  0
  8 11  4  0
  9 29  4  0
 10 12  4  0
 11 24  1  0
 11 26  4  0
 12 25  1  0
 13 28  1  0
 14 20  4  0
 14 23  4  0
 15 17  4  0
 15 21  4  0
 16 19  4  0
 16 23  4  0
 17 22  4  0
 18 26  4  0
 19 24  4  0
 20 24  4  0
 22 27  4  0
 28 29  4  0
M  END
$$$$

 Created by Python create_sdf_string function

 29 33  0  0  0  0  0  0  0  0999 V2000
   10.7215   -3.3326   17.6437 C   0  0  0  0  0  0  0  0  0  0  0  0
    9.9489   -3.4675   24.6487 N   0  0  0  0  0  0  0  0  0  0  0  0
   10.0172   -4.4740   17.4101 C   0  0  0  0  0  0  0  0  0  0  0  0
    6.9051   -7.9575   16.4222 C   0  0  0  0  0  0  0  0  0  0  0  0
    8.9969   -6.3552   17.9668 N   0  0  0  0  0  0  0  0  0  0  0  0
   10.6702   -3.9051   22.4070 C   0  0  0  0  0  0  0  0  0  0  0  0
   11.0625   -3.0028   18.8894 C   0  0  0  0  0  0  0  0  0  0  0  0
    5.6180   -7.9194   16.1754 O   0  0  0  0  0  0  0  0  0  0  0  0
    9.7259   -5.3080   18.4485 C   0  0  0  0  0  0  0  0  0  0  0  0
    9.4578   -5.0200   16.3036 N   0  0  0  0  0  0  0  0  0  0  0  0
    5.0287   -8.9365   16.8223 C   0  0  0  0  0  0  0  0  0  0  0  0
    8.7742   -6.1498   16.6764 C   0  0  0  0  0  0  0  0  0  0  0  0
   10.9418   -3.4032   21.2053 O   0  0  0  0  0  0  0  0  0  0  0  0
    1.4797   -8.6258   16.2950 C   0  0  0  0  0  0  0  0  0  0  0  0
    9.2861   -1.2743   25.3585 C   0  0  0  0  0  0  0  0  0  0  0  0
    1.8892  -10.3985   17.7511 N   0  0  0  0  0  0  0  0  0  0  0  0
    9.6210   -0.6952   24.0976 C   0  0  0  0  0  0  0  0  0  0  0  0
    7.0792   -9.0217   17.1429 C   0  0  0  0  0  0  0  0  0  0  0  0
    3.1713  -10.1816   17.6634 C   0  0  0  0  0  0  0  0  0  0  0  0
    2.7878   -8.3822   16.2137 C   0  0  0  0  0  0  0  0  0  0  0  0
    9.4601   -2.6590   25.6528 C   0  0  0  0  0  0  0  0  0  0  0  0
   10.1182   -1.5672   23.1165 C   0  0  0  0  0  0  0  0  0  0  0  0
    1.0552   -9.6360   17.0650 C   0  0  0  0  0  0  0  0  0  0  0  0
    3.6519   -9.1783   16.9039 C   0  0  0  0  0  0  0  0  0  0  0  0
    7.8675   -7.0096   15.9415 C   0  0  0  0  0  0  0  0  0  0  0  0
    5.9733   -9.6553   17.3832 N   0  0  0  0  0  0  0  0  0  0  0  0
   10.2411   -2.9363   23.4301 C   0  0  0  0  0  0  0  0  0  0  0  0
   10.7288   -3.8197   19.9525 C   0  0  0  0  0  0  0  0  0  0  0  0
   10.1189   -5.0054   19.6987 C   0  0  0  0  0  0  0  0  0  0  0  0
  1  3  4  0
  1  7  4  0
  2 21  4  0
  2 27  4  0
  3  9  4  0
  3 10  4  0
  4  8  4  0
  4 18  4  0
  4 25  1  0
  5  9  4  0
  5 12  4  0
  6 13  1  0
  6 27  1  0
  7 28  4  0
  8 11  4  0
  9 29  4  0
 10 12  4  0
 11 24  1  0
 11 26  4  0
 12 25  1  0
 13 28  1  0
 14 20  4  0
 14 23  4  0
 15 17  4  0
 15 21  4  0
 16 19  4  0
 16 23  4  0
 17 22  4  0
 18 26  4  0
 19 24  4  0
 20 24  4  0
 22 27  4  0
 28 29  4  0
M  END
$$$$

 Created by Python create_sdf_string function

 29 33  0  0  0  0  0  0  0  0999 V2000
   10.7215   -3.3326   17.6437 C   0  0  0  0  0  0  0  0  0  0  0  0
    9.9489   -3.4675   24.6487 N   0  0  0  0  0  0  0  0  0  0  0  0
   10.0172   -4.4740   17.4101 C   0  0  0  0  0  0  0  0  0  0  0  0
    6.9051   -7.9575   16.4222 C   0  0  0  0  0  0  0  0  0  0  0  0
    8.9969   -6.3552   17.9668 N   0  0  0  0  0  0  0  0  0  0  0  0
   10.6702   -3.9051   22.4070 C   0  0  0  0  0  0  0  0  0  0  0  0
   11.0625   -3.0028   18.8894 C   0  0  0  0  0  0  0  0  0  0  0  0
    5.6180   -7.9194   16.1754 O   0  0  0  0  0  0  0  0  0  0  0  0
    9.7259   -5.3080   18.4485 C   0  0  0  0  0  0  0  0  0  0  0  0
    9.4578   -5.0200   16.3036 N   0  0  0  0  0  0  0  0  0  0  0  0
    5.0287   -8.9365   16.8223 C   0  0  0  0  0  0  0  0  0  0  0  0
    8.7742   -6.1498   16.6764 C   0  0  0  0  0  0  0  0  0  0  0  0
   10.9418   -3.4032   21.2053 O   0  0  0  0  0  0  0  0  0  0  0  0
    1.4797   -8.6258   16.2950 C   0  0  0  0  0  0  0  0  0  0  0  0
    9.2861   -1.2743   25.3585 C   0  0  0  0  0  0  0  0  0  0  0  0
    1.8892  -10.3985   17.7511 N   0  0  0  0  0  0  0  0  0  0  0  0
    9.6210   -0.6952   24.0976 C   0  0  0  0  0  0  0  0  0  0  0  0
    7.0792   -9.0217   17.1429 C   0  0  0  0  0  0  0  0  0  0  0  0
    3.1713  -10.1816   17.6634 C   0  0  0  0  0  0  0  0  0  0  0  0
    2.7878   -8.3822   16.2137 C   0  0  0  0  0  0  0  0  0  0  0  0
    9.4601   -2.6590   25.6528 C   0  0  0  0  0  0  0  0  0  0  0  0
   10.1182   -1.5672   23.1165 C   0  0  0  0  0  0  0  0  0  0  0  0
    1.0552   -9.6360   17.0650 C   0  0  0  0  0  0  0  0  0  0  0  0
    3.6519   -9.1783   16.9039 C   0  0  0  0  0  0  0  0  0  0  0  0
    7.8675   -7.0096   15.9415 C   0  0  0  0  0  0  0  0  0  0  0  0
    5.9733   -9.6553   17.3832 N   0  0  0  0  0  0  0  0  0  0  0  0
   10.2411   -2.9363   23.4301 C   0  0  0  0  0  0  0  0  0  0  0  0
   10.7288   -3.8197   19.9525 C   0  0  0  0  0  0  0  0  0  0  0  0
   10.1189   -5.0054   19.6987 C   0  0  0  0  0  0  0  0  0  0  0  0
  1  3  4  0
  1  7  4  0
  2 21  4  0
  2 27  4  0
  3  9  4  0
  3 10  4  0
  4  8  4  0
  4 18  4  0
  4 25  1  0
  5  9  4  0
  5 12  4  0
  6 13  1  0
  6 27  1  0
  7 28  4  0
  8 11  4  0
  9 29  4  0
 10 12  4  0
 11 24  1  0
 11 26  4  0
 12 25  1  0
 13 28  1  0
 14 20  4  0
 14 23  4  0
 15 17  4  0
 15 21  4  0
 16 19  4  0
 16 23  4  0
 17 22  4  0
 18 26  4  0
 19 24  4  0
 20 24  4  0
 22 27  4  0
 28 29  4  0
M  END
$$$$

 Created by Python create_sdf_string function

 29 33  0  0  0  0  0  0  0  0999 V2000
   10.7215   -3.3326   17.6437 C   0  0  0  0  0  0  0  0  0  0  0  0
    9.9489   -3.4675   24.6487 N   0  0  0  0  0  0  0  0  0  0  0  0
   10.0172   -4.4740   17.4101 C   0  0  0  0  0  0  0  0  0  0  0  0
    6.9051   -7.9575   16.4222 C   0  0  0  0  0  0  0  0  0  0  0  0
    8.9969   -6.3552   17.9668 N   0  0  0  0  0  0  0  0  0  0  0  0
   10.6702   -3.9051   22.4070 C   0  0  0  0  0  0  0  0  0  0  0  0
   11.0625   -3.0028   18.8894 C   0  0  0  0  0  0  0  0  0  0  0  0
    5.6180   -7.9194   16.1754 O   0  0  0  0  0  0  0  0  0  0  0  0
    9.7259   -5.3080   18.4485 C   0  0  0  0  0  0  0  0  0  0  0  0
    9.4578   -5.0200   16.3036 N   0  0  0  0  0  0  0  0  0  0  0  0
    5.0287   -8.9365   16.8223 C   0  0  0  0  0  0  0  0  0  0  0  0
    8.7742   -6.1498   16.6764 C   0  0  0  0  0  0  0  0  0  0  0  0
   10.9418   -3.4032   21.2053 O   0  0  0  0  0  0  0  0  0  0  0  0
    1.4797   -8.6258   16.2950 C   0  0  0  0  0  0  0  0  0  0  0  0
    9.2861   -1.2743   25.3585 C   0  0  0  0  0  0  0  0  0  0  0  0
    1.8892  -10.3985   17.7511 N   0  0  0  0  0  0  0  0  0  0  0  0
    9.6210   -0.6952   24.0976 C   0  0  0  0  0  0  0  0  0  0  0  0
    7.0792   -9.0217   17.1429 C   0  0  0  0  0  0  0  0  0  0  0  0
    3.1713  -10.1816   17.6634 C   0  0  0  0  0  0  0  0  0  0  0  0
    2.7878   -8.3822   16.2137 C   0  0  0  0  0  0  0  0  0  0  0  0
    9.4601   -2.6590   25.6528 C   0  0  0  0  0  0  0  0  0  0  0  0
   10.1182   -1.5672   23.1165 C   0  0  0  0  0  0  0  0  0  0  0  0
    1.0552   -9.6360   17.0650 C   0  0  0  0  0  0  0  0  0  0  0  0
    3.6519   -9.1783   16.9039 C   0  0  0  0  0  0  0  0  0  0  0  0
    7.8675   -7.0096   15.9415 C   0  0  0  0  0  0  0  0  0  0  0  0
    5.9733   -9.6553   17.3832 N   0  0  0  0  0  0  0  0  0  0  0  0
   10.2411   -2.9363   23.4301 C   0  0  0  0  0  0  0  0  0  0  0  0
   10.7288   -3.8197   19.9525 C   0  0  0  0  0  0  0  0  0  0  0  0
   10.1189   -5.0054   19.6987 C   0  0  0  0  0  0  0  0  0  0  0  0
  1  3  4  0
  1  7  4  0
  2 21  4  0
  2 27  4  0
  3  9  4  0
  3 10  4  0
  4  8  4  0
  4 18  4  0
  4 25  1  0
  5  9  4  0
  5 12  4  0
  6 13  1  0
  6 27  1  0
  7 28  4  0
  8 11  4  0
  9 29  4  0
 10 12  4  0
 11 24  1  0
 11 26  4  0
 12 25  1  0
 13 28  1  0
 14 20  4  0
 14 23  4  0
 15 17  4  0
 15 21  4  0
 16 19  4  0
 16 23  4  0
 17 22  4  0
 18 26  4  0
 19 24  4  0
 20 24  4  0
 22 27  4  0
 28 29  4  0
M  END
$$$$

 Created by Python create_sdf_string function

 29 33  0  0  0  0  0  0  0  0999 V2000
   10.7215   -3.3326   17.6437 C   0  0  0  0  0  0  0  0  0  0  0  0
    9.9489   -3.4675   24.6487 N   0  0  0  0  0  0  0  0  0  0  0  0
   10.0172   -4.4740   17.4101 C   0  0  0  0  0  0  0  0  0  0  0  0
    6.9051   -7.9575   16.4222 C   0  0  0  0  0  0  0  0  0  0  0  0
    8.9969   -6.3552   17.9668 N   0  0  0  0  0  0  0  0  0  0  0  0
   10.6702   -3.9051   22.4070 C   0  0  0  0  0  0  0  0  0  0  0  0
   11.0625   -3.0028   18.8894 C   0  0  0  0  0  0  0  0  0  0  0  0
    5.6180   -7.9194   16.1754 O   0  0  0  0  0  0  0  0  0  0  0  0
    9.7259   -5.3080   18.4485 C   0  0  0  0  0  0  0  0  0  0  0  0
    9.4578   -5.0200   16.3036 N   0  0  0  0  0  0  0  0  0  0  0  0
    5.0287   -8.9365   16.8223 C   0  0  0  0  0  0  0  0  0  0  0  0
    8.7742   -6.1498   16.6764 C   0  0  0  0  0  0  0  0  0  0  0  0
   10.9418   -3.4032   21.2053 O   0  0  0  0  0  0  0  0  0  0  0  0
    1.4797   -8.6258   16.2950 C   0  0  0  0  0  0  0  0  0  0  0  0
    9.2861   -1.2743   25.3585 C   0  0  0  0  0  0  0  0  0  0  0  0
    1.8892  -10.3985   17.7511 N   0  0  0  0  0  0  0  0  0  0  0  0
    9.6210   -0.6952   24.0976 C   0  0  0  0  0  0  0  0  0  0  0  0
    7.0792   -9.0217   17.1429 C   0  0  0  0  0  0  0  0  0  0  0  0
    3.1713  -10.1816   17.6634 C   0  0  0  0  0  0  0  0  0  0  0  0
    2.7878   -8.3822   16.2137 C   0  0  0  0  0  0  0  0  0  0  0  0
    9.4601   -2.6590   25.6528 C   0  0  0  0  0  0  0  0  0  0  0  0
   10.1182   -1.5672   23.1165 C   0  0  0  0  0  0  0  0  0  0  0  0
    1.0552   -9.6360   17.0650 C   0  0  0  0  0  0  0  0  0  0  0  0
    3.6519   -9.1783   16.9039 C   0  0  0  0  0  0  0  0  0  0  0  0
    7.8675   -7.0096   15.9415 C   0  0  0  0  0  0  0  0  0  0  0  0
    5.9733   -9.6553   17.3832 N   0  0  0  0  0  0  0  0  0  0  0  0
   10.2411   -2.9363   23.4301 C   0  0  0  0  0  0  0  0  0  0  0  0
   10.7288   -3.8197   19.9525 C   0  0  0  0  0  0  0  0  0  0  0  0
   10.1189   -5.0054   19.6987 C   0  0  0  0  0  0  0  0  0  0  0  0
  1  3  4  0
  1  7  4  0
  2 21  4  0
  2 27  4  0
  3  9  4  0
  3 10  4  0
  4  8  4  0
  4 18  4  0
  4 25  1  0
  5  9  4  0
  5 12  4  0
  6 13  1  0
  6 27  1  0
  7 28  4  0
  8 11  4  0
  9 29  4  0
 10 12  4  0
 11 24  1  0
 11 26  4  0
 12 25  1  0
 13 28  1  0
 14 20  4  0
 14 23  4  0
 15 17  4  0
 15 21  4  0
 16 19  4  0
 16 23  4  0
 17 22  4  0
 18 26  4  0
 19 24  4  0
 20 24  4  0
 22 27  4  0
 28 29  4  0
M  END
$$$$

 Created by Python create_sdf_string function

 29 33  0  0  0  0  0  0  0  0999 V2000
   10.7215   -3.3326   17.6437 C   0  0  0  0  0  0  0  0  0  0  0  0
    9.9489   -3.4675   24.6487 N   0  0  0  0  0  0  0  0  0  0  0  0
   10.0172   -4.4740   17.4101 C   0  0  0  0  0  0  0  0  0  0  0  0
    6.9051   -7.9575   16.4222 C   0  0  0  0  0  0  0  0  0  0  0  0
    8.9969   -6.3552   17.9668 N   0  0  0  0  0  0  0  0  0  0  0  0
   10.6702   -3.9051   22.4070 C   0  0  0  0  0  0  0  0  0  0  0  0
   11.0625   -3.0028   18.8894 C   0  0  0  0  0  0  0  0  0  0  0  0
    5.6180   -7.9194   16.1754 O   0  0  0  0  0  0  0  0  0  0  0  0
    9.7259   -5.3080   18.4485 C   0  0  0  0  0  0  0  0  0  0  0  0
    9.4578   -5.0200   16.3036 N   0  0  0  0  0  0  0  0  0  0  0  0
    5.0287   -8.9365   16.8223 C   0  0  0  0  0  0  0  0  0  0  0  0
    8.7742   -6.1498   16.6764 C   0  0  0  0  0  0  0  0  0  0  0  0
   10.9418   -3.4032   21.2053 O   0  0  0  0  0  0  0  0  0  0  0  0
    1.4797   -8.6258   16.2950 C   0  0  0  0  0  0  0  0  0  0  0  0
    9.2861   -1.2743   25.3585 C   0  0  0  0  0  0  0  0  0  0  0  0
    1.8892  -10.3985   17.7511 N   0  0  0  0  0  0  0  0  0  0  0  0
    9.6210   -0.6952   24.0976 C   0  0  0  0  0  0  0  0  0  0  0  0
    7.0792   -9.0217   17.1429 C   0  0  0  0  0  0  0  0  0  0  0  0
    3.1713  -10.1816   17.6634 C   0  0  0  0  0  0  0  0  0  0  0  0
    2.7878   -8.3822   16.2137 C   0  0  0  0  0  0  0  0  0  0  0  0
    9.4601   -2.6590   25.6528 C   0  0  0  0  0  0  0  0  0  0  0  0
   10.1182   -1.5672   23.1165 C   0  0  0  0  0  0  0  0  0  0  0  0
    1.0552   -9.6360   17.0650 C   0  0  0  0  0  0  0  0  0  0  0  0
    3.6519   -9.1783   16.9039 C   0  0  0  0  0  0  0  0  0  0  0  0
    7.8675   -7.0096   15.9415 C   0  0  0  0  0  0  0  0  0  0  0  0
    5.9733   -9.6553   17.3832 N   0  0  0  0  0  0  0  0  0  0  0  0
   10.2411   -2.9363   23.4301 C   0  0  0  0  0  0  0  0  0  0  0  0
   10.7288   -3.8197   19.9525 C   0  0  0  0  0  0  0  0  0  0  0  0
   10.1189   -5.0054   19.6987 C   0  0  0  0  0  0  0  0  0  0  0  0
  1  3  4  0
  1  7  4  0
  2 21  4  0
  2 27  4  0
  3  9  4  0
  3 10  4  0
  4  8  4  0
  4 18  4  0
  4 25  1  0
  5  9  4  0
  5 12  4  0
  6 13  1  0
  6 27  1  0
  7 28  4  0
  8 11  4  0
  9 29  4  0
 10 12  4  0
 11 24  1  0
 11 26  4  0
 12 25  1  0
 13 28  1  0
 14 20  4  0
 14 23  4  0
 15 17  4  0
 15 21  4  0
 16 19  4  0
 16 23  4  0
 17 22  4  0
 18 26  4  0
 19 24  4  0
 20 24  4  0
 22 27  4  0
 28 29  4  0
M  END
$$$$

 Created by Python create_sdf_string function

 29 33  0  0  0  0  0  0  0  0999 V2000
   10.7215   -3.3326   17.6437 C   0  0  0  0  0  0  0  0  0  0  0  0
    9.9489   -3.4675   24.6487 N   0  0  0  0  0  0  0  0  0  0  0  0
   10.0172   -4.4740   17.4101 C   0  0  0  0  0  0  0  0  0  0  0  0
    6.9051   -7.9575   16.4222 C   0  0  0  0  0  0  0  0  0  0  0  0
    8.9969   -6.3552   17.9668 N   0  0  0  0  0  0  0  0  0  0  0  0
   10.6702   -3.9051   22.4070 C   0  0  0  0  0  0  0  0  0  0  0  0
   11.0625   -3.0028   18.8894 C   0  0  0  0  0  0  0  0  0  0  0  0
    5.6180   -7.9194   16.1754 O   0  0  0  0  0  0  0  0  0  0  0  0
    9.7259   -5.3080   18.4485 C   0  0  0  0  0  0  0  0  0  0  0  0
    9.4578   -5.0200   16.3036 N   0  0  0  0  0  0  0  0  0  0  0  0
    5.0287   -8.9365   16.8223 C   0  0  0  0  0  0  0  0  0  0  0  0
    8.7742   -6.1498   16.6764 C   0  0  0  0  0  0  0  0  0  0  0  0
   10.9418   -3.4032   21.2053 O   0  0  0  0  0  0  0  0  0  0  0  0
    1.4797   -8.6258   16.2950 C   0  0  0  0  0  0  0  0  0  0  0  0
    9.2861   -1.2743   25.3585 C   0  0  0  0  0  0  0  0  0  0  0  0
    1.8892  -10.3985   17.7511 N   0  0  0  0  0  0  0  0  0  0  0  0
    9.6210   -0.6952   24.0976 C   0  0  0  0  0  0  0  0  0  0  0  0
    7.0792   -9.0217   17.1429 C   0  0  0  0  0  0  0  0  0  0  0  0
    3.1713  -10.1816   17.6634 C   0  0  0  0  0  0  0  0  0  0  0  0
    2.7878   -8.3822   16.2137 C   0  0  0  0  0  0  0  0  0  0  0  0
    9.4601   -2.6590   25.6528 C   0  0  0  0  0  0  0  0  0  0  0  0
   10.1182   -1.5672   23.1165 C   0  0  0  0  0  0  0  0  0  0  0  0
    1.0552   -9.6360   17.0650 C   0  0  0  0  0  0  0  0  0  0  0  0
    3.6519   -9.1783   16.9039 C   0  0  0  0  0  0  0  0  0  0  0  0
    7.8675   -7.0096   15.9415 C   0  0  0  0  0  0  0  0  0  0  0  0
    5.9733   -9.6553   17.3832 N   0  0  0  0  0  0  0  0  0  0  0  0
   10.2411   -2.9363   23.4301 C   0  0  0  0  0  0  0  0  0  0  0  0
   10.7288   -3.8197   19.9525 C   0  0  0  0  0  0  0  0  0  0  0  0
   10.1189   -5.0054   19.6987 C   0  0  0  0  0  0  0  0  0  0  0  0
  1  3  4  0
  1  7  4  0
  2 21  4  0
  2 27  4  0
  3  9  4  0
  3 10  4  0
  4  8  4  0
  4 18  4  0
  4 25  1  0
  5  9  4  0
  5 12  4  0
  6 13  1  0
  6 27  1  0
  7 28  4  0
  8 11  4  0
  9 29  4  0
 10 12  4  0
 11 24  1  0
 11 26  4  0
 12 25  1  0
 13 28  1  0
 14 20  4  0
 14 23  4  0
 15 17  4  0
 15 21  4  0
 16 19  4  0
 16 23  4  0
 17 22  4  0
 18 26  4  0
 19 24  4  0
 20 24  4  0
 22 27  4  0
 28 29  4  0
M  END
$$$$

 Created by Python create_sdf_string function

 29 33  0  0  0  0  0  0  0  0999 V2000
   10.7215   -3.3326   17.6437 C   0  0  0  0  0  0  0  0  0  0  0  0
    9.9489   -3.4675   24.6487 N   0  0  0  0  0  0  0  0  0  0  0  0
   10.0172   -4.4740   17.4101 C   0  0  0  0  0  0  0  0  0  0  0  0
    6.9051   -7.9575   16.4222 C   0  0  0  0  0  0  0  0  0  0  0  0
    8.9969   -6.3552   17.9668 N   0  0  0  0  0  0  0  0  0  0  0  0
   10.6702   -3.9051   22.4070 C   0  0  0  0  0  0  0  0  0  0  0  0
   11.0625   -3.0028   18.8894 C   0  0  0  0  0  0  0  0  0  0  0  0
    5.6180   -7.9194   16.1754 O   0  0  0  0  0  0  0  0  0  0  0  0
    9.7259   -5.3080   18.4485 C   0  0  0  0  0  0  0  0  0  0  0  0
    9.4578   -5.0200   16.3036 N   0  0  0  0  0  0  0  0  0  0  0  0
    5.0287   -8.9365   16.8223 C   0  0  0  0  0  0  0  0  0  0  0  0
    8.7742   -6.1498   16.6764 C   0  0  0  0  0  0  0  0  0  0  0  0
   10.9418   -3.4032   21.2053 O   0  0  0  0  0  0  0  0  0  0  0  0
    1.4797   -8.6258   16.2950 C   0  0  0  0  0  0  0  0  0  0  0  0
    9.2861   -1.2743   25.3585 C   0  0  0  0  0  0  0  0  0  0  0  0
    1.8892  -10.3985   17.7511 N   0  0  0  0  0  0  0  0  0  0  0  0
    9.6210   -0.6952   24.0976 C   0  0  0  0  0  0  0  0  0  0  0  0
    7.0792   -9.0217   17.1429 C   0  0  0  0  0  0  0  0  0  0  0  0
    3.1713  -10.1816   17.6634 C   0  0  0  0  0  0  0  0  0  0  0  0
    2.7878   -8.3822   16.2137 C   0  0  0  0  0  0  0  0  0  0  0  0
    9.4601   -2.6590   25.6528 C   0  0  0  0  0  0  0  0  0  0  0  0
   10.1182   -1.5672   23.1165 C   0  0  0  0  0  0  0  0  0  0  0  0
    1.0552   -9.6360   17.0650 C   0  0  0  0  0  0  0  0  0  0  0  0
    3.6519   -9.1783   16.9039 C   0  0  0  0  0  0  0  0  0  0  0  0
    7.8675   -7.0096   15.9415 C   0  0  0  0  0  0  0  0  0  0  0  0
    5.9733   -9.6553   17.3832 N   0  0  0  0  0  0  0  0  0  0  0  0
   10.2411   -2.9363   23.4301 C   0  0  0  0  0  0  0  0  0  0  0  0
   10.7288   -3.8197   19.9525 C   0  0  0  0  0  0  0  0  0  0  0  0
   10.1189   -5.0054   19.6987 C   0  0  0  0  0  0  0  0  0  0  0  0
  1  3  4  0
  1  7  4  0
  2 21  4  0
  2 27  4  0
  3  9  4  0
  3 10  4  0
  4  8  4  0
  4 18  4  0
  4 25  1  0
  5  9  4  0
  5 12  4  0
  6 13  1  0
  6 27  1  0
  7 28  4  0
  8 11  4  0
  9 29  4  0
 10 12  4  0
 11 24  1  0
 11 26  4  0
 12 25  1  0
 13 28  1  0
 14 20  4  0
 14 23  4  0
 15 17  4  0
 15 21  4  0
 16 19  4  0
 16 23  4  0
 17 22  4  0
 18 26  4  0
 19 24  4  0
 20 24  4  0
 22 27  4  0
 28 29  4  0
M  END
$$$$

 Created by Python create_sdf_string function

 29 33  0  0  0  0  0  0  0  0999 V2000
   10.7215   -3.3326   17.6437 C   0  0  0  0  0  0  0  0  0  0  0  0
    9.9489   -3.4675   24.6487 N   0  0  0  0  0  0  0  0  0  0  0  0
   10.0172   -4.4740   17.4101 C   0  0  0  0  0  0  0  0  0  0  0  0
    6.9051   -7.9575   16.4222 C   0  0  0  0  0  0  0  0  0  0  0  0
    8.9969   -6.3552   17.9668 N   0  0  0  0  0  0  0  0  0  0  0  0
   10.6702   -3.9051   22.4070 C   0  0  0  0  0  0  0  0  0  0  0  0
   11.0625   -3.0028   18.8894 C   0  0  0  0  0  0  0  0  0  0  0  0
    5.6180   -7.9194   16.1754 O   0  0  0  0  0  0  0  0  0  0  0  0
    9.7259   -5.3080   18.4485 C   0  0  0  0  0  0  0  0  0  0  0  0
    9.4578   -5.0200   16.3036 N   0  0  0  0  0  0  0  0  0  0  0  0
    5.0287   -8.9365   16.8223 C   0  0  0  0  0  0  0  0  0  0  0  0
    8.7742   -6.1498   16.6764 C   0  0  0  0  0  0  0  0  0  0  0  0
   10.9418   -3.4032   21.2053 O   0  0  0  0  0  0  0  0  0  0  0  0
    1.4797   -8.6258   16.2950 C   0  0  0  0  0  0  0  0  0  0  0  0
    9.2861   -1.2743   25.3585 C   0  0  0  0  0  0  0  0  0  0  0  0
    1.8892  -10.3985   17.7511 N   0  0  0  0  0  0  0  0  0  0  0  0
    9.6210   -0.6952   24.0976 C   0  0  0  0  0  0  0  0  0  0  0  0
    7.0792   -9.0217   17.1429 C   0  0  0  0  0  0  0  0  0  0  0  0
    3.1713  -10.1816   17.6634 C   0  0  0  0  0  0  0  0  0  0  0  0
    2.7878   -8.3822   16.2137 C   0  0  0  0  0  0  0  0  0  0  0  0
    9.4601   -2.6590   25.6528 C   0  0  0  0  0  0  0  0  0  0  0  0
   10.1182   -1.5672   23.1165 C   0  0  0  0  0  0  0  0  0  0  0  0
    1.0552   -9.6360   17.0650 C   0  0  0  0  0  0  0  0  0  0  0  0
    3.6519   -9.1783   16.9039 C   0  0  0  0  0  0  0  0  0  0  0  0
    7.8675   -7.0096   15.9415 C   0  0  0  0  0  0  0  0  0  0  0  0
    5.9733   -9.6553   17.3832 N   0  0  0  0  0  0  0  0  0  0  0  0
   10.2411   -2.9363   23.4301 C   0  0  0  0  0  0  0  0  0  0  0  0
   10.7288   -3.8197   19.9525 C   0  0  0  0  0  0  0  0  0  0  0  0
   10.1189   -5.0054   19.6987 C   0  0  0  0  0  0  0  0  0  0  0  0
  1  3  4  0
  1  7  4  0
  2 21  4  0
  2 27  4  0
  3  9  4  0
  3 10  4  0
  4  8  4  0
  4 18  4  0
  4 25  1  0
  5  9  4  0
  5 12  4  0
  6 13  1  0
  6 27  1  0
  7 28  4  0
  8 11  4  0
  9 29  4  0
 10 12  4  0
 11 24  1  0
 11 26  4  0
 12 25  1  0
 13 28  1  0
 14 20  4  0
 14 23  4  0
 15 17  4  0
 15 21  4  0
 16 19  4  0
 16 23  4  0
 17 22  4  0
 18 26  4  0
 19 24  4  0
 20 24  4  0
 22 27  4  0
 28 29  4  0
M  END
$$$$

 Created by Python create_sdf_string function

 29 33  0  0  0  0  0  0  0  0999 V2000
   10.7215   -3.3326   17.6437 C   0  0  0  0  0  0  0  0  0  0  0  0
    9.9489   -3.4675   24.6487 N   0  0  0  0  0  0  0  0  0  0  0  0
   10.0172   -4.4740   17.4101 C   0  0  0  0  0  0  0  0  0  0  0  0
    6.9051   -7.9575   16.4222 C   0  0  0  0  0  0  0  0  0  0  0  0
    8.9969   -6.3552   17.9668 N   0  0  0  0  0  0  0  0  0  0  0  0
   10.6702   -3.9051   22.4070 C   0  0  0  0  0  0  0  0  0  0  0  0
   11.0625   -3.0028   18.8894 C   0  0  0  0  0  0  0  0  0  0  0  0
    5.6180   -7.9194   16.1754 O   0  0  0  0  0  0  0  0  0  0  0  0
    9.7259   -5.3080   18.4485 C   0  0  0  0  0  0  0  0  0  0  0  0
    9.4578   -5.0200   16.3036 N   0  0  0  0  0  0  0  0  0  0  0  0
    5.0287   -8.9365   16.8223 C   0  0  0  0  0  0  0  0  0  0  0  0
    8.7742   -6.1498   16.6764 C   0  0  0  0  0  0  0  0  0  0  0  0
   10.9418   -3.4032   21.2053 O   0  0  0  0  0  0  0  0  0  0  0  0
    1.4797   -8.6258   16.2950 C   0  0  0  0  0  0  0  0  0  0  0  0
    9.2861   -1.2743   25.3585 C   0  0  0  0  0  0  0  0  0  0  0  0
    1.8892  -10.3985   17.7511 N   0  0  0  0  0  0  0  0  0  0  0  0
    9.6210   -0.6952   24.0976 C   0  0  0  0  0  0  0  0  0  0  0  0
    7.0792   -9.0217   17.1429 C   0  0  0  0  0  0  0  0  0  0  0  0
    3.1713  -10.1816   17.6634 C   0  0  0  0  0  0  0  0  0  0  0  0
    2.7878   -8.3822   16.2137 C   0  0  0  0  0  0  0  0  0  0  0  0
    9.4601   -2.6590   25.6528 C   0  0  0  0  0  0  0  0  0  0  0  0
   10.1182   -1.5672   23.1165 C   0  0  0  0  0  0  0  0  0  0  0  0
    1.0552   -9.6360   17.0650 C   0  0  0  0  0  0  0  0  0  0  0  0
    3.6519   -9.1783   16.9039 C   0  0  0  0  0  0  0  0  0  0  0  0
    7.8675   -7.0096   15.9415 C   0  0  0  0  0  0  0  0  0  0  0  0
    5.9733   -9.6553   17.3832 N   0  0  0  0  0  0  0  0  0  0  0  0
   10.2411   -2.9363   23.4301 C   0  0  0  0  0  0  0  0  0  0  0  0
   10.7288   -3.8197   19.9525 C   0  0  0  0  0  0  0  0  0  0  0  0
   10.1189   -5.0054   19.6987 C   0  0  0  0  0  0  0  0  0  0  0  0
  1  3  4  0
  1  7  4  0
  2 21  4  0
  2 27  4  0
  3  9  4  0
  3 10  4  0
  4  8  4  0
  4 18  4  0
  4 25  1  0
  5  9  4  0
  5 12  4  0
  6 13  1  0
  6 27  1  0
  7 28  4  0
  8 11  4  0
  9 29  4  0
 10 12  4  0
 11 24  1  0
 11 26  4  0
 12 25  1  0
 13 28  1  0
 14 20  4  0
 14 23  4  0
 15 17  4  0
 15 21  4  0
 16 19  4  0
 16 23  4  0
 17 22  4  0
 18 26  4  0
 19 24  4  0
 20 24  4  0
 22 27  4  0
 28 29  4  0
M  END
$$$$

 Created by Python create_sdf_string function

 29 33  0  0  0  0  0  0  0  0999 V2000
   10.7215   -3.3326   17.6437 C   0  0  0  0  0  0  0  0  0  0  0  0
    9.9489   -3.4675   24.6487 N   0  0  0  0  0  0  0  0  0  0  0  0
   10.0172   -4.4740   17.4101 C   0  0  0  0  0  0  0  0  0  0  0  0
    6.9051   -7.9575   16.4222 C   0  0  0  0  0  0  0  0  0  0  0  0
    8.9969   -6.3552   17.9668 N   0  0  0  0  0  0  0  0  0  0  0  0
   10.6702   -3.9051   22.4070 C   0  0  0  0  0  0  0  0  0  0  0  0
   11.0625   -3.0028   18.8894 C   0  0  0  0  0  0  0  0  0  0  0  0
    5.6180   -7.9194   16.1754 O   0  0  0  0  0  0  0  0  0  0  0  0
    9.7259   -5.3080   18.4485 C   0  0  0  0  0  0  0  0  0  0  0  0
    9.4578   -5.0200   16.3036 N   0  0  0  0  0  0  0  0  0  0  0  0
    5.0287   -8.9365   16.8223 C   0  0  0  0  0  0  0  0  0  0  0  0
    8.7742   -6.1498   16.6764 C   0  0  0  0  0  0  0  0  0  0  0  0
   10.9418   -3.4032   21.2053 O   0  0  0  0  0  0  0  0  0  0  0  0
    1.4797   -8.6258   16.2950 C   0  0  0  0  0  0  0  0  0  0  0  0
    9.2861   -1.2743   25.3585 C   0  0  0  0  0  0  0  0  0  0  0  0
    1.8892  -10.3985   17.7511 N   0  0  0  0  0  0  0  0  0  0  0  0
    9.6210   -0.6952   24.0976 C   0  0  0  0  0  0  0  0  0  0  0  0
    7.0792   -9.0217   17.1429 C   0  0  0  0  0  0  0  0  0  0  0  0
    3.1713  -10.1816   17.6634 C   0  0  0  0  0  0  0  0  0  0  0  0
    2.7878   -8.3822   16.2137 C   0  0  0  0  0  0  0  0  0  0  0  0
    9.4601   -2.6590   25.6528 C   0  0  0  0  0  0  0  0  0  0  0  0
   10.1182   -1.5672   23.1165 C   0  0  0  0  0  0  0  0  0  0  0  0
    1.0552   -9.6360   17.0650 C   0  0  0  0  0  0  0  0  0  0  0  0
    3.6519   -9.1783   16.9039 C   0  0  0  0  0  0  0  0  0  0  0  0
    7.8675   -7.0096   15.9415 C   0  0  0  0  0  0  0  0  0  0  0  0
    5.9733   -9.6553   17.3832 N   0  0  0  0  0  0  0  0  0  0  0  0
   10.2411   -2.9363   23.4301 C   0  0  0  0  0  0  0  0  0  0  0  0
   10.7288   -3.8197   19.9525 C   0  0  0  0  0  0  0  0  0  0  0  0
   10.1189   -5.0054   19.6987 C   0  0  0  0  0  0  0  0  0  0  0  0
  1  3  4  0
  1  7  4  0
  2 21  4  0
  2 27  4  0
  3  9  4  0
  3 10  4  0
  4  8  4  0
  4 18  4  0
  4 25  1  0
  5  9  4  0
  5 12  4  0
  6 13  1  0
  6 27  1  0
  7 28  4  0
  8 11  4  0
  9 29  4  0
 10 12  4  0
 11 24  1  0
 11 26  4  0
 12 25  1  0
 13 28  1  0
 14 20  4  0
 14 23  4  0
 15 17  4  0
 15 21  4  0
 16 19  4  0
 16 23  4  0
 17 22  4  0
 18 26  4  0
 19 24  4  0
 20 24  4  0
 22 27  4  0
 28 29  4  0
M  END
$$$$

 Created by Python create_sdf_string function

 29 33  0  0  0  0  0  0  0  0999 V2000
   10.7215   -3.3326   17.6437 C   0  0  0  0  0  0  0  0  0  0  0  0
    9.9489   -3.4675   24.6487 N   0  0  0  0  0  0  0  0  0  0  0  0
   10.0172   -4.4740   17.4101 C   0  0  0  0  0  0  0  0  0  0  0  0
    6.9051   -7.9575   16.4222 C   0  0  0  0  0  0  0  0  0  0  0  0
    8.9969   -6.3552   17.9668 N   0  0  0  0  0  0  0  0  0  0  0  0
   10.6702   -3.9051   22.4070 C   0  0  0  0  0  0  0  0  0  0  0  0
   11.0625   -3.0028   18.8894 C   0  0  0  0  0  0  0  0  0  0  0  0
    5.6180   -7.9194   16.1754 O   0  0  0  0  0  0  0  0  0  0  0  0
    9.7259   -5.3080   18.4485 C   0  0  0  0  0  0  0  0  0  0  0  0
    9.4578   -5.0200   16.3036 N   0  0  0  0  0  0  0  0  0  0  0  0
    5.0287   -8.9365   16.8223 C   0  0  0  0  0  0  0  0  0  0  0  0
    8.7742   -6.1498   16.6764 C   0  0  0  0  0  0  0  0  0  0  0  0
   10.9418   -3.4032   21.2053 O   0  0  0  0  0  0  0  0  0  0  0  0
    1.4797   -8.6258   16.2950 C   0  0  0  0  0  0  0  0  0  0  0  0
    9.2861   -1.2743   25.3585 C   0  0  0  0  0  0  0  0  0  0  0  0
    1.8892  -10.3985   17.7511 N   0  0  0  0  0  0  0  0  0  0  0  0
    9.6210   -0.6952   24.0976 C   0  0  0  0  0  0  0  0  0  0  0  0
    7.0792   -9.0217   17.1429 C   0  0  0  0  0  0  0  0  0  0  0  0
    3.1713  -10.1816   17.6634 C   0  0  0  0  0  0  0  0  0  0  0  0
    2.7878   -8.3822   16.2137 C   0  0  0  0  0  0  0  0  0  0  0  0
    9.4601   -2.6590   25.6528 C   0  0  0  0  0  0  0  0  0  0  0  0
   10.1182   -1.5672   23.1165 C   0  0  0  0  0  0  0  0  0  0  0  0
    1.0552   -9.6360   17.0650 C   0  0  0  0  0  0  0  0  0  0  0  0
    3.6519   -9.1783   16.9039 C   0  0  0  0  0  0  0  0  0  0  0  0
    7.8675   -7.0096   15.9415 C   0  0  0  0  0  0  0  0  0  0  0  0
    5.9733   -9.6553   17.3832 N   0  0  0  0  0  0  0  0  0  0  0  0
   10.2411   -2.9363   23.4301 C   0  0  0  0  0  0  0  0  0  0  0  0
   10.7288   -3.8197   19.9525 C   0  0  0  0  0  0  0  0  0  0  0  0
   10.1189   -5.0054   19.6987 C   0  0  0  0  0  0  0  0  0  0  0  0
  1  3  4  0
  1  7  4  0
  2 21  4  0
  2 27  4  0
  3  9  4  0
  3 10  4  0
  4  8  4  0
  4 18  4  0
  4 25  1  0
  5  9  4  0
  5 12  4  0
  6 13  1  0
  6 27  1  0
  7 28  4  0
  8 11  4  0
  9 29  4  0
 10 12  4  0
 11 24  1  0
 11 26  4  0
 12 25  1  0
 13 28  1  0
 14 20  4  0
 14 23  4  0
 15 17  4  0
 15 21  4  0
 16 19  4  0
 16 23  4  0
 17 22  4  0
 18 26  4  0
 19 24  4  0
 20 24  4  0
 22 27  4  0
 28 29  4  0
M  END
$$$$

 Created by Python create_sdf_string function

 29 33  0  0  0  0  0  0  0  0999 V2000
   10.7215   -3.3326   17.6437 C   0  0  0  0  0  0  0  0  0  0  0  0
    9.9489   -3.4675   24.6487 N   0  0  0  0  0  0  0  0  0  0  0  0
   10.0172   -4.4740   17.4101 C   0  0  0  0  0  0  0  0  0  0  0  0
    6.9051   -7.9575   16.4222 C   0  0  0  0  0  0  0  0  0  0  0  0
    8.9969   -6.3552   17.9668 N   0  0  0  0  0  0  0  0  0  0  0  0
   10.6702   -3.9051   22.4070 C   0  0  0  0  0  0  0  0  0  0  0  0
   11.0625   -3.0028   18.8894 C   0  0  0  0  0  0  0  0  0  0  0  0
    5.6180   -7.9194   16.1754 O   0  0  0  0  0  0  0  0  0  0  0  0
    9.7259   -5.3080   18.4485 C   0  0  0  0  0  0  0  0  0  0  0  0
    9.4578   -5.0200   16.3036 N   0  0  0  0  0  0  0  0  0  0  0  0
    5.0287   -8.9365   16.8223 C   0  0  0  0  0  0  0  0  0  0  0  0
    8.7742   -6.1498   16.6764 C   0  0  0  0  0  0  0  0  0  0  0  0
   10.9418   -3.4032   21.2053 O   0  0  0  0  0  0  0  0  0  0  0  0
    1.4797   -8.6258   16.2950 C   0  0  0  0  0  0  0  0  0  0  0  0
    9.2861   -1.2743   25.3585 C   0  0  0  0  0  0  0  0  0  0  0  0
    1.8892  -10.3985   17.7511 N   0  0  0  0  0  0  0  0  0  0  0  0
    9.6210   -0.6952   24.0976 C   0  0  0  0  0  0  0  0  0  0  0  0
    7.0792   -9.0217   17.1429 C   0  0  0  0  0  0  0  0  0  0  0  0
    3.1713  -10.1816   17.6634 C   0  0  0  0  0  0  0  0  0  0  0  0
    2.7878   -8.3822   16.2137 C   0  0  0  0  0  0  0  0  0  0  0  0
    9.4601   -2.6590   25.6528 C   0  0  0  0  0  0  0  0  0  0  0  0
   10.1182   -1.5672   23.1165 C   0  0  0  0  0  0  0  0  0  0  0  0
    1.0552   -9.6360   17.0650 C   0  0  0  0  0  0  0  0  0  0  0  0
    3.6519   -9.1783   16.9039 C   0  0  0  0  0  0  0  0  0  0  0  0
    7.8675   -7.0096   15.9415 C   0  0  0  0  0  0  0  0  0  0  0  0
    5.9733   -9.6553   17.3832 N   0  0  0  0  0  0  0  0  0  0  0  0
   10.2411   -2.9363   23.4301 C   0  0  0  0  0  0  0  0  0  0  0  0
   10.7288   -3.8197   19.9525 C   0  0  0  0  0  0  0  0  0  0  0  0
   10.1189   -5.0054   19.6987 C   0  0  0  0  0  0  0  0  0  0  0  0
  1  3  4  0
  1  7  4  0
  2 21  4  0
  2 27  4  0
  3  9  4  0
  3 10  4  0
  4  8  4  0
  4 18  4  0
  4 25  1  0
  5  9  4  0
  5 12  4  0
  6 13  1  0
  6 27  1  0
  7 28  4  0
  8 11  4  0
  9 29  4  0
 10 12  4  0
 11 24  1  0
 11 26  4  0
 12 25  1  0
 13 28  1  0
 14 20  4  0
 14 23  4  0
 15 17  4  0
 15 21  4  0
 16 19  4  0
 16 23  4  0
 17 22  4  0
 18 26  4  0
 19 24  4  0
 20 24  4  0
 22 27  4  0
 28 29  4  0
M  END
$$$$

 Created by Python create_sdf_string function

 29 33  0  0  0  0  0  0  0  0999 V2000
   10.7215   -3.3326   17.6437 C   0  0  0  0  0  0  0  0  0  0  0  0
    9.9489   -3.4675   24.6487 N   0  0  0  0  0  0  0  0  0  0  0  0
   10.0172   -4.4740   17.4101 C   0  0  0  0  0  0  0  0  0  0  0  0
    6.9051   -7.9575   16.4222 C   0  0  0  0  0  0  0  0  0  0  0  0
    8.9969   -6.3552   17.9668 N   0  0  0  0  0  0  0  0  0  0  0  0
   10.6702   -3.9051   22.4070 C   0  0  0  0  0  0  0  0  0  0  0  0
   11.0625   -3.0028   18.8894 C   0  0  0  0  0  0  0  0  0  0  0  0
    5.6180   -7.9194   16.1754 O   0  0  0  0  0  0  0  0  0  0  0  0
    9.7259   -5.3080   18.4485 C   0  0  0  0  0  0  0  0  0  0  0  0
    9.4578   -5.0200   16.3036 N   0  0  0  0  0  0  0  0  0  0  0  0
    5.0287   -8.9365   16.8223 C   0  0  0  0  0  0  0  0  0  0  0  0
    8.7742   -6.1498   16.6764 C   0  0  0  0  0  0  0  0  0  0  0  0
   10.9418   -3.4032   21.2053 O   0  0  0  0  0  0  0  0  0  0  0  0
    1.4797   -8.6258   16.2950 C   0  0  0  0  0  0  0  0  0  0  0  0
    9.2861   -1.2743   25.3585 C   0  0  0  0  0  0  0  0  0  0  0  0
    1.8892  -10.3985   17.7511 N   0  0  0  0  0  0  0  0  0  0  0  0
    9.6210   -0.6952   24.0976 C   0  0  0  0  0  0  0  0  0  0  0  0
    7.0792   -9.0217   17.1429 C   0  0  0  0  0  0  0  0  0  0  0  0
    3.1713  -10.1816   17.6634 C   0  0  0  0  0  0  0  0  0  0  0  0
    2.7878   -8.3822   16.2137 C   0  0  0  0  0  0  0  0  0  0  0  0
    9.4601   -2.6590   25.6528 C   0  0  0  0  0  0  0  0  0  0  0  0
   10.1182   -1.5672   23.1165 C   0  0  0  0  0  0  0  0  0  0  0  0
    1.0552   -9.6360   17.0650 C   0  0  0  0  0  0  0  0  0  0  0  0
    3.6519   -9.1783   16.9039 C   0  0  0  0  0  0  0  0  0  0  0  0
    7.8675   -7.0096   15.9415 C   0  0  0  0  0  0  0  0  0  0  0  0
    5.9733   -9.6553   17.3832 N   0  0  0  0  0  0  0  0  0  0  0  0
   10.2411   -2.9363   23.4301 C   0  0  0  0  0  0  0  0  0  0  0  0
   10.7288   -3.8197   19.9525 C   0  0  0  0  0  0  0  0  0  0  0  0
   10.1189   -5.0054   19.6987 C   0  0  0  0  0  0  0  0  0  0  0  0
  1  3  4  0
  1  7  4  0
  2 21  4  0
  2 27  4  0
  3  9  4  0
  3 10  4  0
  4  8  4  0
  4 18  4  0
  4 25  1  0
  5  9  4  0
  5 12  4  0
  6 13  1  0
  6 27  1  0
  7 28  4  0
  8 11  4  0
  9 29  4  0
 10 12  4  0
 11 24  1  0
 11 26  4  0
 12 25  1  0
 13 28  1  0
 14 20  4  0
 14 23  4  0
 15 17  4  0
 15 21  4  0
 16 19  4  0
 16 23  4  0
 17 22  4  0
 18 26  4  0
 19 24  4  0
 20 24  4  0
 22 27  4  0
 28 29  4  0
M  END
$$$$

 Created by Python create_sdf_string function

 29 33  0  0  0  0  0  0  0  0999 V2000
   10.7215   -3.3326   17.6437 C   0  0  0  0  0  0  0  0  0  0  0  0
    9.9489   -3.4675   24.6487 N   0  0  0  0  0  0  0  0  0  0  0  0
   10.0172   -4.4740   17.4101 C   0  0  0  0  0  0  0  0  0  0  0  0
    6.9051   -7.9575   16.4222 C   0  0  0  0  0  0  0  0  0  0  0  0
    8.9969   -6.3552   17.9668 N   0  0  0  0  0  0  0  0  0  0  0  0
   10.6702   -3.9051   22.4070 C   0  0  0  0  0  0  0  0  0  0  0  0
   11.0625   -3.0028   18.8894 C   0  0  0  0  0  0  0  0  0  0  0  0
    5.6180   -7.9194   16.1754 O   0  0  0  0  0  0  0  0  0  0  0  0
    9.7259   -5.3080   18.4485 C   0  0  0  0  0  0  0  0  0  0  0  0
    9.4578   -5.0200   16.3036 N   0  0  0  0  0  0  0  0  0  0  0  0
    5.0287   -8.9365   16.8223 C   0  0  0  0  0  0  0  0  0  0  0  0
    8.7742   -6.1498   16.6764 C   0  0  0  0  0  0  0  0  0  0  0  0
   10.9418   -3.4032   21.2053 O   0  0  0  0  0  0  0  0  0  0  0  0
    1.4797   -8.6258   16.2950 C   0  0  0  0  0  0  0  0  0  0  0  0
    9.2861   -1.2743   25.3585 C   0  0  0  0  0  0  0  0  0  0  0  0
    1.8892  -10.3985   17.7511 N   0  0  0  0  0  0  0  0  0  0  0  0
    9.6210   -0.6952   24.0976 C   0  0  0  0  0  0  0  0  0  0  0  0
    7.0792   -9.0217   17.1429 C   0  0  0  0  0  0  0  0  0  0  0  0
    3.1713  -10.1816   17.6634 C   0  0  0  0  0  0  0  0  0  0  0  0
    2.7878   -8.3822   16.2137 C   0  0  0  0  0  0  0  0  0  0  0  0
    9.4601   -2.6590   25.6528 C   0  0  0  0  0  0  0  0  0  0  0  0
   10.1182   -1.5672   23.1165 C   0  0  0  0  0  0  0  0  0  0  0  0
    1.0552   -9.6360   17.0650 C   0  0  0  0  0  0  0  0  0  0  0  0
    3.6519   -9.1783   16.9039 C   0  0  0  0  0  0  0  0  0  0  0  0
    7.8675   -7.0096   15.9415 C   0  0  0  0  0  0  0  0  0  0  0  0
    5.9733   -9.6553   17.3832 N   0  0  0  0  0  0  0  0  0  0  0  0
   10.2411   -2.9363   23.4301 C   0  0  0  0  0  0  0  0  0  0  0  0
   10.7288   -3.8197   19.9525 C   0  0  0  0  0  0  0  0  0  0  0  0
   10.1189   -5.0054   19.6987 C   0  0  0  0  0  0  0  0  0  0  0  0
  1  3  4  0
  1  7  4  0
  2 21  4  0
  2 27  4  0
  3  9  4  0
  3 10  4  0
  4  8  4  0
  4 18  4  0
  4 25  1  0
  5  9  4  0
  5 12  4  0
  6 13  1  0
  6 27  1  0
  7 28  4  0
  8 11  4  0
  9 29  4  0
 10 12  4  0
 11 24  1  0
 11 26  4  0
 12 25  1  0
 13 28  1  0
 14 20  4  0
 14 23  4  0
 15 17  4  0
 15 21  4  0
 16 19  4  0
 16 23  4  0
 17 22  4  0
 18 26  4  0
 19 24  4  0
 20 24  4  0
 22 27  4  0
 28 29  4  0
M  END
$$$$

 Created by Python create_sdf_string function

 29 33  0  0  0  0  0  0  0  0999 V2000
   10.7215   -3.3326   17.6437 C   0  0  0  0  0  0  0  0  0  0  0  0
    9.9489   -3.4675   24.6487 N   0  0  0  0  0  0  0  0  0  0  0  0
   10.0172   -4.4740   17.4101 C   0  0  0  0  0  0  0  0  0  0  0  0
    6.9051   -7.9575   16.4222 C   0  0  0  0  0  0  0  0  0  0  0  0
    8.9969   -6.3552   17.9668 N   0  0  0  0  0  0  0  0  0  0  0  0
   10.6702   -3.9051   22.4070 C   0  0  0  0  0  0  0  0  0  0  0  0
   11.0625   -3.0028   18.8894 C   0  0  0  0  0  0  0  0  0  0  0  0
    5.6180   -7.9194   16.1754 O   0  0  0  0  0  0  0  0  0  0  0  0
    9.7259   -5.3080   18.4485 C   0  0  0  0  0  0  0  0  0  0  0  0
    9.4578   -5.0200   16.3036 N   0  0  0  0  0  0  0  0  0  0  0  0
    5.0287   -8.9365   16.8223 C   0  0  0  0  0  0  0  0  0  0  0  0
    8.7742   -6.1498   16.6764 C   0  0  0  0  0  0  0  0  0  0  0  0
   10.9418   -3.4032   21.2053 O   0  0  0  0  0  0  0  0  0  0  0  0
    1.4797   -8.6258   16.2950 C   0  0  0  0  0  0  0  0  0  0  0  0
    9.2861   -1.2743   25.3585 C   0  0  0  0  0  0  0  0  0  0  0  0
    1.8892  -10.3985   17.7511 N   0  0  0  0  0  0  0  0  0  0  0  0
    9.6210   -0.6952   24.0976 C   0  0  0  0  0  0  0  0  0  0  0  0
    7.0792   -9.0217   17.1429 C   0  0  0  0  0  0  0  0  0  0  0  0
    3.1713  -10.1816   17.6634 C   0  0  0  0  0  0  0  0  0  0  0  0
    2.7878   -8.3822   16.2137 C   0  0  0  0  0  0  0  0  0  0  0  0
    9.4601   -2.6590   25.6528 C   0  0  0  0  0  0  0  0  0  0  0  0
   10.1182   -1.5672   23.1165 C   0  0  0  0  0  0  0  0  0  0  0  0
    1.0552   -9.6360   17.0650 C   0  0  0  0  0  0  0  0  0  0  0  0
    3.6519   -9.1783   16.9039 C   0  0  0  0  0  0  0  0  0  0  0  0
    7.8675   -7.0096   15.9415 C   0  0  0  0  0  0  0  0  0  0  0  0
    5.9733   -9.6553   17.3832 N   0  0  0  0  0  0  0  0  0  0  0  0
   10.2411   -2.9363   23.4301 C   0  0  0  0  0  0  0  0  0  0  0  0
   10.7288   -3.8197   19.9525 C   0  0  0  0  0  0  0  0  0  0  0  0
   10.1189   -5.0054   19.6987 C   0  0  0  0  0  0  0  0  0  0  0  0
  1  3  4  0
  1  7  4  0
  2 21  4  0
  2 27  4  0
  3  9  4  0
  3 10  4  0
  4  8  4  0
  4 18  4  0
  4 25  1  0
  5  9  4  0
  5 12  4  0
  6 13  1  0
  6 27  1  0
  7 28  4  0
  8 11  4  0
  9 29  4  0
 10 12  4  0
 11 24  1  0
 11 26  4  0
 12 25  1  0
 13 28  1  0
 14 20  4  0
 14 23  4  0
 15 17  4  0
 15 21  4  0
 16 19  4  0
 16 23  4  0
 17 22  4  0
 18 26  4  0
 19 24  4  0
 20 24  4  0
 22 27  4  0
 28 29  4  0
M  END
$$$$

 Created by Python create_sdf_string function

 29 33  0  0  0  0  0  0  0  0999 V2000
   10.7215   -3.3326   17.6437 C   0  0  0  0  0  0  0  0  0  0  0  0
    9.9489   -3.4675   24.6487 N   0  0  0  0  0  0  0  0  0  0  0  0
   10.0172   -4.4740   17.4101 C   0  0  0  0  0  0  0  0  0  0  0  0
    6.9051   -7.9575   16.4222 C   0  0  0  0  0  0  0  0  0  0  0  0
    8.9969   -6.3552   17.9668 N   0  0  0  0  0  0  0  0  0  0  0  0
   10.6702   -3.9051   22.4070 C   0  0  0  0  0  0  0  0  0  0  0  0
   11.0625   -3.0028   18.8894 C   0  0  0  0  0  0  0  0  0  0  0  0
    5.6180   -7.9194   16.1754 O   0  0  0  0  0  0  0  0  0  0  0  0
    9.7259   -5.3080   18.4485 C   0  0  0  0  0  0  0  0  0  0  0  0
    9.4578   -5.0200   16.3036 N   0  0  0  0  0  0  0  0  0  0  0  0
    5.0287   -8.9365   16.8223 C   0  0  0  0  0  0  0  0  0  0  0  0
    8.7742   -6.1498   16.6764 C   0  0  0  0  0  0  0  0  0  0  0  0
   10.9418   -3.4032   21.2053 O   0  0  0  0  0  0  0  0  0  0  0  0
    1.4797   -8.6258   16.2950 C   0  0  0  0  0  0  0  0  0  0  0  0
    9.2861   -1.2743   25.3585 C   0  0  0  0  0  0  0  0  0  0  0  0
    1.8892  -10.3985   17.7511 N   0  0  0  0  0  0  0  0  0  0  0  0
    9.6210   -0.6952   24.0976 C   0  0  0  0  0  0  0  0  0  0  0  0
    7.0792   -9.0217   17.1429 C   0  0  0  0  0  0  0  0  0  0  0  0
    3.1713  -10.1816   17.6634 C   0  0  0  0  0  0  0  0  0  0  0  0
    2.7878   -8.3822   16.2137 C   0  0  0  0  0  0  0  0  0  0  0  0
    9.4601   -2.6590   25.6528 C   0  0  0  0  0  0  0  0  0  0  0  0
   10.1182   -1.5672   23.1165 C   0  0  0  0  0  0  0  0  0  0  0  0
    1.0552   -9.6360   17.0650 C   0  0  0  0  0  0  0  0  0  0  0  0
    3.6519   -9.1783   16.9039 C   0  0  0  0  0  0  0  0  0  0  0  0
    7.8675   -7.0096   15.9415 C   0  0  0  0  0  0  0  0  0  0  0  0
    5.9733   -9.6553   17.3832 N   0  0  0  0  0  0  0  0  0  0  0  0
   10.2411   -2.9363   23.4301 C   0  0  0  0  0  0  0  0  0  0  0  0
   10.7288   -3.8197   19.9525 C   0  0  0  0  0  0  0  0  0  0  0  0
   10.1189   -5.0054   19.6987 C   0  0  0  0  0  0  0  0  0  0  0  0
  1  3  4  0
  1  7  4  0
  2 21  4  0
  2 27  4  0
  3  9  4  0
  3 10  4  0
  4  8  4  0
  4 18  4  0
  4 25  1  0
  5  9  4  0
  5 12  4  0
  6 13  1  0
  6 27  1  0
  7 28  4  0
  8 11  4  0
  9 29  4  0
 10 12  4  0
 11 24  1  0
 11 26  4  0
 12 25  1  0
 13 28  1  0
 14 20  4  0
 14 23  4  0
 15 17  4  0
 15 21  4  0
 16 19  4  0
 16 23  4  0
 17 22  4  0
 18 26  4  0
 19 24  4  0
 20 24  4  0
 22 27  4  0
 28 29  4  0
M  END
$$$$

 Created by Python create_sdf_string function

 29 33  0  0  0  0  0  0  0  0999 V2000
   10.7215   -3.3326   17.6437 C   0  0  0  0  0  0  0  0  0  0  0  0
    9.9489   -3.4675   24.6487 N   0  0  0  0  0  0  0  0  0  0  0  0
   10.0172   -4.4740   17.4101 C   0  0  0  0  0  0  0  0  0  0  0  0
    6.9051   -7.9575   16.4222 C   0  0  0  0  0  0  0  0  0  0  0  0
    8.9969   -6.3552   17.9668 N   0  0  0  0  0  0  0  0  0  0  0  0
   10.6702   -3.9051   22.4070 C   0  0  0  0  0  0  0  0  0  0  0  0
   11.0625   -3.0028   18.8894 C   0  0  0  0  0  0  0  0  0  0  0  0
    5.6180   -7.9194   16.1754 O   0  0  0  0  0  0  0  0  0  0  0  0
    9.7259   -5.3080   18.4485 C   0  0  0  0  0  0  0  0  0  0  0  0
    9.4578   -5.0200   16.3036 N   0  0  0  0  0  0  0  0  0  0  0  0
    5.0287   -8.9365   16.8223 C   0  0  0  0  0  0  0  0  0  0  0  0
    8.7742   -6.1498   16.6764 C   0  0  0  0  0  0  0  0  0  0  0  0
   10.9418   -3.4032   21.2053 O   0  0  0  0  0  0  0  0  0  0  0  0
    1.4797   -8.6258   16.2950 C   0  0  0  0  0  0  0  0  0  0  0  0
    9.2861   -1.2743   25.3585 C   0  0  0  0  0  0  0  0  0  0  0  0
    1.8892  -10.3985   17.7511 N   0  0  0  0  0  0  0  0  0  0  0  0
    9.6210   -0.6952   24.0976 C   0  0  0  0  0  0  0  0  0  0  0  0
    7.0792   -9.0217   17.1429 C   0  0  0  0  0  0  0  0  0  0  0  0
    3.1713  -10.1816   17.6634 C   0  0  0  0  0  0  0  0  0  0  0  0
    2.7878   -8.3822   16.2137 C   0  0  0  0  0  0  0  0  0  0  0  0
    9.4601   -2.6590   25.6528 C   0  0  0  0  0  0  0  0  0  0  0  0
   10.1182   -1.5672   23.1165 C   0  0  0  0  0  0  0  0  0  0  0  0
    1.0552   -9.6360   17.0650 C   0  0  0  0  0  0  0  0  0  0  0  0
    3.6519   -9.1783   16.9039 C   0  0  0  0  0  0  0  0  0  0  0  0
    7.8675   -7.0096   15.9415 C   0  0  0  0  0  0  0  0  0  0  0  0
    5.9733   -9.6553   17.3832 N   0  0  0  0  0  0  0  0  0  0  0  0
   10.2411   -2.9363   23.4301 C   0  0  0  0  0  0  0  0  0  0  0  0
   10.7288   -3.8197   19.9525 C   0  0  0  0  0  0  0  0  0  0  0  0
   10.1189   -5.0054   19.6987 C   0  0  0  0  0  0  0  0  0  0  0  0
  1  3  4  0
  1  7  4  0
  2 21  4  0
  2 27  4  0
  3  9  4  0
  3 10  4  0
  4  8  4  0
  4 18  4  0
  4 25  1  0
  5  9  4  0
  5 12  4  0
  6 13  1  0
  6 27  1  0
  7 28  4  0
  8 11  4  0
  9 29  4  0
 10 12  4  0
 11 24  1  0
 11 26  4  0
 12 25  1  0
 13 28  1  0
 14 20  4  0
 14 23  4  0
 15 17  4  0
 15 21  4  0
 16 19  4  0
 16 23  4  0
 17 22  4  0
 18 26  4  0
 19 24  4  0
 20 24  4  0
 22 27  4  0
 28 29  4  0
M  END
$$$$

 Created by Python create_sdf_string function

 29 33  0  0  0  0  0  0  0  0999 V2000
   10.7215   -3.3326   17.6437 C   0  0  0  0  0  0  0  0  0  0  0  0
    9.9489   -3.4675   24.6487 N   0  0  0  0  0  0  0  0  0  0  0  0
   10.0172   -4.4740   17.4101 C   0  0  0  0  0  0  0  0  0  0  0  0
    6.9051   -7.9575   16.4222 C   0  0  0  0  0  0  0  0  0  0  0  0
    8.9969   -6.3552   17.9668 N   0  0  0  0  0  0  0  0  0  0  0  0
   10.6702   -3.9051   22.4070 C   0  0  0  0  0  0  0  0  0  0  0  0
   11.0625   -3.0028   18.8894 C   0  0  0  0  0  0  0  0  0  0  0  0
    5.6180   -7.9194   16.1754 O   0  0  0  0  0  0  0  0  0  0  0  0
    9.7259   -5.3080   18.4485 C   0  0  0  0  0  0  0  0  0  0  0  0
    9.4578   -5.0200   16.3036 N   0  0  0  0  0  0  0  0  0  0  0  0
    5.0287   -8.9365   16.8223 C   0  0  0  0  0  0  0  0  0  0  0  0
    8.7742   -6.1498   16.6764 C   0  0  0  0  0  0  0  0  0  0  0  0
   10.9418   -3.4032   21.2053 O   0  0  0  0  0  0  0  0  0  0  0  0
    1.4797   -8.6258   16.2950 C   0  0  0  0  0  0  0  0  0  0  0  0
    9.2861   -1.2743   25.3585 C   0  0  0  0  0  0  0  0  0  0  0  0
    1.8892  -10.3985   17.7511 N   0  0  0  0  0  0  0  0  0  0  0  0
    9.6210   -0.6952   24.0976 C   0  0  0  0  0  0  0  0  0  0  0  0
    7.0792   -9.0217   17.1429 C   0  0  0  0  0  0  0  0  0  0  0  0
    3.1713  -10.1816   17.6634 C   0  0  0  0  0  0  0  0  0  0  0  0
    2.7878   -8.3822   16.2137 C   0  0  0  0  0  0  0  0  0  0  0  0
    9.4601   -2.6590   25.6528 C   0  0  0  0  0  0  0  0  0  0  0  0
   10.1182   -1.5672   23.1165 C   0  0  0  0  0  0  0  0  0  0  0  0
    1.0552   -9.6360   17.0650 C   0  0  0  0  0  0  0  0  0  0  0  0
    3.6519   -9.1783   16.9039 C   0  0  0  0  0  0  0  0  0  0  0  0
    7.8675   -7.0096   15.9415 C   0  0  0  0  0  0  0  0  0  0  0  0
    5.9733   -9.6553   17.3832 N   0  0  0  0  0  0  0  0  0  0  0  0
   10.2411   -2.9363   23.4301 C   0  0  0  0  0  0  0  0  0  0  0  0
   10.7288   -3.8197   19.9525 C   0  0  0  0  0  0  0  0  0  0  0  0
   10.1189   -5.0054   19.6987 C   0  0  0  0  0  0  0  0  0  0  0  0
  1  3  4  0
  1  7  4  0
  2 21  4  0
  2 27  4  0
  3  9  4  0
  3 10  4  0
  4  8  4  0
  4 18  4  0
  4 25  1  0
  5  9  4  0
  5 12  4  0
  6 13  1  0
  6 27  1  0
  7 28  4  0
  8 11  4  0
  9 29  4  0
 10 12  4  0
 11 24  1  0
 11 26  4  0
 12 25  1  0
 13 28  1  0
 14 20  4  0
 14 23  4  0
 15 17  4  0
 15 21  4  0
 16 19  4  0
 16 23  4  0
 17 22  4  0
 18 26  4  0
 19 24  4  0
 20 24  4  0
 22 27  4  0
 28 29  4  0
M  END
$$$$

 Created by Python create_sdf_string function

 29 33  0  0  0  0  0  0  0  0999 V2000
   10.7215   -3.3326   17.6437 C   0  0  0  0  0  0  0  0  0  0  0  0
    9.9489   -3.4675   24.6487 N   0  0  0  0  0  0  0  0  0  0  0  0
   10.0172   -4.4740   17.4101 C   0  0  0  0  0  0  0  0  0  0  0  0
    6.9051   -7.9575   16.4222 C   0  0  0  0  0  0  0  0  0  0  0  0
    8.9969   -6.3552   17.9668 N   0  0  0  0  0  0  0  0  0  0  0  0
   10.6702   -3.9051   22.4070 C   0  0  0  0  0  0  0  0  0  0  0  0
   11.0625   -3.0028   18.8894 C   0  0  0  0  0  0  0  0  0  0  0  0
    5.6180   -7.9194   16.1754 O   0  0  0  0  0  0  0  0  0  0  0  0
    9.7259   -5.3080   18.4485 C   0  0  0  0  0  0  0  0  0  0  0  0
    9.4578   -5.0200   16.3036 N   0  0  0  0  0  0  0  0  0  0  0  0
    5.0287   -8.9365   16.8223 C   0  0  0  0  0  0  0  0  0  0  0  0
    8.7742   -6.1498   16.6764 C   0  0  0  0  0  0  0  0  0  0  0  0
   10.9418   -3.4032   21.2053 O   0  0  0  0  0  0  0  0  0  0  0  0
    1.4797   -8.6258   16.2950 C   0  0  0  0  0  0  0  0  0  0  0  0
    9.2861   -1.2743   25.3585 C   0  0  0  0  0  0  0  0  0  0  0  0
    1.8892  -10.3985   17.7511 N   0  0  0  0  0  0  0  0  0  0  0  0
    9.6210   -0.6952   24.0976 C   0  0  0  0  0  0  0  0  0  0  0  0
    7.0792   -9.0217   17.1429 C   0  0  0  0  0  0  0  0  0  0  0  0
    3.1713  -10.1816   17.6634 C   0  0  0  0  0  0  0  0  0  0  0  0
    2.7878   -8.3822   16.2137 C   0  0  0  0  0  0  0  0  0  0  0  0
    9.4601   -2.6590   25.6528 C   0  0  0  0  0  0  0  0  0  0  0  0
   10.1182   -1.5672   23.1165 C   0  0  0  0  0  0  0  0  0  0  0  0
    1.0552   -9.6360   17.0650 C   0  0  0  0  0  0  0  0  0  0  0  0
    3.6519   -9.1783   16.9039 C   0  0  0  0  0  0  0  0  0  0  0  0
    7.8675   -7.0096   15.9415 C   0  0  0  0  0  0  0  0  0  0  0  0
    5.9733   -9.6553   17.3832 N   0  0  0  0  0  0  0  0  0  0  0  0
   10.2411   -2.9363   23.4301 C   0  0  0  0  0  0  0  0  0  0  0  0
   10.7288   -3.8197   19.9525 C   0  0  0  0  0  0  0  0  0  0  0  0
   10.1189   -5.0054   19.6987 C   0  0  0  0  0  0  0  0  0  0  0  0
  1  3  4  0
  1  7  4  0
  2 21  4  0
  2 27  4  0
  3  9  4  0
  3 10  4  0
  4  8  4  0
  4 18  4  0
  4 25  1  0
  5  9  4  0
  5 12  4  0
  6 13  1  0
  6 27  1  0
  7 28  4  0
  8 11  4  0
  9 29  4  0
 10 12  4  0
 11 24  1  0
 11 26  4  0
 12 25  1  0
 13 28  1  0
 14 20  4  0
 14 23  4  0
 15 17  4  0
 15 21  4  0
 16 19  4  0
 16 23  4  0
 17 22  4  0
 18 26  4  0
 19 24  4  0
 20 24  4  0
 22 27  4  0
 28 29  4  0
M  END
$$$$

 Created by Python create_sdf_string function

 29 33  0  0  0  0  0  0  0  0999 V2000
   10.7215   -3.3326   17.6437 C   0  0  0  0  0  0  0  0  0  0  0  0
    9.9489   -3.4675   24.6487 N   0  0  0  0  0  0  0  0  0  0  0  0
   10.0172   -4.4740   17.4101 C   0  0  0  0  0  0  0  0  0  0  0  0
    6.9051   -7.9575   16.4222 C   0  0  0  0  0  0  0  0  0  0  0  0
    8.9969   -6.3552   17.9668 N   0  0  0  0  0  0  0  0  0  0  0  0
   10.6702   -3.9051   22.4070 C   0  0  0  0  0  0  0  0  0  0  0  0
   11.0625   -3.0028   18.8894 C   0  0  0  0  0  0  0  0  0  0  0  0
    5.6180   -7.9194   16.1754 O   0  0  0  0  0  0  0  0  0  0  0  0
    9.7259   -5.3080   18.4485 C   0  0  0  0  0  0  0  0  0  0  0  0
    9.4578   -5.0200   16.3036 N   0  0  0  0  0  0  0  0  0  0  0  0
    5.0287   -8.9365   16.8223 C   0  0  0  0  0  0  0  0  0  0  0  0
    8.7742   -6.1498   16.6764 C   0  0  0  0  0  0  0  0  0  0  0  0
   10.9418   -3.4032   21.2053 O   0  0  0  0  0  0  0  0  0  0  0  0
    1.4797   -8.6258   16.2950 C   0  0  0  0  0  0  0  0  0  0  0  0
    9.2861   -1.2743   25.3585 C   0  0  0  0  0  0  0  0  0  0  0  0
    1.8892  -10.3985   17.7511 N   0  0  0  0  0  0  0  0  0  0  0  0
    9.6210   -0.6952   24.0976 C   0  0  0  0  0  0  0  0  0  0  0  0
    7.0792   -9.0217   17.1429 C   0  0  0  0  0  0  0  0  0  0  0  0
    3.1713  -10.1816   17.6634 C   0  0  0  0  0  0  0  0  0  0  0  0
    2.7878   -8.3822   16.2137 C   0  0  0  0  0  0  0  0  0  0  0  0
    9.4601   -2.6590   25.6528 C   0  0  0  0  0  0  0  0  0  0  0  0
   10.1182   -1.5672   23.1165 C   0  0  0  0  0  0  0  0  0  0  0  0
    1.0552   -9.6360   17.0650 C   0  0  0  0  0  0  0  0  0  0  0  0
    3.6519   -9.1783   16.9039 C   0  0  0  0  0  0  0  0  0  0  0  0
    7.8675   -7.0096   15.9415 C   0  0  0  0  0  0  0  0  0  0  0  0
    5.9733   -9.6553   17.3832 N   0  0  0  0  0  0  0  0  0  0  0  0
   10.2411   -2.9363   23.4301 C   0  0  0  0  0  0  0  0  0  0  0  0
   10.7288   -3.8197   19.9525 C   0  0  0  0  0  0  0  0  0  0  0  0
   10.1189   -5.0054   19.6987 C   0  0  0  0  0  0  0  0  0  0  0  0
  1  3  4  0
  1  7  4  0
  2 21  4  0
  2 27  4  0
  3  9  4  0
  3 10  4  0
  4  8  4  0
  4 18  4  0
  4 25  1  0
  5  9  4  0
  5 12  4  0
  6 13  1  0
  6 27  1  0
  7 28  4  0
  8 11  4  0
  9 29  4  0
 10 12  4  0
 11 24  1  0
 11 26  4  0
 12 25  1  0
 13 28  1  0
 14 20  4  0
 14 23  4  0
 15 17  4  0
 15 21  4  0
 16 19  4  0
 16 23  4  0
 17 22  4  0
 18 26  4  0
 19 24  4  0
 20 24  4  0
 22 27  4  0
 28 29  4  0
M  END
$$$$

 Created by Python create_sdf_string function

 29 33  0  0  0  0  0  0  0  0999 V2000
   10.7215   -3.3326   17.6437 C   0  0  0  0  0  0  0  0  0  0  0  0
    9.9489   -3.4675   24.6487 N   0  0  0  0  0  0  0  0  0  0  0  0
   10.0172   -4.4740   17.4101 C   0  0  0  0  0  0  0  0  0  0  0  0
    6.9051   -7.9575   16.4222 C   0  0  0  0  0  0  0  0  0  0  0  0
    8.9969   -6.3552   17.9668 N   0  0  0  0  0  0  0  0  0  0  0  0
   10.6702   -3.9051   22.4070 C   0  0  0  0  0  0  0  0  0  0  0  0
   11.0625   -3.0028   18.8894 C   0  0  0  0  0  0  0  0  0  0  0  0
    5.6180   -7.9194   16.1754 O   0  0  0  0  0  0  0  0  0  0  0  0
    9.7259   -5.3080   18.4485 C   0  0  0  0  0  0  0  0  0  0  0  0
    9.4578   -5.0200   16.3036 N   0  0  0  0  0  0  0  0  0  0  0  0
    5.0287   -8.9365   16.8223 C   0  0  0  0  0  0  0  0  0  0  0  0
    8.7742   -6.1498   16.6764 C   0  0  0  0  0  0  0  0  0  0  0  0
   10.9418   -3.4032   21.2053 O   0  0  0  0  0  0  0  0  0  0  0  0
    1.4797   -8.6258   16.2950 C   0  0  0  0  0  0  0  0  0  0  0  0
    9.2861   -1.2743   25.3585 C   0  0  0  0  0  0  0  0  0  0  0  0
    1.8892  -10.3985   17.7511 N   0  0  0  0  0  0  0  0  0  0  0  0
    9.6210   -0.6952   24.0976 C   0  0  0  0  0  0  0  0  0  0  0  0
    7.0792   -9.0217   17.1429 C   0  0  0  0  0  0  0  0  0  0  0  0
    3.1713  -10.1816   17.6634 C   0  0  0  0  0  0  0  0  0  0  0  0
    2.7878   -8.3822   16.2137 C   0  0  0  0  0  0  0  0  0  0  0  0
    9.4601   -2.6590   25.6528 C   0  0  0  0  0  0  0  0  0  0  0  0
   10.1182   -1.5672   23.1165 C   0  0  0  0  0  0  0  0  0  0  0  0
    1.0552   -9.6360   17.0650 C   0  0  0  0  0  0  0  0  0  0  0  0
    3.6519   -9.1783   16.9039 C   0  0  0  0  0  0  0  0  0  0  0  0
    7.8675   -7.0096   15.9415 C   0  0  0  0  0  0  0  0  0  0  0  0
    5.9733   -9.6553   17.3832 N   0  0  0  0  0  0  0  0  0  0  0  0
   10.2411   -2.9363   23.4301 C   0  0  0  0  0  0  0  0  0  0  0  0
   10.7288   -3.8197   19.9525 C   0  0  0  0  0  0  0  0  0  0  0  0
   10.1189   -5.0054   19.6987 C   0  0  0  0  0  0  0  0  0  0  0  0
  1  3  4  0
  1  7  4  0
  2 21  4  0
  2 27  4  0
  3  9  4  0
  3 10  4  0
  4  8  4  0
  4 18  4  0
  4 25  1  0
  5  9  4  0
  5 12  4  0
  6 13  1  0
  6 27  1  0
  7 28  4  0
  8 11  4  0
  9 29  4  0
 10 12  4  0
 11 24  1  0
 11 26  4  0
 12 25  1  0
 13 28  1  0
 14 20  4  0
 14 23  4  0
 15 17  4  0
 15 21  4  0
 16 19  4  0
 16 23  4  0
 17 22  4  0
 18 26  4  0
 19 24  4  0
 20 24  4  0
 22 27  4  0
 28 29  4  0
M  END
$$$$

 Created by Python create_sdf_string function

 29 33  0  0  0  0  0  0  0  0999 V2000
   10.7215   -3.3326   17.6437 C   0  0  0  0  0  0  0  0  0  0  0  0
    9.9489   -3.4675   24.6487 N   0  0  0  0  0  0  0  0  0  0  0  0
   10.0172   -4.4740   17.4101 C   0  0  0  0  0  0  0  0  0  0  0  0
    6.9051   -7.9575   16.4222 C   0  0  0  0  0  0  0  0  0  0  0  0
    8.9969   -6.3552   17.9668 N   0  0  0  0  0  0  0  0  0  0  0  0
   10.6702   -3.9051   22.4070 C   0  0  0  0  0  0  0  0  0  0  0  0
   11.0625   -3.0028   18.8894 C   0  0  0  0  0  0  0  0  0  0  0  0
    5.6180   -7.9194   16.1754 O   0  0  0  0  0  0  0  0  0  0  0  0
    9.7259   -5.3080   18.4485 C   0  0  0  0  0  0  0  0  0  0  0  0
    9.4578   -5.0200   16.3036 N   0  0  0  0  0  0  0  0  0  0  0  0
    5.0287   -8.9365   16.8223 C   0  0  0  0  0  0  0  0  0  0  0  0
    8.7742   -6.1498   16.6764 C   0  0  0  0  0  0  0  0  0  0  0  0
   10.9418   -3.4032   21.2053 O   0  0  0  0  0  0  0  0  0  0  0  0
    1.4797   -8.6258   16.2950 C   0  0  0  0  0  0  0  0  0  0  0  0
    9.2861   -1.2743   25.3585 C   0  0  0  0  0  0  0  0  0  0  0  0
    1.8892  -10.3985   17.7511 N   0  0  0  0  0  0  0  0  0  0  0  0
    9.6210   -0.6952   24.0976 C   0  0  0  0  0  0  0  0  0  0  0  0
    7.0792   -9.0217   17.1429 C   0  0  0  0  0  0  0  0  0  0  0  0
    3.1713  -10.1816   17.6634 C   0  0  0  0  0  0  0  0  0  0  0  0
    2.7878   -8.3822   16.2137 C   0  0  0  0  0  0  0  0  0  0  0  0
    9.4601   -2.6590   25.6528 C   0  0  0  0  0  0  0  0  0  0  0  0
   10.1182   -1.5672   23.1165 C   0  0  0  0  0  0  0  0  0  0  0  0
    1.0552   -9.6360   17.0650 C   0  0  0  0  0  0  0  0  0  0  0  0
    3.6519   -9.1783   16.9039 C   0  0  0  0  0  0  0  0  0  0  0  0
    7.8675   -7.0096   15.9415 C   0  0  0  0  0  0  0  0  0  0  0  0
    5.9733   -9.6553   17.3832 N   0  0  0  0  0  0  0  0  0  0  0  0
   10.2411   -2.9363   23.4301 C   0  0  0  0  0  0  0  0  0  0  0  0
   10.7288   -3.8197   19.9525 C   0  0  0  0  0  0  0  0  0  0  0  0
   10.1189   -5.0054   19.6987 C   0  0  0  0  0  0  0  0  0  0  0  0
  1  3  4  0
  1  7  4  0
  2 21  4  0
  2 27  4  0
  3  9  4  0
  3 10  4  0
  4  8  4  0
  4 18  4  0
  4 25  1  0
  5  9  4  0
  5 12  4  0
  6 13  1  0
  6 27  1  0
  7 28  4  0
  8 11  4  0
  9 29  4  0
 10 12  4  0
 11 24  1  0
 11 26  4  0
 12 25  1  0
 13 28  1  0
 14 20  4  0
 14 23  4  0
 15 17  4  0
 15 21  4  0
 16 19  4  0
 16 23  4  0
 17 22  4  0
 18 26  4  0
 19 24  4  0
 20 24  4  0
 22 27  4  0
 28 29  4  0
M  END
$$$$

 Created by Python create_sdf_string function

 29 33  0  0  0  0  0  0  0  0999 V2000
   10.7215   -3.3326   17.6437 C   0  0  0  0  0  0  0  0  0  0  0  0
    9.9489   -3.4675   24.6487 N   0  0  0  0  0  0  0  0  0  0  0  0
   10.0172   -4.4740   17.4101 C   0  0  0  0  0  0  0  0  0  0  0  0
    6.9051   -7.9575   16.4222 C   0  0  0  0  0  0  0  0  0  0  0  0
    8.9969   -6.3552   17.9668 N   0  0  0  0  0  0  0  0  0  0  0  0
   10.6702   -3.9051   22.4070 C   0  0  0  0  0  0  0  0  0  0  0  0
   11.0625   -3.0028   18.8894 C   0  0  0  0  0  0  0  0  0  0  0  0
    5.6180   -7.9194   16.1754 O   0  0  0  0  0  0  0  0  0  0  0  0
    9.7259   -5.3080   18.4485 C   0  0  0  0  0  0  0  0  0  0  0  0
    9.4578   -5.0200   16.3036 N   0  0  0  0  0  0  0  0  0  0  0  0
    5.0287   -8.9365   16.8223 C   0  0  0  0  0  0  0  0  0  0  0  0
    8.7742   -6.1498   16.6764 C   0  0  0  0  0  0  0  0  0  0  0  0
   10.9418   -3.4032   21.2053 O   0  0  0  0  0  0  0  0  0  0  0  0
    1.4797   -8.6258   16.2950 C   0  0  0  0  0  0  0  0  0  0  0  0
    9.2861   -1.2743   25.3585 C   0  0  0  0  0  0  0  0  0  0  0  0
    1.8892  -10.3985   17.7511 N   0  0  0  0  0  0  0  0  0  0  0  0
    9.6210   -0.6952   24.0976 C   0  0  0  0  0  0  0  0  0  0  0  0
    7.0792   -9.0217   17.1429 C   0  0  0  0  0  0  0  0  0  0  0  0
    3.1713  -10.1816   17.6634 C   0  0  0  0  0  0  0  0  0  0  0  0
    2.7878   -8.3822   16.2137 C   0  0  0  0  0  0  0  0  0  0  0  0
    9.4601   -2.6590   25.6528 C   0  0  0  0  0  0  0  0  0  0  0  0
   10.1182   -1.5672   23.1165 C   0  0  0  0  0  0  0  0  0  0  0  0
    1.0552   -9.6360   17.0650 C   0  0  0  0  0  0  0  0  0  0  0  0
    3.6519   -9.1783   16.9039 C   0  0  0  0  0  0  0  0  0  0  0  0
    7.8675   -7.0096   15.9415 C   0  0  0  0  0  0  0  0  0  0  0  0
    5.9733   -9.6553   17.3832 N   0  0  0  0  0  0  0  0  0  0  0  0
   10.2411   -2.9363   23.4301 C   0  0  0  0  0  0  0  0  0  0  0  0
   10.7288   -3.8197   19.9525 C   0  0  0  0  0  0  0  0  0  0  0  0
   10.1189   -5.0054   19.6987 C   0  0  0  0  0  0  0  0  0  0  0  0
  1  3  4  0
  1  7  4  0
  2 21  4  0
  2 27  4  0
  3  9  4  0
  3 10  4  0
  4  8  4  0
  4 18  4  0
  4 25  1  0
  5  9  4  0
  5 12  4  0
  6 13  1  0
  6 27  1  0
  7 28  4  0
  8 11  4  0
  9 29  4  0
 10 12  4  0
 11 24  1  0
 11 26  4  0
 12 25  1  0
 13 28  1  0
 14 20  4  0
 14 23  4  0
 15 17  4  0
 15 21  4  0
 16 19  4  0
 16 23  4  0
 17 22  4  0
 18 26  4  0
 19 24  4  0
 20 24  4  0
 22 27  4  0
 28 29  4  0
M  END
$$$$

 Created by Python create_sdf_string function

 29 33  0  0  0  0  0  0  0  0999 V2000
   10.7215   -3.3326   17.6437 C   0  0  0  0  0  0  0  0  0  0  0  0
    9.9489   -3.4675   24.6487 N   0  0  0  0  0  0  0  0  0  0  0  0
   10.0172   -4.4740   17.4101 C   0  0  0  0  0  0  0  0  0  0  0  0
    6.9051   -7.9575   16.4222 C   0  0  0  0  0  0  0  0  0  0  0  0
    8.9969   -6.3552   17.9668 N   0  0  0  0  0  0  0  0  0  0  0  0
   10.6702   -3.9051   22.4070 C   0  0  0  0  0  0  0  0  0  0  0  0
   11.0625   -3.0028   18.8894 C   0  0  0  0  0  0  0  0  0  0  0  0
    5.6180   -7.9194   16.1754 O   0  0  0  0  0  0  0  0  0  0  0  0
    9.7259   -5.3080   18.4485 C   0  0  0  0  0  0  0  0  0  0  0  0
    9.4578   -5.0200   16.3036 N   0  0  0  0  0  0  0  0  0  0  0  0
    5.0287   -8.9365   16.8223 C   0  0  0  0  0  0  0  0  0  0  0  0
    8.7742   -6.1498   16.6764 C   0  0  0  0  0  0  0  0  0  0  0  0
   10.9418   -3.4032   21.2053 O   0  0  0  0  0  0  0  0  0  0  0  0
    1.4797   -8.6258   16.2950 C   0  0  0  0  0  0  0  0  0  0  0  0
    9.2861   -1.2743   25.3585 C   0  0  0  0  0  0  0  0  0  0  0  0
    1.8892  -10.3985   17.7511 N   0  0  0  0  0  0  0  0  0  0  0  0
    9.6210   -0.6952   24.0976 C   0  0  0  0  0  0  0  0  0  0  0  0
    7.0792   -9.0217   17.1429 C   0  0  0  0  0  0  0  0  0  0  0  0
    3.1713  -10.1816   17.6634 C   0  0  0  0  0  0  0  0  0  0  0  0
    2.7878   -8.3822   16.2137 C   0  0  0  0  0  0  0  0  0  0  0  0
    9.4601   -2.6590   25.6528 C   0  0  0  0  0  0  0  0  0  0  0  0
   10.1182   -1.5672   23.1165 C   0  0  0  0  0  0  0  0  0  0  0  0
    1.0552   -9.6360   17.0650 C   0  0  0  0  0  0  0  0  0  0  0  0
    3.6519   -9.1783   16.9039 C   0  0  0  0  0  0  0  0  0  0  0  0
    7.8675   -7.0096   15.9415 C   0  0  0  0  0  0  0  0  0  0  0  0
    5.9733   -9.6553   17.3832 N   0  0  0  0  0  0  0  0  0  0  0  0
   10.2411   -2.9363   23.4301 C   0  0  0  0  0  0  0  0  0  0  0  0
   10.7288   -3.8197   19.9525 C   0  0  0  0  0  0  0  0  0  0  0  0
   10.1189   -5.0054   19.6987 C   0  0  0  0  0  0  0  0  0  0  0  0
  1  3  4  0
  1  7  4  0
  2 21  4  0
  2 27  4  0
  3  9  4  0
  3 10  4  0
  4  8  4  0
  4 18  4  0
  4 25  1  0
  5  9  4  0
  5 12  4  0
  6 13  1  0
  6 27  1  0
  7 28  4  0
  8 11  4  0
  9 29  4  0
 10 12  4  0
 11 24  1  0
 11 26  4  0
 12 25  1  0
 13 28  1  0
 14 20  4  0
 14 23  4  0
 15 17  4  0
 15 21  4  0
 16 19  4  0
 16 23  4  0
 17 22  4  0
 18 26  4  0
 19 24  4  0
 20 24  4  0
 22 27  4  0
 28 29  4  0
M  END
$$$$

 Created by Python create_sdf_string function

 29 33  0  0  0  0  0  0  0  0999 V2000
   10.7215   -3.3326   17.6437 C   0  0  0  0  0  0  0  0  0  0  0  0
    9.9489   -3.4675   24.6487 N   0  0  0  0  0  0  0  0  0  0  0  0
   10.0172   -4.4740   17.4101 C   0  0  0  0  0  0  0  0  0  0  0  0
    6.9051   -7.9575   16.4222 C   0  0  0  0  0  0  0  0  0  0  0  0
    8.9969   -6.3552   17.9668 N   0  0  0  0  0  0  0  0  0  0  0  0
   10.6702   -3.9051   22.4070 C   0  0  0  0  0  0  0  0  0  0  0  0
   11.0625   -3.0028   18.8894 C   0  0  0  0  0  0  0  0  0  0  0  0
    5.6180   -7.9194   16.1754 O   0  0  0  0  0  0  0  0  0  0  0  0
    9.7259   -5.3080   18.4485 C   0  0  0  0  0  0  0  0  0  0  0  0
    9.4578   -5.0200   16.3036 N   0  0  0  0  0  0  0  0  0  0  0  0
    5.0287   -8.9365   16.8223 C   0  0  0  0  0  0  0  0  0  0  0  0
    8.7742   -6.1498   16.6764 C   0  0  0  0  0  0  0  0  0  0  0  0
   10.9418   -3.4032   21.2053 O   0  0  0  0  0  0  0  0  0  0  0  0
    1.4797   -8.6258   16.2950 C   0  0  0  0  0  0  0  0  0  0  0  0
    9.2861   -1.2743   25.3585 C   0  0  0  0  0  0  0  0  0  0  0  0
    1.8892  -10.3985   17.7511 N   0  0  0  0  0  0  0  0  0  0  0  0
    9.6210   -0.6952   24.0976 C   0  0  0  0  0  0  0  0  0  0  0  0
    7.0792   -9.0217   17.1429 C   0  0  0  0  0  0  0  0  0  0  0  0
    3.1713  -10.1816   17.6634 C   0  0  0  0  0  0  0  0  0  0  0  0
    2.7878   -8.3822   16.2137 C   0  0  0  0  0  0  0  0  0  0  0  0
    9.4601   -2.6590   25.6528 C   0  0  0  0  0  0  0  0  0  0  0  0
   10.1182   -1.5672   23.1165 C   0  0  0  0  0  0  0  0  0  0  0  0
    1.0552   -9.6360   17.0650 C   0  0  0  0  0  0  0  0  0  0  0  0
    3.6519   -9.1783   16.9039 C   0  0  0  0  0  0  0  0  0  0  0  0
    7.8675   -7.0096   15.9415 C   0  0  0  0  0  0  0  0  0  0  0  0
    5.9733   -9.6553   17.3832 N   0  0  0  0  0  0  0  0  0  0  0  0
   10.2411   -2.9363   23.4301 C   0  0  0  0  0  0  0  0  0  0  0  0
   10.7288   -3.8197   19.9525 C   0  0  0  0  0  0  0  0  0  0  0  0
   10.1189   -5.0054   19.6987 C   0  0  0  0  0  0  0  0  0  0  0  0
  1  3  4  0
  1  7  4  0
  2 21  4  0
  2 27  4  0
  3  9  4  0
  3 10  4  0
  4  8  4  0
  4 18  4  0
  4 25  1  0
  5  9  4  0
  5 12  4  0
  6 13  1  0
  6 27  1  0
  7 28  4  0
  8 11  4  0
  9 29  4  0
 10 12  4  0
 11 24  1  0
 11 26  4  0
 12 25  1  0
 13 28  1  0
 14 20  4  0
 14 23  4  0
 15 17  4  0
 15 21  4  0
 16 19  4  0
 16 23  4  0
 17 22  4  0
 18 26  4  0
 19 24  4  0
 20 24  4  0
 22 27  4  0
 28 29  4  0
M  END
$$$$

 Created by Python create_sdf_string function

 29 33  0  0  0  0  0  0  0  0999 V2000
   10.7215   -3.3326   17.6437 C   0  0  0  0  0  0  0  0  0  0  0  0
    9.9489   -3.4675   24.6487 N   0  0  0  0  0  0  0  0  0  0  0  0
   10.0172   -4.4740   17.4101 C   0  0  0  0  0  0  0  0  0  0  0  0
    6.9051   -7.9575   16.4222 C   0  0  0  0  0  0  0  0  0  0  0  0
    8.9969   -6.3552   17.9668 N   0  0  0  0  0  0  0  0  0  0  0  0
   10.6702   -3.9051   22.4070 C   0  0  0  0  0  0  0  0  0  0  0  0
   11.0625   -3.0028   18.8894 C   0  0  0  0  0  0  0  0  0  0  0  0
    5.6180   -7.9194   16.1754 O   0  0  0  0  0  0  0  0  0  0  0  0
    9.7259   -5.3080   18.4485 C   0  0  0  0  0  0  0  0  0  0  0  0
    9.4578   -5.0200   16.3036 N   0  0  0  0  0  0  0  0  0  0  0  0
    5.0287   -8.9365   16.8223 C   0  0  0  0  0  0  0  0  0  0  0  0
    8.7742   -6.1498   16.6764 C   0  0  0  0  0  0  0  0  0  0  0  0
   10.9418   -3.4032   21.2053 O   0  0  0  0  0  0  0  0  0  0  0  0
    1.4797   -8.6258   16.2950 C   0  0  0  0  0  0  0  0  0  0  0  0
    9.2861   -1.2743   25.3585 C   0  0  0  0  0  0  0  0  0  0  0  0
    1.8892  -10.3985   17.7511 N   0  0  0  0  0  0  0  0  0  0  0  0
    9.6210   -0.6952   24.0976 C   0  0  0  0  0  0  0  0  0  0  0  0
    7.0792   -9.0217   17.1429 C   0  0  0  0  0  0  0  0  0  0  0  0
    3.1713  -10.1816   17.6634 C   0  0  0  0  0  0  0  0  0  0  0  0
    2.7878   -8.3822   16.2137 C   0  0  0  0  0  0  0  0  0  0  0  0
    9.4601   -2.6590   25.6528 C   0  0  0  0  0  0  0  0  0  0  0  0
   10.1182   -1.5672   23.1165 C   0  0  0  0  0  0  0  0  0  0  0  0
    1.0552   -9.6360   17.0650 C   0  0  0  0  0  0  0  0  0  0  0  0
    3.6519   -9.1783   16.9039 C   0  0  0  0  0  0  0  0  0  0  0  0
    7.8675   -7.0096   15.9415 C   0  0  0  0  0  0  0  0  0  0  0  0
    5.9733   -9.6553   17.3832 N   0  0  0  0  0  0  0  0  0  0  0  0
   10.2411   -2.9363   23.4301 C   0  0  0  0  0  0  0  0  0  0  0  0
   10.7288   -3.8197   19.9525 C   0  0  0  0  0  0  0  0  0  0  0  0
   10.1189   -5.0054   19.6987 C   0  0  0  0  0  0  0  0  0  0  0  0
  1  3  4  0
  1  7  4  0
  2 21  4  0
  2 27  4  0
  3  9  4  0
  3 10  4  0
  4  8  4  0
  4 18  4  0
  4 25  1  0
  5  9  4  0
  5 12  4  0
  6 13  1  0
  6 27  1  0
  7 28  4  0
  8 11  4  0
  9 29  4  0
 10 12  4  0
 11 24  1  0
 11 26  4  0
 12 25  1  0
 13 28  1  0
 14 20  4  0
 14 23  4  0
 15 17  4  0
 15 21  4  0
 16 19  4  0
 16 23  4  0
 17 22  4  0
 18 26  4  0
 19 24  4  0
 20 24  4  0
 22 27  4  0
 28 29  4  0
M  END
$$$$

 Created by Python create_sdf_string function

 29 33  0  0  0  0  0  0  0  0999 V2000
   10.7215   -3.3326   17.6437 C   0  0  0  0  0  0  0  0  0  0  0  0
    9.9489   -3.4675   24.6487 N   0  0  0  0  0  0  0  0  0  0  0  0
   10.0172   -4.4740   17.4101 C   0  0  0  0  0  0  0  0  0  0  0  0
    6.9051   -7.9575   16.4222 C   0  0  0  0  0  0  0  0  0  0  0  0
    8.9969   -6.3552   17.9668 N   0  0  0  0  0  0  0  0  0  0  0  0
   10.6702   -3.9051   22.4070 C   0  0  0  0  0  0  0  0  0  0  0  0
   11.0625   -3.0028   18.8894 C   0  0  0  0  0  0  0  0  0  0  0  0
    5.6180   -7.9194   16.1754 O   0  0  0  0  0  0  0  0  0  0  0  0
    9.7259   -5.3080   18.4485 C   0  0  0  0  0  0  0  0  0  0  0  0
    9.4578   -5.0200   16.3036 N   0  0  0  0  0  0  0  0  0  0  0  0
    5.0287   -8.9365   16.8223 C   0  0  0  0  0  0  0  0  0  0  0  0
    8.7742   -6.1498   16.6764 C   0  0  0  0  0  0  0  0  0  0  0  0
   10.9418   -3.4032   21.2053 O   0  0  0  0  0  0  0  0  0  0  0  0
    1.4797   -8.6258   16.2950 C   0  0  0  0  0  0  0  0  0  0  0  0
    9.2861   -1.2743   25.3585 C   0  0  0  0  0  0  0  0  0  0  0  0
    1.8892  -10.3985   17.7511 N   0  0  0  0  0  0  0  0  0  0  0  0
    9.6210   -0.6952   24.0976 C   0  0  0  0  0  0  0  0  0  0  0  0
    7.0792   -9.0217   17.1429 C   0  0  0  0  0  0  0  0  0  0  0  0
    3.1713  -10.1816   17.6634 C   0  0  0  0  0  0  0  0  0  0  0  0
    2.7878   -8.3822   16.2137 C   0  0  0  0  0  0  0  0  0  0  0  0
    9.4601   -2.6590   25.6528 C   0  0  0  0  0  0  0  0  0  0  0  0
   10.1182   -1.5672   23.1165 C   0  0  0  0  0  0  0  0  0  0  0  0
    1.0552   -9.6360   17.0650 C   0  0  0  0  0  0  0  0  0  0  0  0
    3.6519   -9.1783   16.9039 C   0  0  0  0  0  0  0  0  0  0  0  0
    7.8675   -7.0096   15.9415 C   0  0  0  0  0  0  0  0  0  0  0  0
    5.9733   -9.6553   17.3832 N   0  0  0  0  0  0  0  0  0  0  0  0
   10.2411   -2.9363   23.4301 C   0  0  0  0  0  0  0  0  0  0  0  0
   10.7288   -3.8197   19.9525 C   0  0  0  0  0  0  0  0  0  0  0  0
   10.1189   -5.0054   19.6987 C   0  0  0  0  0  0  0  0  0  0  0  0
  1  3  4  0
  1  7  4  0
  2 21  4  0
  2 27  4  0
  3  9  4  0
  3 10  4  0
  4  8  4  0
  4 18  4  0
  4 25  1  0
  5  9  4  0
  5 12  4  0
  6 13  1  0
  6 27  1  0
  7 28  4  0
  8 11  4  0
  9 29  4  0
 10 12  4  0
 11 24  1  0
 11 26  4  0
 12 25  1  0
 13 28  1  0
 14 20  4  0
 14 23  4  0
 15 17  4  0
 15 21  4  0
 16 19  4  0
 16 23  4  0
 17 22  4  0
 18 26  4  0
 19 24  4  0
 20 24  4  0
 22 27  4  0
 28 29  4  0
M  END
$$$$

 Created by Python create_sdf_string function

 29 33  0  0  0  0  0  0  0  0999 V2000
   10.7215   -3.3326   17.6437 C   0  0  0  0  0  0  0  0  0  0  0  0
    9.9489   -3.4675   24.6487 N   0  0  0  0  0  0  0  0  0  0  0  0
   10.0172   -4.4740   17.4101 C   0  0  0  0  0  0  0  0  0  0  0  0
    6.9051   -7.9575   16.4222 C   0  0  0  0  0  0  0  0  0  0  0  0
    8.9969   -6.3552   17.9668 N   0  0  0  0  0  0  0  0  0  0  0  0
   10.6702   -3.9051   22.4070 C   0  0  0  0  0  0  0  0  0  0  0  0
   11.0625   -3.0028   18.8894 C   0  0  0  0  0  0  0  0  0  0  0  0
    5.6180   -7.9194   16.1754 O   0  0  0  0  0  0  0  0  0  0  0  0
    9.7259   -5.3080   18.4485 C   0  0  0  0  0  0  0  0  0  0  0  0
    9.4578   -5.0200   16.3036 N   0  0  0  0  0  0  0  0  0  0  0  0
    5.0287   -8.9365   16.8223 C   0  0  0  0  0  0  0  0  0  0  0  0
    8.7742   -6.1498   16.6764 C   0  0  0  0  0  0  0  0  0  0  0  0
   10.9418   -3.4032   21.2053 O   0  0  0  0  0  0  0  0  0  0  0  0
    1.4797   -8.6258   16.2950 C   0  0  0  0  0  0  0  0  0  0  0  0
    9.2861   -1.2743   25.3585 C   0  0  0  0  0  0  0  0  0  0  0  0
    1.8892  -10.3985   17.7511 N   0  0  0  0  0  0  0  0  0  0  0  0
    9.6210   -0.6952   24.0976 C   0  0  0  0  0  0  0  0  0  0  0  0
    7.0792   -9.0217   17.1429 C   0  0  0  0  0  0  0  0  0  0  0  0
    3.1713  -10.1816   17.6634 C   0  0  0  0  0  0  0  0  0  0  0  0
    2.7878   -8.3822   16.2137 C   0  0  0  0  0  0  0  0  0  0  0  0
    9.4601   -2.6590   25.6528 C   0  0  0  0  0  0  0  0  0  0  0  0
   10.1182   -1.5672   23.1165 C   0  0  0  0  0  0  0  0  0  0  0  0
    1.0552   -9.6360   17.0650 C   0  0  0  0  0  0  0  0  0  0  0  0
    3.6519   -9.1783   16.9039 C   0  0  0  0  0  0  0  0  0  0  0  0
    7.8675   -7.0096   15.9415 C   0  0  0  0  0  0  0  0  0  0  0  0
    5.9733   -9.6553   17.3832 N   0  0  0  0  0  0  0  0  0  0  0  0
   10.2411   -2.9363   23.4301 C   0  0  0  0  0  0  0  0  0  0  0  0
   10.7288   -3.8197   19.9525 C   0  0  0  0  0  0  0  0  0  0  0  0
   10.1189   -5.0054   19.6987 C   0  0  0  0  0  0  0  0  0  0  0  0
  1  3  4  0
  1  7  4  0
  2 21  4  0
  2 27  4  0
  3  9  4  0
  3 10  4  0
  4  8  4  0
  4 18  4  0
  4 25  1  0
  5  9  4  0
  5 12  4  0
  6 13  1  0
  6 27  1  0
  7 28  4  0
  8 11  4  0
  9 29  4  0
 10 12  4  0
 11 24  1  0
 11 26  4  0
 12 25  1  0
 13 28  1  0
 14 20  4  0
 14 23  4  0
 15 17  4  0
 15 21  4  0
 16 19  4  0
 16 23  4  0
 17 22  4  0
 18 26  4  0
 19 24  4  0
 20 24  4  0
 22 27  4  0
 28 29  4  0
M  END
$$$$

 Created by Python create_sdf_string function

 29 33  0  0  0  0  0  0  0  0999 V2000
   10.7215   -3.3326   17.6437 C   0  0  0  0  0  0  0  0  0  0  0  0
    9.9489   -3.4675   24.6487 N   0  0  0  0  0  0  0  0  0  0  0  0
   10.0172   -4.4740   17.4101 C   0  0  0  0  0  0  0  0  0  0  0  0
    6.9051   -7.9575   16.4222 C   0  0  0  0  0  0  0  0  0  0  0  0
    8.9969   -6.3552   17.9668 N   0  0  0  0  0  0  0  0  0  0  0  0
   10.6702   -3.9051   22.4070 C   0  0  0  0  0  0  0  0  0  0  0  0
   11.0625   -3.0028   18.8894 C   0  0  0  0  0  0  0  0  0  0  0  0
    5.6180   -7.9194   16.1754 O   0  0  0  0  0  0  0  0  0  0  0  0
    9.7259   -5.3080   18.4485 C   0  0  0  0  0  0  0  0  0  0  0  0
    9.4578   -5.0200   16.3036 N   0  0  0  0  0  0  0  0  0  0  0  0
    5.0287   -8.9365   16.8223 C   0  0  0  0  0  0  0  0  0  0  0  0
    8.7742   -6.1498   16.6764 C   0  0  0  0  0  0  0  0  0  0  0  0
   10.9418   -3.4032   21.2053 O   0  0  0  0  0  0  0  0  0  0  0  0
    1.4797   -8.6258   16.2950 C   0  0  0  0  0  0  0  0  0  0  0  0
    9.2861   -1.2743   25.3585 C   0  0  0  0  0  0  0  0  0  0  0  0
    1.8892  -10.3985   17.7511 N   0  0  0  0  0  0  0  0  0  0  0  0
    9.6210   -0.6952   24.0976 C   0  0  0  0  0  0  0  0  0  0  0  0
    7.0792   -9.0217   17.1429 C   0  0  0  0  0  0  0  0  0  0  0  0
    3.1713  -10.1816   17.6634 C   0  0  0  0  0  0  0  0  0  0  0  0
    2.7878   -8.3822   16.2137 C   0  0  0  0  0  0  0  0  0  0  0  0
    9.4601   -2.6590   25.6528 C   0  0  0  0  0  0  0  0  0  0  0  0
   10.1182   -1.5672   23.1165 C   0  0  0  0  0  0  0  0  0  0  0  0
    1.0552   -9.6360   17.0650 C   0  0  0  0  0  0  0  0  0  0  0  0
    3.6519   -9.1783   16.9039 C   0  0  0  0  0  0  0  0  0  0  0  0
    7.8675   -7.0096   15.9415 C   0  0  0  0  0  0  0  0  0  0  0  0
    5.9733   -9.6553   17.3832 N   0  0  0  0  0  0  0  0  0  0  0  0
   10.2411   -2.9363   23.4301 C   0  0  0  0  0  0  0  0  0  0  0  0
   10.7288   -3.8197   19.9525 C   0  0  0  0  0  0  0  0  0  0  0  0
   10.1189   -5.0054   19.6987 C   0  0  0  0  0  0  0  0  0  0  0  0
  1  3  4  0
  1  7  4  0
  2 21  4  0
  2 27  4  0
  3  9  4  0
  3 10  4  0
  4  8  4  0
  4 18  4  0
  4 25  1  0
  5  9  4  0
  5 12  4  0
  6 13  1  0
  6 27  1  0
  7 28  4  0
  8 11  4  0
  9 29  4  0
 10 12  4  0
 11 24  1  0
 11 26  4  0
 12 25  1  0
 13 28  1  0
 14 20  4  0
 14 23  4  0
 15 17  4  0
 15 21  4  0
 16 19  4  0
 16 23  4  0
 17 22  4  0
 18 26  4  0
 19 24  4  0
 20 24  4  0
 22 27  4  0
 28 29  4  0
M  END
$$$$

 Created by Python create_sdf_string function

 29 33  0  0  0  0  0  0  0  0999 V2000
   10.7215   -3.3326   17.6437 C   0  0  0  0  0  0  0  0  0  0  0  0
    9.9489   -3.4675   24.6487 N   0  0  0  0  0  0  0  0  0  0  0  0
   10.0172   -4.4740   17.4101 C   0  0  0  0  0  0  0  0  0  0  0  0
    6.9051   -7.9575   16.4222 C   0  0  0  0  0  0  0  0  0  0  0  0
    8.9969   -6.3552   17.9668 N   0  0  0  0  0  0  0  0  0  0  0  0
   10.6702   -3.9051   22.4070 C   0  0  0  0  0  0  0  0  0  0  0  0
   11.0625   -3.0028   18.8894 C   0  0  0  0  0  0  0  0  0  0  0  0
    5.6180   -7.9194   16.1754 O   0  0  0  0  0  0  0  0  0  0  0  0
    9.7259   -5.3080   18.4485 C   0  0  0  0  0  0  0  0  0  0  0  0
    9.4578   -5.0200   16.3036 N   0  0  0  0  0  0  0  0  0  0  0  0
    5.0287   -8.9365   16.8223 C   0  0  0  0  0  0  0  0  0  0  0  0
    8.7742   -6.1498   16.6764 C   0  0  0  0  0  0  0  0  0  0  0  0
   10.9418   -3.4032   21.2053 O   0  0  0  0  0  0  0  0  0  0  0  0
    1.4797   -8.6258   16.2950 C   0  0  0  0  0  0  0  0  0  0  0  0
    9.2861   -1.2743   25.3585 C   0  0  0  0  0  0  0  0  0  0  0  0
    1.8892  -10.3985   17.7511 N   0  0  0  0  0  0  0  0  0  0  0  0
    9.6210   -0.6952   24.0976 C   0  0  0  0  0  0  0  0  0  0  0  0
    7.0792   -9.0217   17.1429 C   0  0  0  0  0  0  0  0  0  0  0  0
    3.1713  -10.1816   17.6634 C   0  0  0  0  0  0  0  0  0  0  0  0
    2.7878   -8.3822   16.2137 C   0  0  0  0  0  0  0  0  0  0  0  0
    9.4601   -2.6590   25.6528 C   0  0  0  0  0  0  0  0  0  0  0  0
   10.1182   -1.5672   23.1165 C   0  0  0  0  0  0  0  0  0  0  0  0
    1.0552   -9.6360   17.0650 C   0  0  0  0  0  0  0  0  0  0  0  0
    3.6519   -9.1783   16.9039 C   0  0  0  0  0  0  0  0  0  0  0  0
    7.8675   -7.0096   15.9415 C   0  0  0  0  0  0  0  0  0  0  0  0
    5.9733   -9.6553   17.3832 N   0  0  0  0  0  0  0  0  0  0  0  0
   10.2411   -2.9363   23.4301 C   0  0  0  0  0  0  0  0  0  0  0  0
   10.7288   -3.8197   19.9525 C   0  0  0  0  0  0  0  0  0  0  0  0
   10.1189   -5.0054   19.6987 C   0  0  0  0  0  0  0  0  0  0  0  0
  1  3  4  0
  1  7  4  0
  2 21  4  0
  2 27  4  0
  3  9  4  0
  3 10  4  0
  4  8  4  0
  4 18  4  0
  4 25  1  0
  5  9  4  0
  5 12  4  0
  6 13  1  0
  6 27  1  0
  7 28  4  0
  8 11  4  0
  9 29  4  0
 10 12  4  0
 11 24  1  0
 11 26  4  0
 12 25  1  0
 13 28  1  0
 14 20  4  0
 14 23  4  0
 15 17  4  0
 15 21  4  0
 16 19  4  0
 16 23  4  0
 17 22  4  0
 18 26  4  0
 19 24  4  0
 20 24  4  0
 22 27  4  0
 28 29  4  0
M  END
$$$$

 Created by Python create_sdf_string function

 29 33  0  0  0  0  0  0  0  0999 V2000
   10.7215   -3.3326   17.6437 C   0  0  0  0  0  0  0  0  0  0  0  0
    9.9489   -3.4675   24.6487 N   0  0  0  0  0  0  0  0  0  0  0  0
   10.0172   -4.4740   17.4101 C   0  0  0  0  0  0  0  0  0  0  0  0
    6.9051   -7.9575   16.4222 C   0  0  0  0  0  0  0  0  0  0  0  0
    8.9969   -6.3552   17.9668 N   0  0  0  0  0  0  0  0  0  0  0  0
   10.6702   -3.9051   22.4070 C   0  0  0  0  0  0  0  0  0  0  0  0
   11.0625   -3.0028   18.8894 C   0  0  0  0  0  0  0  0  0  0  0  0
    5.6180   -7.9194   16.1754 O   0  0  0  0  0  0  0  0  0  0  0  0
    9.7259   -5.3080   18.4485 C   0  0  0  0  0  0  0  0  0  0  0  0
    9.4578   -5.0200   16.3036 N   0  0  0  0  0  0  0  0  0  0  0  0
    5.0287   -8.9365   16.8223 C   0  0  0  0  0  0  0  0  0  0  0  0
    8.7742   -6.1498   16.6764 C   0  0  0  0  0  0  0  0  0  0  0  0
   10.9418   -3.4032   21.2053 O   0  0  0  0  0  0  0  0  0  0  0  0
    1.4797   -8.6258   16.2950 C   0  0  0  0  0  0  0  0  0  0  0  0
    9.2861   -1.2743   25.3585 C   0  0  0  0  0  0  0  0  0  0  0  0
    1.8892  -10.3985   17.7511 N   0  0  0  0  0  0  0  0  0  0  0  0
    9.6210   -0.6952   24.0976 C   0  0  0  0  0  0  0  0  0  0  0  0
    7.0792   -9.0217   17.1429 C   0  0  0  0  0  0  0  0  0  0  0  0
    3.1713  -10.1816   17.6634 C   0  0  0  0  0  0  0  0  0  0  0  0
    2.7878   -8.3822   16.2137 C   0  0  0  0  0  0  0  0  0  0  0  0
    9.4601   -2.6590   25.6528 C   0  0  0  0  0  0  0  0  0  0  0  0
   10.1182   -1.5672   23.1165 C   0  0  0  0  0  0  0  0  0  0  0  0
    1.0552   -9.6360   17.0650 C   0  0  0  0  0  0  0  0  0  0  0  0
    3.6519   -9.1783   16.9039 C   0  0  0  0  0  0  0  0  0  0  0  0
    7.8675   -7.0096   15.9415 C   0  0  0  0  0  0  0  0  0  0  0  0
    5.9733   -9.6553   17.3832 N   0  0  0  0  0  0  0  0  0  0  0  0
   10.2411   -2.9363   23.4301 C   0  0  0  0  0  0  0  0  0  0  0  0
   10.7288   -3.8197   19.9525 C   0  0  0  0  0  0  0  0  0  0  0  0
   10.1189   -5.0054   19.6987 C   0  0  0  0  0  0  0  0  0  0  0  0
  1  3  4  0
  1  7  4  0
  2 21  4  0
  2 27  4  0
  3  9  4  0
  3 10  4  0
  4  8  4  0
  4 18  4  0
  4 25  1  0
  5  9  4  0
  5 12  4  0
  6 13  1  0
  6 27  1  0
  7 28  4  0
  8 11  4  0
  9 29  4  0
 10 12  4  0
 11 24  1  0
 11 26  4  0
 12 25  1  0
 13 28  1  0
 14 20  4  0
 14 23  4  0
 15 17  4  0
 15 21  4  0
 16 19  4  0
 16 23  4  0
 17 22  4  0
 18 26  4  0
 19 24  4  0
 20 24  4  0
 22 27  4  0
 28 29  4  0
M  END
$$$$

 Created by Python create_sdf_string function

 29 33  0  0  0  0  0  0  0  0999 V2000
   10.7215   -3.3326   17.6437 C   0  0  0  0  0  0  0  0  0  0  0  0
    9.9489   -3.4675   24.6487 N   0  0  0  0  0  0  0  0  0  0  0  0
   10.0172   -4.4740   17.4101 C   0  0  0  0  0  0  0  0  0  0  0  0
    6.9051   -7.9575   16.4222 C   0  0  0  0  0  0  0  0  0  0  0  0
    8.9969   -6.3552   17.9668 N   0  0  0  0  0  0  0  0  0  0  0  0
   10.6702   -3.9051   22.4070 C   0  0  0  0  0  0  0  0  0  0  0  0
   11.0625   -3.0028   18.8894 C   0  0  0  0  0  0  0  0  0  0  0  0
    5.6180   -7.9194   16.1754 O   0  0  0  0  0  0  0  0  0  0  0  0
    9.7259   -5.3080   18.4485 C   0  0  0  0  0  0  0  0  0  0  0  0
    9.4578   -5.0200   16.3036 N   0  0  0  0  0  0  0  0  0  0  0  0
    5.0287   -8.9365   16.8223 C   0  0  0  0  0  0  0  0  0  0  0  0
    8.7742   -6.1498   16.6764 C   0  0  0  0  0  0  0  0  0  0  0  0
   10.9418   -3.4032   21.2053 O   0  0  0  0  0  0  0  0  0  0  0  0
    1.4797   -8.6258   16.2950 C   0  0  0  0  0  0  0  0  0  0  0  0
    9.2861   -1.2743   25.3585 C   0  0  0  0  0  0  0  0  0  0  0  0
    1.8892  -10.3985   17.7511 N   0  0  0  0  0  0  0  0  0  0  0  0
    9.6210   -0.6952   24.0976 C   0  0  0  0  0  0  0  0  0  0  0  0
    7.0792   -9.0217   17.1429 C   0  0  0  0  0  0  0  0  0  0  0  0
    3.1713  -10.1816   17.6634 C   0  0  0  0  0  0  0  0  0  0  0  0
    2.7878   -8.3822   16.2137 C   0  0  0  0  0  0  0  0  0  0  0  0
    9.4601   -2.6590   25.6528 C   0  0  0  0  0  0  0  0  0  0  0  0
   10.1182   -1.5672   23.1165 C   0  0  0  0  0  0  0  0  0  0  0  0
    1.0552   -9.6360   17.0650 C   0  0  0  0  0  0  0  0  0  0  0  0
    3.6519   -9.1783   16.9039 C   0  0  0  0  0  0  0  0  0  0  0  0
    7.8675   -7.0096   15.9415 C   0  0  0  0  0  0  0  0  0  0  0  0
    5.9733   -9.6553   17.3832 N   0  0  0  0  0  0  0  0  0  0  0  0
   10.2411   -2.9363   23.4301 C   0  0  0  0  0  0  0  0  0  0  0  0
   10.7288   -3.8197   19.9525 C   0  0  0  0  0  0  0  0  0  0  0  0
   10.1189   -5.0054   19.6987 C   0  0  0  0  0  0  0  0  0  0  0  0
  1  3  4  0
  1  7  4  0
  2 21  4  0
  2 27  4  0
  3  9  4  0
  3 10  4  0
  4  8  4  0
  4 18  4  0
  4 25  1  0
  5  9  4  0
  5 12  4  0
  6 13  1  0
  6 27  1  0
  7 28  4  0
  8 11  4  0
  9 29  4  0
 10 12  4  0
 11 24  1  0
 11 26  4  0
 12 25  1  0
 13 28  1  0
 14 20  4  0
 14 23  4  0
 15 17  4  0
 15 21  4  0
 16 19  4  0
 16 23  4  0
 17 22  4  0
 18 26  4  0
 19 24  4  0
 20 24  4  0
 22 27  4  0
 28 29  4  0
M  END
$$$$

 Created by Python create_sdf_string function

 29 33  0  0  0  0  0  0  0  0999 V2000
   10.7215   -3.3326   17.6437 C   0  0  0  0  0  0  0  0  0  0  0  0
    9.9489   -3.4675   24.6487 N   0  0  0  0  0  0  0  0  0  0  0  0
   10.0172   -4.4740   17.4101 C   0  0  0  0  0  0  0  0  0  0  0  0
    6.9051   -7.9575   16.4222 C   0  0  0  0  0  0  0  0  0  0  0  0
    8.9969   -6.3552   17.9668 N   0  0  0  0  0  0  0  0  0  0  0  0
   10.6702   -3.9051   22.4070 C   0  0  0  0  0  0  0  0  0  0  0  0
   11.0625   -3.0028   18.8894 C   0  0  0  0  0  0  0  0  0  0  0  0
    5.6180   -7.9194   16.1754 O   0  0  0  0  0  0  0  0  0  0  0  0
    9.7259   -5.3080   18.4485 C   0  0  0  0  0  0  0  0  0  0  0  0
    9.4578   -5.0200   16.3036 N   0  0  0  0  0  0  0  0  0  0  0  0
    5.0287   -8.9365   16.8223 C   0  0  0  0  0  0  0  0  0  0  0  0
    8.7742   -6.1498   16.6764 C   0  0  0  0  0  0  0  0  0  0  0  0
   10.9418   -3.4032   21.2053 O   0  0  0  0  0  0  0  0  0  0  0  0
    1.4797   -8.6258   16.2950 C   0  0  0  0  0  0  0  0  0  0  0  0
    9.2861   -1.2743   25.3585 C   0  0  0  0  0  0  0  0  0  0  0  0
    1.8892  -10.3985   17.7511 N   0  0  0  0  0  0  0  0  0  0  0  0
    9.6210   -0.6952   24.0976 C   0  0  0  0  0  0  0  0  0  0  0  0
    7.0792   -9.0217   17.1429 C   0  0  0  0  0  0  0  0  0  0  0  0
    3.1713  -10.1816   17.6634 C   0  0  0  0  0  0  0  0  0  0  0  0
    2.7878   -8.3822   16.2137 C   0  0  0  0  0  0  0  0  0  0  0  0
    9.4601   -2.6590   25.6528 C   0  0  0  0  0  0  0  0  0  0  0  0
   10.1182   -1.5672   23.1165 C   0  0  0  0  0  0  0  0  0  0  0  0
    1.0552   -9.6360   17.0650 C   0  0  0  0  0  0  0  0  0  0  0  0
    3.6519   -9.1783   16.9039 C   0  0  0  0  0  0  0  0  0  0  0  0
    7.8675   -7.0096   15.9415 C   0  0  0  0  0  0  0  0  0  0  0  0
    5.9733   -9.6553   17.3832 N   0  0  0  0  0  0  0  0  0  0  0  0
   10.2411   -2.9363   23.4301 C   0  0  0  0  0  0  0  0  0  0  0  0
   10.7288   -3.8197   19.9525 C   0  0  0  0  0  0  0  0  0  0  0  0
   10.1189   -5.0054   19.6987 C   0  0  0  0  0  0  0  0  0  0  0  0
  1  3  4  0
  1  7  4  0
  2 21  4  0
  2 27  4  0
  3  9  4  0
  3 10  4  0
  4  8  4  0
  4 18  4  0
  4 25  1  0
  5  9  4  0
  5 12  4  0
  6 13  1  0
  6 27  1  0
  7 28  4  0
  8 11  4  0
  9 29  4  0
 10 12  4  0
 11 24  1  0
 11 26  4  0
 12 25  1  0
 13 28  1  0
 14 20  4  0
 14 23  4  0
 15 17  4  0
 15 21  4  0
 16 19  4  0
 16 23  4  0
 17 22  4  0
 18 26  4  0
 19 24  4  0
 20 24  4  0
 22 27  4  0
 28 29  4  0
M  END
$$$$

 Created by Python create_sdf_string function

 29 33  0  0  0  0  0  0  0  0999 V2000
   10.7215   -3.3326   17.6437 C   0  0  0  0  0  0  0  0  0  0  0  0
    9.9489   -3.4675   24.6487 N   0  0  0  0  0  0  0  0  0  0  0  0
   10.0172   -4.4740   17.4101 C   0  0  0  0  0  0  0  0  0  0  0  0
    6.9051   -7.9575   16.4222 C   0  0  0  0  0  0  0  0  0  0  0  0
    8.9969   -6.3552   17.9668 N   0  0  0  0  0  0  0  0  0  0  0  0
   10.6702   -3.9051   22.4070 C   0  0  0  0  0  0  0  0  0  0  0  0
   11.0625   -3.0028   18.8894 C   0  0  0  0  0  0  0  0  0  0  0  0
    5.6180   -7.9194   16.1754 O   0  0  0  0  0  0  0  0  0  0  0  0
    9.7259   -5.3080   18.4485 C   0  0  0  0  0  0  0  0  0  0  0  0
    9.4578   -5.0200   16.3036 N   0  0  0  0  0  0  0  0  0  0  0  0
    5.0287   -8.9365   16.8223 C   0  0  0  0  0  0  0  0  0  0  0  0
    8.7742   -6.1498   16.6764 C   0  0  0  0  0  0  0  0  0  0  0  0
   10.9418   -3.4032   21.2053 O   0  0  0  0  0  0  0  0  0  0  0  0
    1.4797   -8.6258   16.2950 C   0  0  0  0  0  0  0  0  0  0  0  0
    9.2861   -1.2743   25.3585 C   0  0  0  0  0  0  0  0  0  0  0  0
    1.8892  -10.3985   17.7511 N   0  0  0  0  0  0  0  0  0  0  0  0
    9.6210   -0.6952   24.0976 C   0  0  0  0  0  0  0  0  0  0  0  0
    7.0792   -9.0217   17.1429 C   0  0  0  0  0  0  0  0  0  0  0  0
    3.1713  -10.1816   17.6634 C   0  0  0  0  0  0  0  0  0  0  0  0
    2.7878   -8.3822   16.2137 C   0  0  0  0  0  0  0  0  0  0  0  0
    9.4601   -2.6590   25.6528 C   0  0  0  0  0  0  0  0  0  0  0  0
   10.1182   -1.5672   23.1165 C   0  0  0  0  0  0  0  0  0  0  0  0
    1.0552   -9.6360   17.0650 C   0  0  0  0  0  0  0  0  0  0  0  0
    3.6519   -9.1783   16.9039 C   0  0  0  0  0  0  0  0  0  0  0  0
    7.8675   -7.0096   15.9415 C   0  0  0  0  0  0  0  0  0  0  0  0
    5.9733   -9.6553   17.3832 N   0  0  0  0  0  0  0  0  0  0  0  0
   10.2411   -2.9363   23.4301 C   0  0  0  0  0  0  0  0  0  0  0  0
   10.7288   -3.8197   19.9525 C   0  0  0  0  0  0  0  0  0  0  0  0
   10.1189   -5.0054   19.6987 C   0  0  0  0  0  0  0  0  0  0  0  0
  1  3  4  0
  1  7  4  0
  2 21  4  0
  2 27  4  0
  3  9  4  0
  3 10  4  0
  4  8  4  0
  4 18  4  0
  4 25  1  0
  5  9  4  0
  5 12  4  0
  6 13  1  0
  6 27  1  0
  7 28  4  0
  8 11  4  0
  9 29  4  0
 10 12  4  0
 11 24  1  0
 11 26  4  0
 12 25  1  0
 13 28  1  0
 14 20  4  0
 14 23  4  0
 15 17  4  0
 15 21  4  0
 16 19  4  0
 16 23  4  0
 17 22  4  0
 18 26  4  0
 19 24  4  0
 20 24  4  0
 22 27  4  0
 28 29  4  0
M  END
$$$$

 Created by Python create_sdf_string function

 29 33  0  0  0  0  0  0  0  0999 V2000
   10.7215   -3.3326   17.6437 C   0  0  0  0  0  0  0  0  0  0  0  0
    9.9489   -3.4675   24.6487 N   0  0  0  0  0  0  0  0  0  0  0  0
   10.0172   -4.4740   17.4101 C   0  0  0  0  0  0  0  0  0  0  0  0
    6.9051   -7.9575   16.4222 C   0  0  0  0  0  0  0  0  0  0  0  0
    8.9969   -6.3552   17.9668 N   0  0  0  0  0  0  0  0  0  0  0  0
   10.6702   -3.9051   22.4070 C   0  0  0  0  0  0  0  0  0  0  0  0
   11.0625   -3.0028   18.8894 C   0  0  0  0  0  0  0  0  0  0  0  0
    5.6180   -7.9194   16.1754 O   0  0  0  0  0  0  0  0  0  0  0  0
    9.7259   -5.3080   18.4485 C   0  0  0  0  0  0  0  0  0  0  0  0
    9.4578   -5.0200   16.3036 N   0  0  0  0  0  0  0  0  0  0  0  0
    5.0287   -8.9365   16.8223 C   0  0  0  0  0  0  0  0  0  0  0  0
    8.7742   -6.1498   16.6764 C   0  0  0  0  0  0  0  0  0  0  0  0
   10.9418   -3.4032   21.2053 O   0  0  0  0  0  0  0  0  0  0  0  0
    1.4797   -8.6258   16.2950 C   0  0  0  0  0  0  0  0  0  0  0  0
    9.2861   -1.2743   25.3585 C   0  0  0  0  0  0  0  0  0  0  0  0
    1.8892  -10.3985   17.7511 N   0  0  0  0  0  0  0  0  0  0  0  0
    9.6210   -0.6952   24.0976 C   0  0  0  0  0  0  0  0  0  0  0  0
    7.0792   -9.0217   17.1429 C   0  0  0  0  0  0  0  0  0  0  0  0
    3.1713  -10.1816   17.6634 C   0  0  0  0  0  0  0  0  0  0  0  0
    2.7878   -8.3822   16.2137 C   0  0  0  0  0  0  0  0  0  0  0  0
    9.4601   -2.6590   25.6528 C   0  0  0  0  0  0  0  0  0  0  0  0
   10.1182   -1.5672   23.1165 C   0  0  0  0  0  0  0  0  0  0  0  0
    1.0552   -9.6360   17.0650 C   0  0  0  0  0  0  0  0  0  0  0  0
    3.6519   -9.1783   16.9039 C   0  0  0  0  0  0  0  0  0  0  0  0
    7.8675   -7.0096   15.9415 C   0  0  0  0  0  0  0  0  0  0  0  0
    5.9733   -9.6553   17.3832 N   0  0  0  0  0  0  0  0  0  0  0  0
   10.2411   -2.9363   23.4301 C   0  0  0  0  0  0  0  0  0  0  0  0
   10.7288   -3.8197   19.9525 C   0  0  0  0  0  0  0  0  0  0  0  0
   10.1189   -5.0054   19.6987 C   0  0  0  0  0  0  0  0  0  0  0  0
  1  3  4  0
  1  7  4  0
  2 21  4  0
  2 27  4  0
  3  9  4  0
  3 10  4  0
  4  8  4  0
  4 18  4  0
  4 25  1  0
  5  9  4  0
  5 12  4  0
  6 13  1  0
  6 27  1  0
  7 28  4  0
  8 11  4  0
  9 29  4  0
 10 12  4  0
 11 24  1  0
 11 26  4  0
 12 25  1  0
 13 28  1  0
 14 20  4  0
 14 23  4  0
 15 17  4  0
 15 21  4  0
 16 19  4  0
 16 23  4  0
 17 22  4  0
 18 26  4  0
 19 24  4  0
 20 24  4  0
 22 27  4  0
 28 29  4  0
M  END
$$$$

 Created by Python create_sdf_string function

 29 33  0  0  0  0  0  0  0  0999 V2000
   10.7215   -3.3326   17.6437 C   0  0  0  0  0  0  0  0  0  0  0  0
    9.9489   -3.4675   24.6487 N   0  0  0  0  0  0  0  0  0  0  0  0
   10.0172   -4.4740   17.4101 C   0  0  0  0  0  0  0  0  0  0  0  0
    6.9051   -7.9575   16.4222 C   0  0  0  0  0  0  0  0  0  0  0  0
    8.9969   -6.3552   17.9668 N   0  0  0  0  0  0  0  0  0  0  0  0
   10.6702   -3.9051   22.4070 C   0  0  0  0  0  0  0  0  0  0  0  0
   11.0625   -3.0028   18.8894 C   0  0  0  0  0  0  0  0  0  0  0  0
    5.6180   -7.9194   16.1754 O   0  0  0  0  0  0  0  0  0  0  0  0
    9.7259   -5.3080   18.4485 C   0  0  0  0  0  0  0  0  0  0  0  0
    9.4578   -5.0200   16.3036 N   0  0  0  0  0  0  0  0  0  0  0  0
    5.0287   -8.9365   16.8223 C   0  0  0  0  0  0  0  0  0  0  0  0
    8.7742   -6.1498   16.6764 C   0  0  0  0  0  0  0  0  0  0  0  0
   10.9418   -3.4032   21.2053 O   0  0  0  0  0  0  0  0  0  0  0  0
    1.4797   -8.6258   16.2950 C   0  0  0  0  0  0  0  0  0  0  0  0
    9.2861   -1.2743   25.3585 C   0  0  0  0  0  0  0  0  0  0  0  0
    1.8892  -10.3985   17.7511 N   0  0  0  0  0  0  0  0  0  0  0  0
    9.6210   -0.6952   24.0976 C   0  0  0  0  0  0  0  0  0  0  0  0
    7.0792   -9.0217   17.1429 C   0  0  0  0  0  0  0  0  0  0  0  0
    3.1713  -10.1816   17.6634 C   0  0  0  0  0  0  0  0  0  0  0  0
    2.7878   -8.3822   16.2137 C   0  0  0  0  0  0  0  0  0  0  0  0
    9.4601   -2.6590   25.6528 C   0  0  0  0  0  0  0  0  0  0  0  0
   10.1182   -1.5672   23.1165 C   0  0  0  0  0  0  0  0  0  0  0  0
    1.0552   -9.6360   17.0650 C   0  0  0  0  0  0  0  0  0  0  0  0
    3.6519   -9.1783   16.9039 C   0  0  0  0  0  0  0  0  0  0  0  0
    7.8675   -7.0096   15.9415 C   0  0  0  0  0  0  0  0  0  0  0  0
    5.9733   -9.6553   17.3832 N   0  0  0  0  0  0  0  0  0  0  0  0
   10.2411   -2.9363   23.4301 C   0  0  0  0  0  0  0  0  0  0  0  0
   10.7288   -3.8197   19.9525 C   0  0  0  0  0  0  0  0  0  0  0  0
   10.1189   -5.0054   19.6987 C   0  0  0  0  0  0  0  0  0  0  0  0
  1  3  4  0
  1  7  4  0
  2 21  4  0
  2 27  4  0
  3  9  4  0
  3 10  4  0
  4  8  4  0
  4 18  4  0
  4 25  1  0
  5  9  4  0
  5 12  4  0
  6 13  1  0
  6 27  1  0
  7 28  4  0
  8 11  4  0
  9 29  4  0
 10 12  4  0
 11 24  1  0
 11 26  4  0
 12 25  1  0
 13 28  1  0
 14 20  4  0
 14 23  4  0
 15 17  4  0
 15 21  4  0
 16 19  4  0
 16 23  4  0
 17 22  4  0
 18 26  4  0
 19 24  4  0
 20 24  4  0
 22 27  4  0
 28 29  4  0
M  END
$$$$

 Created by Python create_sdf_string function

 29 33  0  0  0  0  0  0  0  0999 V2000
   10.7215   -3.3326   17.6437 C   0  0  0  0  0  0  0  0  0  0  0  0
    9.9489   -3.4675   24.6487 N   0  0  0  0  0  0  0  0  0  0  0  0
   10.0172   -4.4740   17.4101 C   0  0  0  0  0  0  0  0  0  0  0  0
    6.9051   -7.9575   16.4222 C   0  0  0  0  0  0  0  0  0  0  0  0
    8.9969   -6.3552   17.9668 N   0  0  0  0  0  0  0  0  0  0  0  0
   10.6702   -3.9051   22.4070 C   0  0  0  0  0  0  0  0  0  0  0  0
   11.0625   -3.0028   18.8894 C   0  0  0  0  0  0  0  0  0  0  0  0
    5.6180   -7.9194   16.1754 O   0  0  0  0  0  0  0  0  0  0  0  0
    9.7259   -5.3080   18.4485 C   0  0  0  0  0  0  0  0  0  0  0  0
    9.4578   -5.0200   16.3036 N   0  0  0  0  0  0  0  0  0  0  0  0
    5.0287   -8.9365   16.8223 C   0  0  0  0  0  0  0  0  0  0  0  0
    8.7742   -6.1498   16.6764 C   0  0  0  0  0  0  0  0  0  0  0  0
   10.9418   -3.4032   21.2053 O   0  0  0  0  0  0  0  0  0  0  0  0
    1.4797   -8.6258   16.2950 C   0  0  0  0  0  0  0  0  0  0  0  0
    9.2861   -1.2743   25.3585 C   0  0  0  0  0  0  0  0  0  0  0  0
    1.8892  -10.3985   17.7511 N   0  0  0  0  0  0  0  0  0  0  0  0
    9.6210   -0.6952   24.0976 C   0  0  0  0  0  0  0  0  0  0  0  0
    7.0792   -9.0217   17.1429 C   0  0  0  0  0  0  0  0  0  0  0  0
    3.1713  -10.1816   17.6634 C   0  0  0  0  0  0  0  0  0  0  0  0
    2.7878   -8.3822   16.2137 C   0  0  0  0  0  0  0  0  0  0  0  0
    9.4601   -2.6590   25.6528 C   0  0  0  0  0  0  0  0  0  0  0  0
   10.1182   -1.5672   23.1165 C   0  0  0  0  0  0  0  0  0  0  0  0
    1.0552   -9.6360   17.0650 C   0  0  0  0  0  0  0  0  0  0  0  0
    3.6519   -9.1783   16.9039 C   0  0  0  0  0  0  0  0  0  0  0  0
    7.8675   -7.0096   15.9415 C   0  0  0  0  0  0  0  0  0  0  0  0
    5.9733   -9.6553   17.3832 N   0  0  0  0  0  0  0  0  0  0  0  0
   10.2411   -2.9363   23.4301 C   0  0  0  0  0  0  0  0  0  0  0  0
   10.7288   -3.8197   19.9525 C   0  0  0  0  0  0  0  0  0  0  0  0
   10.1189   -5.0054   19.6987 C   0  0  0  0  0  0  0  0  0  0  0  0
  1  3  4  0
  1  7  4  0
  2 21  4  0
  2 27  4  0
  3  9  4  0
  3 10  4  0
  4  8  4  0
  4 18  4  0
  4 25  1  0
  5  9  4  0
  5 12  4  0
  6 13  1  0
  6 27  1  0
  7 28  4  0
  8 11  4  0
  9 29  4  0
 10 12  4  0
 11 24  1  0
 11 26  4  0
 12 25  1  0
 13 28  1  0
 14 20  4  0
 14 23  4  0
 15 17  4  0
 15 21  4  0
 16 19  4  0
 16 23  4  0
 17 22  4  0
 18 26  4  0
 19 24  4  0
 20 24  4  0
 22 27  4  0
 28 29  4  0
M  END
$$$$

 Created by Python create_sdf_string function

 29 33  0  0  0  0  0  0  0  0999 V2000
   10.7215   -3.3326   17.6437 C   0  0  0  0  0  0  0  0  0  0  0  0
    9.9489   -3.4675   24.6487 N   0  0  0  0  0  0  0  0  0  0  0  0
   10.0172   -4.4740   17.4101 C   0  0  0  0  0  0  0  0  0  0  0  0
    6.9051   -7.9575   16.4222 C   0  0  0  0  0  0  0  0  0  0  0  0
    8.9969   -6.3552   17.9668 N   0  0  0  0  0  0  0  0  0  0  0  0
   10.6702   -3.9051   22.4070 C   0  0  0  0  0  0  0  0  0  0  0  0
   11.0625   -3.0028   18.8894 C   0  0  0  0  0  0  0  0  0  0  0  0
    5.6180   -7.9194   16.1754 O   0  0  0  0  0  0  0  0  0  0  0  0
    9.7259   -5.3080   18.4485 C   0  0  0  0  0  0  0  0  0  0  0  0
    9.4578   -5.0200   16.3036 N   0  0  0  0  0  0  0  0  0  0  0  0
    5.0287   -8.9365   16.8223 C   0  0  0  0  0  0  0  0  0  0  0  0
    8.7742   -6.1498   16.6764 C   0  0  0  0  0  0  0  0  0  0  0  0
   10.9418   -3.4032   21.2053 O   0  0  0  0  0  0  0  0  0  0  0  0
    1.4797   -8.6258   16.2950 C   0  0  0  0  0  0  0  0  0  0  0  0
    9.2861   -1.2743   25.3585 C   0  0  0  0  0  0  0  0  0  0  0  0
    1.8892  -10.3985   17.7511 N   0  0  0  0  0  0  0  0  0  0  0  0
    9.6210   -0.6952   24.0976 C   0  0  0  0  0  0  0  0  0  0  0  0
    7.0792   -9.0217   17.1429 C   0  0  0  0  0  0  0  0  0  0  0  0
    3.1713  -10.1816   17.6634 C   0  0  0  0  0  0  0  0  0  0  0  0
    2.7878   -8.3822   16.2137 C   0  0  0  0  0  0  0  0  0  0  0  0
    9.4601   -2.6590   25.6528 C   0  0  0  0  0  0  0  0  0  0  0  0
   10.1182   -1.5672   23.1165 C   0  0  0  0  0  0  0  0  0  0  0  0
    1.0552   -9.6360   17.0650 C   0  0  0  0  0  0  0  0  0  0  0  0
    3.6519   -9.1783   16.9039 C   0  0  0  0  0  0  0  0  0  0  0  0
    7.8675   -7.0096   15.9415 C   0  0  0  0  0  0  0  0  0  0  0  0
    5.9733   -9.6553   17.3832 N   0  0  0  0  0  0  0  0  0  0  0  0
   10.2411   -2.9363   23.4301 C   0  0  0  0  0  0  0  0  0  0  0  0
   10.7288   -3.8197   19.9525 C   0  0  0  0  0  0  0  0  0  0  0  0
   10.1189   -5.0054   19.6987 C   0  0  0  0  0  0  0  0  0  0  0  0
  1  3  4  0
  1  7  4  0
  2 21  4  0
  2 27  4  0
  3  9  4  0
  3 10  4  0
  4  8  4  0
  4 18  4  0
  4 25  1  0
  5  9  4  0
  5 12  4  0
  6 13  1  0
  6 27  1  0
  7 28  4  0
  8 11  4  0
  9 29  4  0
 10 12  4  0
 11 24  1  0
 11 26  4  0
 12 25  1  0
 13 28  1  0
 14 20  4  0
 14 23  4  0
 15 17  4  0
 15 21  4  0
 16 19  4  0
 16 23  4  0
 17 22  4  0
 18 26  4  0
 19 24  4  0
 20 24  4  0
 22 27  4  0
 28 29  4  0
M  END
$$$$

 Created by Python create_sdf_string function

 29 33  0  0  0  0  0  0  0  0999 V2000
   10.7215   -3.3326   17.6437 C   0  0  0  0  0  0  0  0  0  0  0  0
    9.9489   -3.4675   24.6487 N   0  0  0  0  0  0  0  0  0  0  0  0
   10.0172   -4.4740   17.4101 C   0  0  0  0  0  0  0  0  0  0  0  0
    6.9051   -7.9575   16.4222 C   0  0  0  0  0  0  0  0  0  0  0  0
    8.9969   -6.3552   17.9668 N   0  0  0  0  0  0  0  0  0  0  0  0
   10.6702   -3.9051   22.4070 C   0  0  0  0  0  0  0  0  0  0  0  0
   11.0625   -3.0028   18.8894 C   0  0  0  0  0  0  0  0  0  0  0  0
    5.6180   -7.9194   16.1754 O   0  0  0  0  0  0  0  0  0  0  0  0
    9.7259   -5.3080   18.4485 C   0  0  0  0  0  0  0  0  0  0  0  0
    9.4578   -5.0200   16.3036 N   0  0  0  0  0  0  0  0  0  0  0  0
    5.0287   -8.9365   16.8223 C   0  0  0  0  0  0  0  0  0  0  0  0
    8.7742   -6.1498   16.6764 C   0  0  0  0  0  0  0  0  0  0  0  0
   10.9418   -3.4032   21.2053 O   0  0  0  0  0  0  0  0  0  0  0  0
    1.4797   -8.6258   16.2950 C   0  0  0  0  0  0  0  0  0  0  0  0
    9.2861   -1.2743   25.3585 C   0  0  0  0  0  0  0  0  0  0  0  0
    1.8892  -10.3985   17.7511 N   0  0  0  0  0  0  0  0  0  0  0  0
    9.6210   -0.6952   24.0976 C   0  0  0  0  0  0  0  0  0  0  0  0
    7.0792   -9.0217   17.1429 C   0  0  0  0  0  0  0  0  0  0  0  0
    3.1713  -10.1816   17.6634 C   0  0  0  0  0  0  0  0  0  0  0  0
    2.7878   -8.3822   16.2137 C   0  0  0  0  0  0  0  0  0  0  0  0
    9.4601   -2.6590   25.6528 C   0  0  0  0  0  0  0  0  0  0  0  0
   10.1182   -1.5672   23.1165 C   0  0  0  0  0  0  0  0  0  0  0  0
    1.0552   -9.6360   17.0650 C   0  0  0  0  0  0  0  0  0  0  0  0
    3.6519   -9.1783   16.9039 C   0  0  0  0  0  0  0  0  0  0  0  0
    7.8675   -7.0096   15.9415 C   0  0  0  0  0  0  0  0  0  0  0  0
    5.9733   -9.6553   17.3832 N   0  0  0  0  0  0  0  0  0  0  0  0
   10.2411   -2.9363   23.4301 C   0  0  0  0  0  0  0  0  0  0  0  0
   10.7288   -3.8197   19.9525 C   0  0  0  0  0  0  0  0  0  0  0  0
   10.1189   -5.0054   19.6987 C   0  0  0  0  0  0  0  0  0  0  0  0
  1  3  4  0
  1  7  4  0
  2 21  4  0
  2 27  4  0
  3  9  4  0
  3 10  4  0
  4  8  4  0
  4 18  4  0
  4 25  1  0
  5  9  4  0
  5 12  4  0
  6 13  1  0
  6 27  1  0
  7 28  4  0
  8 11  4  0
  9 29  4  0
 10 12  4  0
 11 24  1  0
 11 26  4  0
 12 25  1  0
 13 28  1  0
 14 20  4  0
 14 23  4  0
 15 17  4  0
 15 21  4  0
 16 19  4  0
 16 23  4  0
 17 22  4  0
 18 26  4  0
 19 24  4  0
 20 24  4  0
 22 27  4  0
 28 29  4  0
M  END
$$$$

 Created by Python create_sdf_string function

 29 33  0  0  0  0  0  0  0  0999 V2000
   10.7215   -3.3326   17.6437 C   0  0  0  0  0  0  0  0  0  0  0  0
    9.9489   -3.4675   24.6487 N   0  0  0  0  0  0  0  0  0  0  0  0
   10.0172   -4.4740   17.4101 C   0  0  0  0  0  0  0  0  0  0  0  0
    6.9051   -7.9575   16.4222 C   0  0  0  0  0  0  0  0  0  0  0  0
    8.9969   -6.3552   17.9668 N   0  0  0  0  0  0  0  0  0  0  0  0
   10.6702   -3.9051   22.4070 C   0  0  0  0  0  0  0  0  0  0  0  0
   11.0625   -3.0028   18.8894 C   0  0  0  0  0  0  0  0  0  0  0  0
    5.6180   -7.9194   16.1754 O   0  0  0  0  0  0  0  0  0  0  0  0
    9.7259   -5.3080   18.4485 C   0  0  0  0  0  0  0  0  0  0  0  0
    9.4578   -5.0200   16.3036 N   0  0  0  0  0  0  0  0  0  0  0  0
    5.0287   -8.9365   16.8223 C   0  0  0  0  0  0  0  0  0  0  0  0
    8.7742   -6.1498   16.6764 C   0  0  0  0  0  0  0  0  0  0  0  0
   10.9418   -3.4032   21.2053 O   0  0  0  0  0  0  0  0  0  0  0  0
    1.4797   -8.6258   16.2950 C   0  0  0  0  0  0  0  0  0  0  0  0
    9.2861   -1.2743   25.3585 C   0  0  0  0  0  0  0  0  0  0  0  0
    1.8892  -10.3985   17.7511 N   0  0  0  0  0  0  0  0  0  0  0  0
    9.6210   -0.6952   24.0976 C   0  0  0  0  0  0  0  0  0  0  0  0
    7.0792   -9.0217   17.1429 C   0  0  0  0  0  0  0  0  0  0  0  0
    3.1713  -10.1816   17.6634 C   0  0  0  0  0  0  0  0  0  0  0  0
    2.7878   -8.3822   16.2137 C   0  0  0  0  0  0  0  0  0  0  0  0
    9.4601   -2.6590   25.6528 C   0  0  0  0  0  0  0  0  0  0  0  0
   10.1182   -1.5672   23.1165 C   0  0  0  0  0  0  0  0  0  0  0  0
    1.0552   -9.6360   17.0650 C   0  0  0  0  0  0  0  0  0  0  0  0
    3.6519   -9.1783   16.9039 C   0  0  0  0  0  0  0  0  0  0  0  0
    7.8675   -7.0096   15.9415 C   0  0  0  0  0  0  0  0  0  0  0  0
    5.9733   -9.6553   17.3832 N   0  0  0  0  0  0  0  0  0  0  0  0
   10.2411   -2.9363   23.4301 C   0  0  0  0  0  0  0  0  0  0  0  0
   10.7288   -3.8197   19.9525 C   0  0  0  0  0  0  0  0  0  0  0  0
   10.1189   -5.0054   19.6987 C   0  0  0  0  0  0  0  0  0  0  0  0
  1  3  4  0
  1  7  4  0
  2 21  4  0
  2 27  4  0
  3  9  4  0
  3 10  4  0
  4  8  4  0
  4 18  4  0
  4 25  1  0
  5  9  4  0
  5 12  4  0
  6 13  1  0
  6 27  1  0
  7 28  4  0
  8 11  4  0
  9 29  4  0
 10 12  4  0
 11 24  1  0
 11 26  4  0
 12 25  1  0
 13 28  1  0
 14 20  4  0
 14 23  4  0
 15 17  4  0
 15 21  4  0
 16 19  4  0
 16 23  4  0
 17 22  4  0
 18 26  4  0
 19 24  4  0
 20 24  4  0
 22 27  4  0
 28 29  4  0
M  END
$$$$

 Created by Python create_sdf_string function

 29 33  0  0  0  0  0  0  0  0999 V2000
   10.7215   -3.3326   17.6437 C   0  0  0  0  0  0  0  0  0  0  0  0
    9.9489   -3.4675   24.6487 N   0  0  0  0  0  0  0  0  0  0  0  0
   10.0172   -4.4740   17.4101 C   0  0  0  0  0  0  0  0  0  0  0  0
    6.9051   -7.9575   16.4222 C   0  0  0  0  0  0  0  0  0  0  0  0
    8.9969   -6.3552   17.9668 N   0  0  0  0  0  0  0  0  0  0  0  0
   10.6702   -3.9051   22.4070 C   0  0  0  0  0  0  0  0  0  0  0  0
   11.0625   -3.0028   18.8894 C   0  0  0  0  0  0  0  0  0  0  0  0
    5.6180   -7.9194   16.1754 O   0  0  0  0  0  0  0  0  0  0  0  0
    9.7259   -5.3080   18.4485 C   0  0  0  0  0  0  0  0  0  0  0  0
    9.4578   -5.0200   16.3036 N   0  0  0  0  0  0  0  0  0  0  0  0
    5.0287   -8.9365   16.8223 C   0  0  0  0  0  0  0  0  0  0  0  0
    8.7742   -6.1498   16.6764 C   0  0  0  0  0  0  0  0  0  0  0  0
   10.9418   -3.4032   21.2053 O   0  0  0  0  0  0  0  0  0  0  0  0
    1.4797   -8.6258   16.2950 C   0  0  0  0  0  0  0  0  0  0  0  0
    9.2861   -1.2743   25.3585 C   0  0  0  0  0  0  0  0  0  0  0  0
    1.8892  -10.3985   17.7511 N   0  0  0  0  0  0  0  0  0  0  0  0
    9.6210   -0.6952   24.0976 C   0  0  0  0  0  0  0  0  0  0  0  0
    7.0792   -9.0217   17.1429 C   0  0  0  0  0  0  0  0  0  0  0  0
    3.1713  -10.1816   17.6634 C   0  0  0  0  0  0  0  0  0  0  0  0
    2.7878   -8.3822   16.2137 C   0  0  0  0  0  0  0  0  0  0  0  0
    9.4601   -2.6590   25.6528 C   0  0  0  0  0  0  0  0  0  0  0  0
   10.1182   -1.5672   23.1165 C   0  0  0  0  0  0  0  0  0  0  0  0
    1.0552   -9.6360   17.0650 C   0  0  0  0  0  0  0  0  0  0  0  0
    3.6519   -9.1783   16.9039 C   0  0  0  0  0  0  0  0  0  0  0  0
    7.8675   -7.0096   15.9415 C   0  0  0  0  0  0  0  0  0  0  0  0
    5.9733   -9.6553   17.3832 N   0  0  0  0  0  0  0  0  0  0  0  0
   10.2411   -2.9363   23.4301 C   0  0  0  0  0  0  0  0  0  0  0  0
   10.7288   -3.8197   19.9525 C   0  0  0  0  0  0  0  0  0  0  0  0
   10.1189   -5.0054   19.6987 C   0  0  0  0  0  0  0  0  0  0  0  0
  1  3  4  0
  1  7  4  0
  2 21  4  0
  2 27  4  0
  3  9  4  0
  3 10  4  0
  4  8  4  0
  4 18  4  0
  4 25  1  0
  5  9  4  0
  5 12  4  0
  6 13  1  0
  6 27  1  0
  7 28  4  0
  8 11  4  0
  9 29  4  0
 10 12  4  0
 11 24  1  0
 11 26  4  0
 12 25  1  0
 13 28  1  0
 14 20  4  0
 14 23  4  0
 15 17  4  0
 15 21  4  0
 16 19  4  0
 16 23  4  0
 17 22  4  0
 18 26  4  0
 19 24  4  0
 20 24  4  0
 22 27  4  0
 28 29  4  0
M  END
$$$$

 Created by Python create_sdf_string function

 29 33  0  0  0  0  0  0  0  0999 V2000
   10.7215   -3.3326   17.6437 C   0  0  0  0  0  0  0  0  0  0  0  0
    9.9489   -3.4675   24.6487 N   0  0  0  0  0  0  0  0  0  0  0  0
   10.0172   -4.4740   17.4101 C   0  0  0  0  0  0  0  0  0  0  0  0
    6.9051   -7.9575   16.4222 C   0  0  0  0  0  0  0  0  0  0  0  0
    8.9969   -6.3552   17.9668 N   0  0  0  0  0  0  0  0  0  0  0  0
   10.6702   -3.9051   22.4070 C   0  0  0  0  0  0  0  0  0  0  0  0
   11.0625   -3.0028   18.8894 C   0  0  0  0  0  0  0  0  0  0  0  0
    5.6180   -7.9194   16.1754 O   0  0  0  0  0  0  0  0  0  0  0  0
    9.7259   -5.3080   18.4485 C   0  0  0  0  0  0  0  0  0  0  0  0
    9.4578   -5.0200   16.3036 N   0  0  0  0  0  0  0  0  0  0  0  0
    5.0287   -8.9365   16.8223 C   0  0  0  0  0  0  0  0  0  0  0  0
    8.7742   -6.1498   16.6764 C   0  0  0  0  0  0  0  0  0  0  0  0
   10.9418   -3.4032   21.2053 O   0  0  0  0  0  0  0  0  0  0  0  0
    1.4797   -8.6258   16.2950 C   0  0  0  0  0  0  0  0  0  0  0  0
    9.2861   -1.2743   25.3585 C   0  0  0  0  0  0  0  0  0  0  0  0
    1.8892  -10.3985   17.7511 N   0  0  0  0  0  0  0  0  0  0  0  0
    9.6210   -0.6952   24.0976 C   0  0  0  0  0  0  0  0  0  0  0  0
    7.0792   -9.0217   17.1429 C   0  0  0  0  0  0  0  0  0  0  0  0
    3.1713  -10.1816   17.6634 C   0  0  0  0  0  0  0  0  0  0  0  0
    2.7878   -8.3822   16.2137 C   0  0  0  0  0  0  0  0  0  0  0  0
    9.4601   -2.6590   25.6528 C   0  0  0  0  0  0  0  0  0  0  0  0
   10.1182   -1.5672   23.1165 C   0  0  0  0  0  0  0  0  0  0  0  0
    1.0552   -9.6360   17.0650 C   0  0  0  0  0  0  0  0  0  0  0  0
    3.6519   -9.1783   16.9039 C   0  0  0  0  0  0  0  0  0  0  0  0
    7.8675   -7.0096   15.9415 C   0  0  0  0  0  0  0  0  0  0  0  0
    5.9733   -9.6553   17.3832 N   0  0  0  0  0  0  0  0  0  0  0  0
   10.2411   -2.9363   23.4301 C   0  0  0  0  0  0  0  0  0  0  0  0
   10.7288   -3.8197   19.9525 C   0  0  0  0  0  0  0  0  0  0  0  0
   10.1189   -5.0054   19.6987 C   0  0  0  0  0  0  0  0  0  0  0  0
  1  3  4  0
  1  7  4  0
  2 21  4  0
  2 27  4  0
  3  9  4  0
  3 10  4  0
  4  8  4  0
  4 18  4  0
  4 25  1  0
  5  9  4  0
  5 12  4  0
  6 13  1  0
  6 27  1  0
  7 28  4  0
  8 11  4  0
  9 29  4  0
 10 12  4  0
 11 24  1  0
 11 26  4  0
 12 25  1  0
 13 28  1  0
 14 20  4  0
 14 23  4  0
 15 17  4  0
 15 21  4  0
 16 19  4  0
 16 23  4  0
 17 22  4  0
 18 26  4  0
 19 24  4  0
 20 24  4  0
 22 27  4  0
 28 29  4  0
M  END
$$$$

 Created by Python create_sdf_string function

 29 33  0  0  0  0  0  0  0  0999 V2000
   10.7215   -3.3326   17.6437 C   0  0  0  0  0  0  0  0  0  0  0  0
    9.9489   -3.4675   24.6487 N   0  0  0  0  0  0  0  0  0  0  0  0
   10.0172   -4.4740   17.4101 C   0  0  0  0  0  0  0  0  0  0  0  0
    6.9051   -7.9575   16.4222 C   0  0  0  0  0  0  0  0  0  0  0  0
    8.9969   -6.3552   17.9668 N   0  0  0  0  0  0  0  0  0  0  0  0
   10.6702   -3.9051   22.4070 C   0  0  0  0  0  0  0  0  0  0  0  0
   11.0625   -3.0028   18.8894 C   0  0  0  0  0  0  0  0  0  0  0  0
    5.6180   -7.9194   16.1754 O   0  0  0  0  0  0  0  0  0  0  0  0
    9.7259   -5.3080   18.4485 C   0  0  0  0  0  0  0  0  0  0  0  0
    9.4578   -5.0200   16.3036 N   0  0  0  0  0  0  0  0  0  0  0  0
    5.0287   -8.9365   16.8223 C   0  0  0  0  0  0  0  0  0  0  0  0
    8.7742   -6.1498   16.6764 C   0  0  0  0  0  0  0  0  0  0  0  0
   10.9418   -3.4032   21.2053 O   0  0  0  0  0  0  0  0  0  0  0  0
    1.4797   -8.6258   16.2950 C   0  0  0  0  0  0  0  0  0  0  0  0
    9.2861   -1.2743   25.3585 C   0  0  0  0  0  0  0  0  0  0  0  0
    1.8892  -10.3985   17.7511 N   0  0  0  0  0  0  0  0  0  0  0  0
    9.6210   -0.6952   24.0976 C   0  0  0  0  0  0  0  0  0  0  0  0
    7.0792   -9.0217   17.1429 C   0  0  0  0  0  0  0  0  0  0  0  0
    3.1713  -10.1816   17.6634 C   0  0  0  0  0  0  0  0  0  0  0  0
    2.7878   -8.3822   16.2137 C   0  0  0  0  0  0  0  0  0  0  0  0
    9.4601   -2.6590   25.6528 C   0  0  0  0  0  0  0  0  0  0  0  0
   10.1182   -1.5672   23.1165 C   0  0  0  0  0  0  0  0  0  0  0  0
    1.0552   -9.6360   17.0650 C   0  0  0  0  0  0  0  0  0  0  0  0
    3.6519   -9.1783   16.9039 C   0  0  0  0  0  0  0  0  0  0  0  0
    7.8675   -7.0096   15.9415 C   0  0  0  0  0  0  0  0  0  0  0  0
    5.9733   -9.6553   17.3832 N   0  0  0  0  0  0  0  0  0  0  0  0
   10.2411   -2.9363   23.4301 C   0  0  0  0  0  0  0  0  0  0  0  0
   10.7288   -3.8197   19.9525 C   0  0  0  0  0  0  0  0  0  0  0  0
   10.1189   -5.0054   19.6987 C   0  0  0  0  0  0  0  0  0  0  0  0
  1  3  4  0
  1  7  4  0
  2 21  4  0
  2 27  4  0
  3  9  4  0
  3 10  4  0
  4  8  4  0
  4 18  4  0
  4 25  1  0
  5  9  4  0
  5 12  4  0
  6 13  1  0
  6 27  1  0
  7 28  4  0
  8 11  4  0
  9 29  4  0
 10 12  4  0
 11 24  1  0
 11 26  4  0
 12 25  1  0
 13 28  1  0
 14 20  4  0
 14 23  4  0
 15 17  4  0
 15 21  4  0
 16 19  4  0
 16 23  4  0
 17 22  4  0
 18 26  4  0
 19 24  4  0
 20 24  4  0
 22 27  4  0
 28 29  4  0
M  END
$$$$

 Created by Python create_sdf_string function

 29 33  0  0  0  0  0  0  0  0999 V2000
   10.7215   -3.3326   17.6437 C   0  0  0  0  0  0  0  0  0  0  0  0
    9.9489   -3.4675   24.6487 N   0  0  0  0  0  0  0  0  0  0  0  0
   10.0172   -4.4740   17.4101 C   0  0  0  0  0  0  0  0  0  0  0  0
    6.9051   -7.9575   16.4222 C   0  0  0  0  0  0  0  0  0  0  0  0
    8.9969   -6.3552   17.9668 N   0  0  0  0  0  0  0  0  0  0  0  0
   10.6702   -3.9051   22.4070 C   0  0  0  0  0  0  0  0  0  0  0  0
   11.0625   -3.0028   18.8894 C   0  0  0  0  0  0  0  0  0  0  0  0
    5.6180   -7.9194   16.1754 O   0  0  0  0  0  0  0  0  0  0  0  0
    9.7259   -5.3080   18.4485 C   0  0  0  0  0  0  0  0  0  0  0  0
    9.4578   -5.0200   16.3036 N   0  0  0  0  0  0  0  0  0  0  0  0
    5.0287   -8.9365   16.8223 C   0  0  0  0  0  0  0  0  0  0  0  0
    8.7742   -6.1498   16.6764 C   0  0  0  0  0  0  0  0  0  0  0  0
   10.9418   -3.4032   21.2053 O   0  0  0  0  0  0  0  0  0  0  0  0
    1.4797   -8.6258   16.2950 C   0  0  0  0  0  0  0  0  0  0  0  0
    9.2861   -1.2743   25.3585 C   0  0  0  0  0  0  0  0  0  0  0  0
    1.8892  -10.3985   17.7511 N   0  0  0  0  0  0  0  0  0  0  0  0
    9.6210   -0.6952   24.0976 C   0  0  0  0  0  0  0  0  0  0  0  0
    7.0792   -9.0217   17.1429 C   0  0  0  0  0  0  0  0  0  0  0  0
    3.1713  -10.1816   17.6634 C   0  0  0  0  0  0  0  0  0  0  0  0
    2.7878   -8.3822   16.2137 C   0  0  0  0  0  0  0  0  0  0  0  0
    9.4601   -2.6590   25.6528 C   0  0  0  0  0  0  0  0  0  0  0  0
   10.1182   -1.5672   23.1165 C   0  0  0  0  0  0  0  0  0  0  0  0
    1.0552   -9.6360   17.0650 C   0  0  0  0  0  0  0  0  0  0  0  0
    3.6519   -9.1783   16.9039 C   0  0  0  0  0  0  0  0  0  0  0  0
    7.8675   -7.0096   15.9415 C   0  0  0  0  0  0  0  0  0  0  0  0
    5.9733   -9.6553   17.3832 N   0  0  0  0  0  0  0  0  0  0  0  0
   10.2411   -2.9363   23.4301 C   0  0  0  0  0  0  0  0  0  0  0  0
   10.7288   -3.8197   19.9525 C   0  0  0  0  0  0  0  0  0  0  0  0
   10.1189   -5.0054   19.6987 C   0  0  0  0  0  0  0  0  0  0  0  0
  1  3  4  0
  1  7  4  0
  2 21  4  0
  2 27  4  0
  3  9  4  0
  3 10  4  0
  4  8  4  0
  4 18  4  0
  4 25  1  0
  5  9  4  0
  5 12  4  0
  6 13  1  0
  6 27  1  0
  7 28  4  0
  8 11  4  0
  9 29  4  0
 10 12  4  0
 11 24  1  0
 11 26  4  0
 12 25  1  0
 13 28  1  0
 14 20  4  0
 14 23  4  0
 15 17  4  0
 15 21  4  0
 16 19  4  0
 16 23  4  0
 17 22  4  0
 18 26  4  0
 19 24  4  0
 20 24  4  0
 22 27  4  0
 28 29  4  0
M  END
$$$$

 Created by Python create_sdf_string function

 29 33  0  0  0  0  0  0  0  0999 V2000
   10.7215   -3.3326   17.6437 C   0  0  0  0  0  0  0  0  0  0  0  0
    9.9489   -3.4675   24.6487 N   0  0  0  0  0  0  0  0  0  0  0  0
   10.0172   -4.4740   17.4101 C   0  0  0  0  0  0  0  0  0  0  0  0
    6.9051   -7.9575   16.4222 C   0  0  0  0  0  0  0  0  0  0  0  0
    8.9969   -6.3552   17.9668 N   0  0  0  0  0  0  0  0  0  0  0  0
   10.6702   -3.9051   22.4070 C   0  0  0  0  0  0  0  0  0  0  0  0
   11.0625   -3.0028   18.8894 C   0  0  0  0  0  0  0  0  0  0  0  0
    5.6180   -7.9194   16.1754 O   0  0  0  0  0  0  0  0  0  0  0  0
    9.7259   -5.3080   18.4485 C   0  0  0  0  0  0  0  0  0  0  0  0
    9.4578   -5.0200   16.3036 N   0  0  0  0  0  0  0  0  0  0  0  0
    5.0287   -8.9365   16.8223 C   0  0  0  0  0  0  0  0  0  0  0  0
    8.7742   -6.1498   16.6764 C   0  0  0  0  0  0  0  0  0  0  0  0
   10.9418   -3.4032   21.2053 O   0  0  0  0  0  0  0  0  0  0  0  0
    1.4797   -8.6258   16.2950 C   0  0  0  0  0  0  0  0  0  0  0  0
    9.2861   -1.2743   25.3585 C   0  0  0  0  0  0  0  0  0  0  0  0
    1.8892  -10.3985   17.7511 N   0  0  0  0  0  0  0  0  0  0  0  0
    9.6210   -0.6952   24.0976 C   0  0  0  0  0  0  0  0  0  0  0  0
    7.0792   -9.0217   17.1429 C   0  0  0  0  0  0  0  0  0  0  0  0
    3.1713  -10.1816   17.6634 C   0  0  0  0  0  0  0  0  0  0  0  0
    2.7878   -8.3822   16.2137 C   0  0  0  0  0  0  0  0  0  0  0  0
    9.4601   -2.6590   25.6528 C   0  0  0  0  0  0  0  0  0  0  0  0
   10.1182   -1.5672   23.1165 C   0  0  0  0  0  0  0  0  0  0  0  0
    1.0552   -9.6360   17.0650 C   0  0  0  0  0  0  0  0  0  0  0  0
    3.6519   -9.1783   16.9039 C   0  0  0  0  0  0  0  0  0  0  0  0
    7.8675   -7.0096   15.9415 C   0  0  0  0  0  0  0  0  0  0  0  0
    5.9733   -9.6553   17.3832 N   0  0  0  0  0  0  0  0  0  0  0  0
   10.2411   -2.9363   23.4301 C   0  0  0  0  0  0  0  0  0  0  0  0
   10.7288   -3.8197   19.9525 C   0  0  0  0  0  0  0  0  0  0  0  0
   10.1189   -5.0054   19.6987 C   0  0  0  0  0  0  0  0  0  0  0  0
  1  3  4  0
  1  7  4  0
  2 21  4  0
  2 27  4  0
  3  9  4  0
  3 10  4  0
  4  8  4  0
  4 18  4  0
  4 25  1  0
  5  9  4  0
  5 12  4  0
  6 13  1  0
  6 27  1  0
  7 28  4  0
  8 11  4  0
  9 29  4  0
 10 12  4  0
 11 24  1  0
 11 26  4  0
 12 25  1  0
 13 28  1  0
 14 20  4  0
 14 23  4  0
 15 17  4  0
 15 21  4  0
 16 19  4  0
 16 23  4  0
 17 22  4  0
 18 26  4  0
 19 24  4  0
 20 24  4  0
 22 27  4  0
 28 29  4  0
M  END
$$$$

 Created by Python create_sdf_string function

 29 33  0  0  0  0  0  0  0  0999 V2000
   10.7215   -3.3326   17.6437 C   0  0  0  0  0  0  0  0  0  0  0  0
    9.9489   -3.4675   24.6487 N   0  0  0  0  0  0  0  0  0  0  0  0
   10.0172   -4.4740   17.4101 C   0  0  0  0  0  0  0  0  0  0  0  0
    6.9051   -7.9575   16.4222 C   0  0  0  0  0  0  0  0  0  0  0  0
    8.9969   -6.3552   17.9668 N   0  0  0  0  0  0  0  0  0  0  0  0
   10.6702   -3.9051   22.4070 C   0  0  0  0  0  0  0  0  0  0  0  0
   11.0625   -3.0028   18.8894 C   0  0  0  0  0  0  0  0  0  0  0  0
    5.6180   -7.9194   16.1754 O   0  0  0  0  0  0  0  0  0  0  0  0
    9.7259   -5.3080   18.4485 C   0  0  0  0  0  0  0  0  0  0  0  0
    9.4578   -5.0200   16.3036 N   0  0  0  0  0  0  0  0  0  0  0  0
    5.0287   -8.9365   16.8223 C   0  0  0  0  0  0  0  0  0  0  0  0
    8.7742   -6.1498   16.6764 C   0  0  0  0  0  0  0  0  0  0  0  0
   10.9418   -3.4032   21.2053 O   0  0  0  0  0  0  0  0  0  0  0  0
    1.4797   -8.6258   16.2950 C   0  0  0  0  0  0  0  0  0  0  0  0
    9.2861   -1.2743   25.3585 C   0  0  0  0  0  0  0  0  0  0  0  0
    1.8892  -10.3985   17.7511 N   0  0  0  0  0  0  0  0  0  0  0  0
    9.6210   -0.6952   24.0976 C   0  0  0  0  0  0  0  0  0  0  0  0
    7.0792   -9.0217   17.1429 C   0  0  0  0  0  0  0  0  0  0  0  0
    3.1713  -10.1816   17.6634 C   0  0  0  0  0  0  0  0  0  0  0  0
    2.7878   -8.3822   16.2137 C   0  0  0  0  0  0  0  0  0  0  0  0
    9.4601   -2.6590   25.6528 C   0  0  0  0  0  0  0  0  0  0  0  0
   10.1182   -1.5672   23.1165 C   0  0  0  0  0  0  0  0  0  0  0  0
    1.0552   -9.6360   17.0650 C   0  0  0  0  0  0  0  0  0  0  0  0
    3.6519   -9.1783   16.9039 C   0  0  0  0  0  0  0  0  0  0  0  0
    7.8675   -7.0096   15.9415 C   0  0  0  0  0  0  0  0  0  0  0  0
    5.9733   -9.6553   17.3832 N   0  0  0  0  0  0  0  0  0  0  0  0
   10.2411   -2.9363   23.4301 C   0  0  0  0  0  0  0  0  0  0  0  0
   10.7288   -3.8197   19.9525 C   0  0  0  0  0  0  0  0  0  0  0  0
   10.1189   -5.0054   19.6987 C   0  0  0  0  0  0  0  0  0  0  0  0
  1  3  4  0
  1  7  4  0
  2 21  4  0
  2 27  4  0
  3  9  4  0
  3 10  4  0
  4  8  4  0
  4 18  4  0
  4 25  1  0
  5  9  4  0
  5 12  4  0
  6 13  1  0
  6 27  1  0
  7 28  4  0
  8 11  4  0
  9 29  4  0
 10 12  4  0
 11 24  1  0
 11 26  4  0
 12 25  1  0
 13 28  1  0
 14 20  4  0
 14 23  4  0
 15 17  4  0
 15 21  4  0
 16 19  4  0
 16 23  4  0
 17 22  4  0
 18 26  4  0
 19 24  4  0
 20 24  4  0
 22 27  4  0
 28 29  4  0
M  END
$$$$

 Created by Python create_sdf_string function

 29 33  0  0  0  0  0  0  0  0999 V2000
   10.7215   -3.3326   17.6437 C   0  0  0  0  0  0  0  0  0  0  0  0
    9.9489   -3.4675   24.6487 N   0  0  0  0  0  0  0  0  0  0  0  0
   10.0172   -4.4740   17.4101 C   0  0  0  0  0  0  0  0  0  0  0  0
    6.9051   -7.9575   16.4222 C   0  0  0  0  0  0  0  0  0  0  0  0
    8.9969   -6.3552   17.9668 N   0  0  0  0  0  0  0  0  0  0  0  0
   10.6702   -3.9051   22.4070 C   0  0  0  0  0  0  0  0  0  0  0  0
   11.0625   -3.0028   18.8894 C   0  0  0  0  0  0  0  0  0  0  0  0
    5.6180   -7.9194   16.1754 O   0  0  0  0  0  0  0  0  0  0  0  0
    9.7259   -5.3080   18.4485 C   0  0  0  0  0  0  0  0  0  0  0  0
    9.4578   -5.0200   16.3036 N   0  0  0  0  0  0  0  0  0  0  0  0
    5.0287   -8.9365   16.8223 C   0  0  0  0  0  0  0  0  0  0  0  0
    8.7742   -6.1498   16.6764 C   0  0  0  0  0  0  0  0  0  0  0  0
   10.9418   -3.4032   21.2053 O   0  0  0  0  0  0  0  0  0  0  0  0
    1.4797   -8.6258   16.2950 C   0  0  0  0  0  0  0  0  0  0  0  0
    9.2861   -1.2743   25.3585 C   0  0  0  0  0  0  0  0  0  0  0  0
    1.8892  -10.3985   17.7511 N   0  0  0  0  0  0  0  0  0  0  0  0
    9.6210   -0.6952   24.0976 C   0  0  0  0  0  0  0  0  0  0  0  0
    7.0792   -9.0217   17.1429 C   0  0  0  0  0  0  0  0  0  0  0  0
    3.1713  -10.1816   17.6634 C   0  0  0  0  0  0  0  0  0  0  0  0
    2.7878   -8.3822   16.2137 C   0  0  0  0  0  0  0  0  0  0  0  0
    9.4601   -2.6590   25.6528 C   0  0  0  0  0  0  0  0  0  0  0  0
   10.1182   -1.5672   23.1165 C   0  0  0  0  0  0  0  0  0  0  0  0
    1.0552   -9.6360   17.0650 C   0  0  0  0  0  0  0  0  0  0  0  0
    3.6519   -9.1783   16.9039 C   0  0  0  0  0  0  0  0  0  0  0  0
    7.8675   -7.0096   15.9415 C   0  0  0  0  0  0  0  0  0  0  0  0
    5.9733   -9.6553   17.3832 N   0  0  0  0  0  0  0  0  0  0  0  0
   10.2411   -2.9363   23.4301 C   0  0  0  0  0  0  0  0  0  0  0  0
   10.7288   -3.8197   19.9525 C   0  0  0  0  0  0  0  0  0  0  0  0
   10.1189   -5.0054   19.6987 C   0  0  0  0  0  0  0  0  0  0  0  0
  1  3  4  0
  1  7  4  0
  2 21  4  0
  2 27  4  0
  3  9  4  0
  3 10  4  0
  4  8  4  0
  4 18  4  0
  4 25  1  0
  5  9  4  0
  5 12  4  0
  6 13  1  0
  6 27  1  0
  7 28  4  0
  8 11  4  0
  9 29  4  0
 10 12  4  0
 11 24  1  0
 11 26  4  0
 12 25  1  0
 13 28  1  0
 14 20  4  0
 14 23  4  0
 15 17  4  0
 15 21  4  0
 16 19  4  0
 16 23  4  0
 17 22  4  0
 18 26  4  0
 19 24  4  0
 20 24  4  0
 22 27  4  0
 28 29  4  0
M  END
$$$$

 Created by Python create_sdf_string function

 29 33  0  0  0  0  0  0  0  0999 V2000
   10.7215   -3.3326   17.6437 C   0  0  0  0  0  0  0  0  0  0  0  0
    9.9489   -3.4675   24.6487 N   0  0  0  0  0  0  0  0  0  0  0  0
   10.0172   -4.4740   17.4101 C   0  0  0  0  0  0  0  0  0  0  0  0
    6.9051   -7.9575   16.4222 C   0  0  0  0  0  0  0  0  0  0  0  0
    8.9969   -6.3552   17.9668 N   0  0  0  0  0  0  0  0  0  0  0  0
   10.6702   -3.9051   22.4070 C   0  0  0  0  0  0  0  0  0  0  0  0
   11.0625   -3.0028   18.8894 C   0  0  0  0  0  0  0  0  0  0  0  0
    5.6180   -7.9194   16.1754 O   0  0  0  0  0  0  0  0  0  0  0  0
    9.7259   -5.3080   18.4485 C   0  0  0  0  0  0  0  0  0  0  0  0
    9.4578   -5.0200   16.3036 N   0  0  0  0  0  0  0  0  0  0  0  0
    5.0287   -8.9365   16.8223 C   0  0  0  0  0  0  0  0  0  0  0  0
    8.7742   -6.1498   16.6764 C   0  0  0  0  0  0  0  0  0  0  0  0
   10.9418   -3.4032   21.2053 O   0  0  0  0  0  0  0  0  0  0  0  0
    1.4797   -8.6258   16.2950 C   0  0  0  0  0  0  0  0  0  0  0  0
    9.2861   -1.2743   25.3585 C   0  0  0  0  0  0  0  0  0  0  0  0
    1.8892  -10.3985   17.7511 N   0  0  0  0  0  0  0  0  0  0  0  0
    9.6210   -0.6952   24.0976 C   0  0  0  0  0  0  0  0  0  0  0  0
    7.0792   -9.0217   17.1429 C   0  0  0  0  0  0  0  0  0  0  0  0
    3.1713  -10.1816   17.6634 C   0  0  0  0  0  0  0  0  0  0  0  0
    2.7878   -8.3822   16.2137 C   0  0  0  0  0  0  0  0  0  0  0  0
    9.4601   -2.6590   25.6528 C   0  0  0  0  0  0  0  0  0  0  0  0
   10.1182   -1.5672   23.1165 C   0  0  0  0  0  0  0  0  0  0  0  0
    1.0552   -9.6360   17.0650 C   0  0  0  0  0  0  0  0  0  0  0  0
    3.6519   -9.1783   16.9039 C   0  0  0  0  0  0  0  0  0  0  0  0
    7.8675   -7.0096   15.9415 C   0  0  0  0  0  0  0  0  0  0  0  0
    5.9733   -9.6553   17.3832 N   0  0  0  0  0  0  0  0  0  0  0  0
   10.2411   -2.9363   23.4301 C   0  0  0  0  0  0  0  0  0  0  0  0
   10.7288   -3.8197   19.9525 C   0  0  0  0  0  0  0  0  0  0  0  0
   10.1189   -5.0054   19.6987 C   0  0  0  0  0  0  0  0  0  0  0  0
  1  3  4  0
  1  7  4  0
  2 21  4  0
  2 27  4  0
  3  9  4  0
  3 10  4  0
  4  8  4  0
  4 18  4  0
  4 25  1  0
  5  9  4  0
  5 12  4  0
  6 13  1  0
  6 27  1  0
  7 28  4  0
  8 11  4  0
  9 29  4  0
 10 12  4  0
 11 24  1  0
 11 26  4  0
 12 25  1  0
 13 28  1  0
 14 20  4  0
 14 23  4  0
 15 17  4  0
 15 21  4  0
 16 19  4  0
 16 23  4  0
 17 22  4  0
 18 26  4  0
 19 24  4  0
 20 24  4  0
 22 27  4  0
 28 29  4  0
M  END
$$$$

 Created by Python create_sdf_string function

 29 33  0  0  0  0  0  0  0  0999 V2000
   10.7215   -3.3326   17.6437 C   0  0  0  0  0  0  0  0  0  0  0  0
    9.9489   -3.4675   24.6487 N   0  0  0  0  0  0  0  0  0  0  0  0
   10.0172   -4.4740   17.4101 C   0  0  0  0  0  0  0  0  0  0  0  0
    6.9051   -7.9575   16.4222 C   0  0  0  0  0  0  0  0  0  0  0  0
    8.9969   -6.3552   17.9668 N   0  0  0  0  0  0  0  0  0  0  0  0
   10.6702   -3.9051   22.4070 C   0  0  0  0  0  0  0  0  0  0  0  0
   11.0625   -3.0028   18.8894 C   0  0  0  0  0  0  0  0  0  0  0  0
    5.6180   -7.9194   16.1754 O   0  0  0  0  0  0  0  0  0  0  0  0
    9.7259   -5.3080   18.4485 C   0  0  0  0  0  0  0  0  0  0  0  0
    9.4578   -5.0200   16.3036 N   0  0  0  0  0  0  0  0  0  0  0  0
    5.0287   -8.9365   16.8223 C   0  0  0  0  0  0  0  0  0  0  0  0
    8.7742   -6.1498   16.6764 C   0  0  0  0  0  0  0  0  0  0  0  0
   10.9418   -3.4032   21.2053 O   0  0  0  0  0  0  0  0  0  0  0  0
    1.4797   -8.6258   16.2950 C   0  0  0  0  0  0  0  0  0  0  0  0
    9.2861   -1.2743   25.3585 C   0  0  0  0  0  0  0  0  0  0  0  0
    1.8892  -10.3985   17.7511 N   0  0  0  0  0  0  0  0  0  0  0  0
    9.6210   -0.6952   24.0976 C   0  0  0  0  0  0  0  0  0  0  0  0
    7.0792   -9.0217   17.1429 C   0  0  0  0  0  0  0  0  0  0  0  0
    3.1713  -10.1816   17.6634 C   0  0  0  0  0  0  0  0  0  0  0  0
    2.7878   -8.3822   16.2137 C   0  0  0  0  0  0  0  0  0  0  0  0
    9.4601   -2.6590   25.6528 C   0  0  0  0  0  0  0  0  0  0  0  0
   10.1182   -1.5672   23.1165 C   0  0  0  0  0  0  0  0  0  0  0  0
    1.0552   -9.6360   17.0650 C   0  0  0  0  0  0  0  0  0  0  0  0
    3.6519   -9.1783   16.9039 C   0  0  0  0  0  0  0  0  0  0  0  0
    7.8675   -7.0096   15.9415 C   0  0  0  0  0  0  0  0  0  0  0  0
    5.9733   -9.6553   17.3832 N   0  0  0  0  0  0  0  0  0  0  0  0
   10.2411   -2.9363   23.4301 C   0  0  0  0  0  0  0  0  0  0  0  0
   10.7288   -3.8197   19.9525 C   0  0  0  0  0  0  0  0  0  0  0  0
   10.1189   -5.0054   19.6987 C   0  0  0  0  0  0  0  0  0  0  0  0
  1  3  4  0
  1  7  4  0
  2 21  4  0
  2 27  4  0
  3  9  4  0
  3 10  4  0
  4  8  4  0
  4 18  4  0
  4 25  1  0
  5  9  4  0
  5 12  4  0
  6 13  1  0
  6 27  1  0
  7 28  4  0
  8 11  4  0
  9 29  4  0
 10 12  4  0
 11 24  1  0
 11 26  4  0
 12 25  1  0
 13 28  1  0
 14 20  4  0
 14 23  4  0
 15 17  4  0
 15 21  4  0
 16 19  4  0
 16 23  4  0
 17 22  4  0
 18 26  4  0
 19 24  4  0
 20 24  4  0
 22 27  4  0
 28 29  4  0
M  END
$$$$

 Created by Python create_sdf_string function

 29 33  0  0  0  0  0  0  0  0999 V2000
   10.7215   -3.3326   17.6437 C   0  0  0  0  0  0  0  0  0  0  0  0
    9.9489   -3.4675   24.6487 N   0  0  0  0  0  0  0  0  0  0  0  0
   10.0172   -4.4740   17.4101 C   0  0  0  0  0  0  0  0  0  0  0  0
    6.9051   -7.9575   16.4222 C   0  0  0  0  0  0  0  0  0  0  0  0
    8.9969   -6.3552   17.9668 N   0  0  0  0  0  0  0  0  0  0  0  0
   10.6702   -3.9051   22.4070 C   0  0  0  0  0  0  0  0  0  0  0  0
   11.0625   -3.0028   18.8894 C   0  0  0  0  0  0  0  0  0  0  0  0
    5.6180   -7.9194   16.1754 O   0  0  0  0  0  0  0  0  0  0  0  0
    9.7259   -5.3080   18.4485 C   0  0  0  0  0  0  0  0  0  0  0  0
    9.4578   -5.0200   16.3036 N   0  0  0  0  0  0  0  0  0  0  0  0
    5.0287   -8.9365   16.8223 C   0  0  0  0  0  0  0  0  0  0  0  0
    8.7742   -6.1498   16.6764 C   0  0  0  0  0  0  0  0  0  0  0  0
   10.9418   -3.4032   21.2053 O   0  0  0  0  0  0  0  0  0  0  0  0
    1.4797   -8.6258   16.2950 C   0  0  0  0  0  0  0  0  0  0  0  0
    9.2861   -1.2743   25.3585 C   0  0  0  0  0  0  0  0  0  0  0  0
    1.8892  -10.3985   17.7511 N   0  0  0  0  0  0  0  0  0  0  0  0
    9.6210   -0.6952   24.0976 C   0  0  0  0  0  0  0  0  0  0  0  0
    7.0792   -9.0217   17.1429 C   0  0  0  0  0  0  0  0  0  0  0  0
    3.1713  -10.1816   17.6634 C   0  0  0  0  0  0  0  0  0  0  0  0
    2.7878   -8.3822   16.2137 C   0  0  0  0  0  0  0  0  0  0  0  0
    9.4601   -2.6590   25.6528 C   0  0  0  0  0  0  0  0  0  0  0  0
   10.1182   -1.5672   23.1165 C   0  0  0  0  0  0  0  0  0  0  0  0
    1.0552   -9.6360   17.0650 C   0  0  0  0  0  0  0  0  0  0  0  0
    3.6519   -9.1783   16.9039 C   0  0  0  0  0  0  0  0  0  0  0  0
    7.8675   -7.0096   15.9415 C   0  0  0  0  0  0  0  0  0  0  0  0
    5.9733   -9.6553   17.3832 N   0  0  0  0  0  0  0  0  0  0  0  0
   10.2411   -2.9363   23.4301 C   0  0  0  0  0  0  0  0  0  0  0  0
   10.7288   -3.8197   19.9525 C   0  0  0  0  0  0  0  0  0  0  0  0
   10.1189   -5.0054   19.6987 C   0  0  0  0  0  0  0  0  0  0  0  0
  1  3  4  0
  1  7  4  0
  2 21  4  0
  2 27  4  0
  3  9  4  0
  3 10  4  0
  4  8  4  0
  4 18  4  0
  4 25  1  0
  5  9  4  0
  5 12  4  0
  6 13  1  0
  6 27  1  0
  7 28  4  0
  8 11  4  0
  9 29  4  0
 10 12  4  0
 11 24  1  0
 11 26  4  0
 12 25  1  0
 13 28  1  0
 14 20  4  0
 14 23  4  0
 15 17  4  0
 15 21  4  0
 16 19  4  0
 16 23  4  0
 17 22  4  0
 18 26  4  0
 19 24  4  0
 20 24  4  0
 22 27  4  0
 28 29  4  0
M  END
$$$$

 Created by Python create_sdf_string function

 29 33  0  0  0  0  0  0  0  0999 V2000
   10.7215   -3.3326   17.6437 C   0  0  0  0  0  0  0  0  0  0  0  0
    9.9489   -3.4675   24.6487 N   0  0  0  0  0  0  0  0  0  0  0  0
   10.0172   -4.4740   17.4101 C   0  0  0  0  0  0  0  0  0  0  0  0
    6.9051   -7.9575   16.4222 C   0  0  0  0  0  0  0  0  0  0  0  0
    8.9969   -6.3552   17.9668 N   0  0  0  0  0  0  0  0  0  0  0  0
   10.6702   -3.9051   22.4070 C   0  0  0  0  0  0  0  0  0  0  0  0
   11.0625   -3.0028   18.8894 C   0  0  0  0  0  0  0  0  0  0  0  0
    5.6180   -7.9194   16.1754 O   0  0  0  0  0  0  0  0  0  0  0  0
    9.7259   -5.3080   18.4485 C   0  0  0  0  0  0  0  0  0  0  0  0
    9.4578   -5.0200   16.3036 N   0  0  0  0  0  0  0  0  0  0  0  0
    5.0287   -8.9365   16.8223 C   0  0  0  0  0  0  0  0  0  0  0  0
    8.7742   -6.1498   16.6764 C   0  0  0  0  0  0  0  0  0  0  0  0
   10.9418   -3.4032   21.2053 O   0  0  0  0  0  0  0  0  0  0  0  0
    1.4797   -8.6258   16.2950 C   0  0  0  0  0  0  0  0  0  0  0  0
    9.2861   -1.2743   25.3585 C   0  0  0  0  0  0  0  0  0  0  0  0
    1.8892  -10.3985   17.7511 N   0  0  0  0  0  0  0  0  0  0  0  0
    9.6210   -0.6952   24.0976 C   0  0  0  0  0  0  0  0  0  0  0  0
    7.0792   -9.0217   17.1429 C   0  0  0  0  0  0  0  0  0  0  0  0
    3.1713  -10.1816   17.6634 C   0  0  0  0  0  0  0  0  0  0  0  0
    2.7878   -8.3822   16.2137 C   0  0  0  0  0  0  0  0  0  0  0  0
    9.4601   -2.6590   25.6528 C   0  0  0  0  0  0  0  0  0  0  0  0
   10.1182   -1.5672   23.1165 C   0  0  0  0  0  0  0  0  0  0  0  0
    1.0552   -9.6360   17.0650 C   0  0  0  0  0  0  0  0  0  0  0  0
    3.6519   -9.1783   16.9039 C   0  0  0  0  0  0  0  0  0  0  0  0
    7.8675   -7.0096   15.9415 C   0  0  0  0  0  0  0  0  0  0  0  0
    5.9733   -9.6553   17.3832 N   0  0  0  0  0  0  0  0  0  0  0  0
   10.2411   -2.9363   23.4301 C   0  0  0  0  0  0  0  0  0  0  0  0
   10.7288   -3.8197   19.9525 C   0  0  0  0  0  0  0  0  0  0  0  0
   10.1189   -5.0054   19.6987 C   0  0  0  0  0  0  0  0  0  0  0  0
  1  3  4  0
  1  7  4  0
  2 21  4  0
  2 27  4  0
  3  9  4  0
  3 10  4  0
  4  8  4  0
  4 18  4  0
  4 25  1  0
  5  9  4  0
  5 12  4  0
  6 13  1  0
  6 27  1  0
  7 28  4  0
  8 11  4  0
  9 29  4  0
 10 12  4  0
 11 24  1  0
 11 26  4  0
 12 25  1  0
 13 28  1  0
 14 20  4  0
 14 23  4  0
 15 17  4  0
 15 21  4  0
 16 19  4  0
 16 23  4  0
 17 22  4  0
 18 26  4  0
 19 24  4  0
 20 24  4  0
 22 27  4  0
 28 29  4  0
M  END
$$$$

 Created by Python create_sdf_string function

 29 33  0  0  0  0  0  0  0  0999 V2000
   10.7215   -3.3326   17.6437 C   0  0  0  0  0  0  0  0  0  0  0  0
    9.9489   -3.4675   24.6487 N   0  0  0  0  0  0  0  0  0  0  0  0
   10.0172   -4.4740   17.4101 C   0  0  0  0  0  0  0  0  0  0  0  0
    6.9051   -7.9575   16.4222 C   0  0  0  0  0  0  0  0  0  0  0  0
    8.9969   -6.3552   17.9668 N   0  0  0  0  0  0  0  0  0  0  0  0
   10.6702   -3.9051   22.4070 C   0  0  0  0  0  0  0  0  0  0  0  0
   11.0625   -3.0028   18.8894 C   0  0  0  0  0  0  0  0  0  0  0  0
    5.6180   -7.9194   16.1754 O   0  0  0  0  0  0  0  0  0  0  0  0
    9.7259   -5.3080   18.4485 C   0  0  0  0  0  0  0  0  0  0  0  0
    9.4578   -5.0200   16.3036 N   0  0  0  0  0  0  0  0  0  0  0  0
    5.0287   -8.9365   16.8223 C   0  0  0  0  0  0  0  0  0  0  0  0
    8.7742   -6.1498   16.6764 C   0  0  0  0  0  0  0  0  0  0  0  0
   10.9418   -3.4032   21.2053 O   0  0  0  0  0  0  0  0  0  0  0  0
    1.4797   -8.6258   16.2950 C   0  0  0  0  0  0  0  0  0  0  0  0
    9.2861   -1.2743   25.3585 C   0  0  0  0  0  0  0  0  0  0  0  0
    1.8892  -10.3985   17.7511 N   0  0  0  0  0  0  0  0  0  0  0  0
    9.6210   -0.6952   24.0976 C   0  0  0  0  0  0  0  0  0  0  0  0
    7.0792   -9.0217   17.1429 C   0  0  0  0  0  0  0  0  0  0  0  0
    3.1713  -10.1816   17.6634 C   0  0  0  0  0  0  0  0  0  0  0  0
    2.7878   -8.3822   16.2137 C   0  0  0  0  0  0  0  0  0  0  0  0
    9.4601   -2.6590   25.6528 C   0  0  0  0  0  0  0  0  0  0  0  0
   10.1182   -1.5672   23.1165 C   0  0  0  0  0  0  0  0  0  0  0  0
    1.0552   -9.6360   17.0650 C   0  0  0  0  0  0  0  0  0  0  0  0
    3.6519   -9.1783   16.9039 C   0  0  0  0  0  0  0  0  0  0  0  0
    7.8675   -7.0096   15.9415 C   0  0  0  0  0  0  0  0  0  0  0  0
    5.9733   -9.6553   17.3832 N   0  0  0  0  0  0  0  0  0  0  0  0
   10.2411   -2.9363   23.4301 C   0  0  0  0  0  0  0  0  0  0  0  0
   10.7288   -3.8197   19.9525 C   0  0  0  0  0  0  0  0  0  0  0  0
   10.1189   -5.0054   19.6987 C   0  0  0  0  0  0  0  0  0  0  0  0
  1  3  4  0
  1  7  4  0
  2 21  4  0
  2 27  4  0
  3  9  4  0
  3 10  4  0
  4  8  4  0
  4 18  4  0
  4 25  1  0
  5  9  4  0
  5 12  4  0
  6 13  1  0
  6 27  1  0
  7 28  4  0
  8 11  4  0
  9 29  4  0
 10 12  4  0
 11 24  1  0
 11 26  4  0
 12 25  1  0
 13 28  1  0
 14 20  4  0
 14 23  4  0
 15 17  4  0
 15 21  4  0
 16 19  4  0
 16 23  4  0
 17 22  4  0
 18 26  4  0
 19 24  4  0
 20 24  4  0
 22 27  4  0
 28 29  4  0
M  END
$$$$

 Created by Python create_sdf_string function

 29 33  0  0  0  0  0  0  0  0999 V2000
   10.7215   -3.3326   17.6437 C   0  0  0  0  0  0  0  0  0  0  0  0
    9.9489   -3.4675   24.6487 N   0  0  0  0  0  0  0  0  0  0  0  0
   10.0172   -4.4740   17.4101 C   0  0  0  0  0  0  0  0  0  0  0  0
    6.9051   -7.9575   16.4222 C   0  0  0  0  0  0  0  0  0  0  0  0
    8.9969   -6.3552   17.9668 N   0  0  0  0  0  0  0  0  0  0  0  0
   10.6702   -3.9051   22.4070 C   0  0  0  0  0  0  0  0  0  0  0  0
   11.0625   -3.0028   18.8894 C   0  0  0  0  0  0  0  0  0  0  0  0
    5.6180   -7.9194   16.1754 O   0  0  0  0  0  0  0  0  0  0  0  0
    9.7259   -5.3080   18.4485 C   0  0  0  0  0  0  0  0  0  0  0  0
    9.4578   -5.0200   16.3036 N   0  0  0  0  0  0  0  0  0  0  0  0
    5.0287   -8.9365   16.8223 C   0  0  0  0  0  0  0  0  0  0  0  0
    8.7742   -6.1498   16.6764 C   0  0  0  0  0  0  0  0  0  0  0  0
   10.9418   -3.4032   21.2053 O   0  0  0  0  0  0  0  0  0  0  0  0
    1.4797   -8.6258   16.2950 C   0  0  0  0  0  0  0  0  0  0  0  0
    9.2861   -1.2743   25.3585 C   0  0  0  0  0  0  0  0  0  0  0  0
    1.8892  -10.3985   17.7511 N   0  0  0  0  0  0  0  0  0  0  0  0
    9.6210   -0.6952   24.0976 C   0  0  0  0  0  0  0  0  0  0  0  0
    7.0792   -9.0217   17.1429 C   0  0  0  0  0  0  0  0  0  0  0  0
    3.1713  -10.1816   17.6634 C   0  0  0  0  0  0  0  0  0  0  0  0
    2.7878   -8.3822   16.2137 C   0  0  0  0  0  0  0  0  0  0  0  0
    9.4601   -2.6590   25.6528 C   0  0  0  0  0  0  0  0  0  0  0  0
   10.1182   -1.5672   23.1165 C   0  0  0  0  0  0  0  0  0  0  0  0
    1.0552   -9.6360   17.0650 C   0  0  0  0  0  0  0  0  0  0  0  0
    3.6519   -9.1783   16.9039 C   0  0  0  0  0  0  0  0  0  0  0  0
    7.8675   -7.0096   15.9415 C   0  0  0  0  0  0  0  0  0  0  0  0
    5.9733   -9.6553   17.3832 N   0  0  0  0  0  0  0  0  0  0  0  0
   10.2411   -2.9363   23.4301 C   0  0  0  0  0  0  0  0  0  0  0  0
   10.7288   -3.8197   19.9525 C   0  0  0  0  0  0  0  0  0  0  0  0
   10.1189   -5.0054   19.6987 C   0  0  0  0  0  0  0  0  0  0  0  0
  1  3  4  0
  1  7  4  0
  2 21  4  0
  2 27  4  0
  3  9  4  0
  3 10  4  0
  4  8  4  0
  4 18  4  0
  4 25  1  0
  5  9  4  0
  5 12  4  0
  6 13  1  0
  6 27  1  0
  7 28  4  0
  8 11  4  0
  9 29  4  0
 10 12  4  0
 11 24  1  0
 11 26  4  0
 12 25  1  0
 13 28  1  0
 14 20  4  0
 14 23  4  0
 15 17  4  0
 15 21  4  0
 16 19  4  0
 16 23  4  0
 17 22  4  0
 18 26  4  0
 19 24  4  0
 20 24  4  0
 22 27  4  0
 28 29  4  0
M  END
$$$$

 Created by Python create_sdf_string function

 29 33  0  0  0  0  0  0  0  0999 V2000
   10.7215   -3.3326   17.6437 C   0  0  0  0  0  0  0  0  0  0  0  0
    9.9489   -3.4675   24.6487 N   0  0  0  0  0  0  0  0  0  0  0  0
   10.0172   -4.4740   17.4101 C   0  0  0  0  0  0  0  0  0  0  0  0
    6.9051   -7.9575   16.4222 C   0  0  0  0  0  0  0  0  0  0  0  0
    8.9969   -6.3552   17.9668 N   0  0  0  0  0  0  0  0  0  0  0  0
   10.6702   -3.9051   22.4070 C   0  0  0  0  0  0  0  0  0  0  0  0
   11.0625   -3.0028   18.8894 C   0  0  0  0  0  0  0  0  0  0  0  0
    5.6180   -7.9194   16.1754 O   0  0  0  0  0  0  0  0  0  0  0  0
    9.7259   -5.3080   18.4485 C   0  0  0  0  0  0  0  0  0  0  0  0
    9.4578   -5.0200   16.3036 N   0  0  0  0  0  0  0  0  0  0  0  0
    5.0287   -8.9365   16.8223 C   0  0  0  0  0  0  0  0  0  0  0  0
    8.7742   -6.1498   16.6764 C   0  0  0  0  0  0  0  0  0  0  0  0
   10.9418   -3.4032   21.2053 O   0  0  0  0  0  0  0  0  0  0  0  0
    1.4797   -8.6258   16.2950 C   0  0  0  0  0  0  0  0  0  0  0  0
    9.2861   -1.2743   25.3585 C   0  0  0  0  0  0  0  0  0  0  0  0
    1.8892  -10.3985   17.7511 N   0  0  0  0  0  0  0  0  0  0  0  0
    9.6210   -0.6952   24.0976 C   0  0  0  0  0  0  0  0  0  0  0  0
    7.0792   -9.0217   17.1429 C   0  0  0  0  0  0  0  0  0  0  0  0
    3.1713  -10.1816   17.6634 C   0  0  0  0  0  0  0  0  0  0  0  0
    2.7878   -8.3822   16.2137 C   0  0  0  0  0  0  0  0  0  0  0  0
    9.4601   -2.6590   25.6528 C   0  0  0  0  0  0  0  0  0  0  0  0
   10.1182   -1.5672   23.1165 C   0  0  0  0  0  0  0  0  0  0  0  0
    1.0552   -9.6360   17.0650 C   0  0  0  0  0  0  0  0  0  0  0  0
    3.6519   -9.1783   16.9039 C   0  0  0  0  0  0  0  0  0  0  0  0
    7.8675   -7.0096   15.9415 C   0  0  0  0  0  0  0  0  0  0  0  0
    5.9733   -9.6553   17.3832 N   0  0  0  0  0  0  0  0  0  0  0  0
   10.2411   -2.9363   23.4301 C   0  0  0  0  0  0  0  0  0  0  0  0
   10.7288   -3.8197   19.9525 C   0  0  0  0  0  0  0  0  0  0  0  0
   10.1189   -5.0054   19.6987 C   0  0  0  0  0  0  0  0  0  0  0  0
  1  3  4  0
  1  7  4  0
  2 21  4  0
  2 27  4  0
  3  9  4  0
  3 10  4  0
  4  8  4  0
  4 18  4  0
  4 25  1  0
  5  9  4  0
  5 12  4  0
  6 13  1  0
  6 27  1  0
  7 28  4  0
  8 11  4  0
  9 29  4  0
 10 12  4  0
 11 24  1  0
 11 26  4  0
 12 25  1  0
 13 28  1  0
 14 20  4  0
 14 23  4  0
 15 17  4  0
 15 21  4  0
 16 19  4  0
 16 23  4  0
 17 22  4  0
 18 26  4  0
 19 24  4  0
 20 24  4  0
 22 27  4  0
 28 29  4  0
M  END
$$$$

 Created by Python create_sdf_string function

 29 33  0  0  0  0  0  0  0  0999 V2000
   10.7215   -3.3326   17.6437 C   0  0  0  0  0  0  0  0  0  0  0  0
    9.9489   -3.4675   24.6487 N   0  0  0  0  0  0  0  0  0  0  0  0
   10.0172   -4.4740   17.4101 C   0  0  0  0  0  0  0  0  0  0  0  0
    6.9051   -7.9575   16.4222 C   0  0  0  0  0  0  0  0  0  0  0  0
    8.9969   -6.3552   17.9668 N   0  0  0  0  0  0  0  0  0  0  0  0
   10.6702   -3.9051   22.4070 C   0  0  0  0  0  0  0  0  0  0  0  0
   11.0625   -3.0028   18.8894 C   0  0  0  0  0  0  0  0  0  0  0  0
    5.6180   -7.9194   16.1754 O   0  0  0  0  0  0  0  0  0  0  0  0
    9.7259   -5.3080   18.4485 C   0  0  0  0  0  0  0  0  0  0  0  0
    9.4578   -5.0200   16.3036 N   0  0  0  0  0  0  0  0  0  0  0  0
    5.0287   -8.9365   16.8223 C   0  0  0  0  0  0  0  0  0  0  0  0
    8.7742   -6.1498   16.6764 C   0  0  0  0  0  0  0  0  0  0  0  0
   10.9418   -3.4032   21.2053 O   0  0  0  0  0  0  0  0  0  0  0  0
    1.4797   -8.6258   16.2950 C   0  0  0  0  0  0  0  0  0  0  0  0
    9.2861   -1.2743   25.3585 C   0  0  0  0  0  0  0  0  0  0  0  0
    1.8892  -10.3985   17.7511 N   0  0  0  0  0  0  0  0  0  0  0  0
    9.6210   -0.6952   24.0976 C   0  0  0  0  0  0  0  0  0  0  0  0
    7.0792   -9.0217   17.1429 C   0  0  0  0  0  0  0  0  0  0  0  0
    3.1713  -10.1816   17.6634 C   0  0  0  0  0  0  0  0  0  0  0  0
    2.7878   -8.3822   16.2137 C   0  0  0  0  0  0  0  0  0  0  0  0
    9.4601   -2.6590   25.6528 C   0  0  0  0  0  0  0  0  0  0  0  0
   10.1182   -1.5672   23.1165 C   0  0  0  0  0  0  0  0  0  0  0  0
    1.0552   -9.6360   17.0650 C   0  0  0  0  0  0  0  0  0  0  0  0
    3.6519   -9.1783   16.9039 C   0  0  0  0  0  0  0  0  0  0  0  0
    7.8675   -7.0096   15.9415 C   0  0  0  0  0  0  0  0  0  0  0  0
    5.9733   -9.6553   17.3832 N   0  0  0  0  0  0  0  0  0  0  0  0
   10.2411   -2.9363   23.4301 C   0  0  0  0  0  0  0  0  0  0  0  0
   10.7288   -3.8197   19.9525 C   0  0  0  0  0  0  0  0  0  0  0  0
   10.1189   -5.0054   19.6987 C   0  0  0  0  0  0  0  0  0  0  0  0
  1  3  4  0
  1  7  4  0
  2 21  4  0
  2 27  4  0
  3  9  4  0
  3 10  4  0
  4  8  4  0
  4 18  4  0
  4 25  1  0
  5  9  4  0
  5 12  4  0
  6 13  1  0
  6 27  1  0
  7 28  4  0
  8 11  4  0
  9 29  4  0
 10 12  4  0
 11 24  1  0
 11 26  4  0
 12 25  1  0
 13 28  1  0
 14 20  4  0
 14 23  4  0
 15 17  4  0
 15 21  4  0
 16 19  4  0
 16 23  4  0
 17 22  4  0
 18 26  4  0
 19 24  4  0
 20 24  4  0
 22 27  4  0
 28 29  4  0
M  END
$$$$

 Created by Python create_sdf_string function

 29 33  0  0  0  0  0  0  0  0999 V2000
   10.7215   -3.3326   17.6437 C   0  0  0  0  0  0  0  0  0  0  0  0
    9.9489   -3.4675   24.6487 N   0  0  0  0  0  0  0  0  0  0  0  0
   10.0172   -4.4740   17.4101 C   0  0  0  0  0  0  0  0  0  0  0  0
    6.9051   -7.9575   16.4222 C   0  0  0  0  0  0  0  0  0  0  0  0
    8.9969   -6.3552   17.9668 N   0  0  0  0  0  0  0  0  0  0  0  0
   10.6702   -3.9051   22.4070 C   0  0  0  0  0  0  0  0  0  0  0  0
   11.0625   -3.0028   18.8894 C   0  0  0  0  0  0  0  0  0  0  0  0
    5.6180   -7.9194   16.1754 O   0  0  0  0  0  0  0  0  0  0  0  0
    9.7259   -5.3080   18.4485 C   0  0  0  0  0  0  0  0  0  0  0  0
    9.4578   -5.0200   16.3036 N   0  0  0  0  0  0  0  0  0  0  0  0
    5.0287   -8.9365   16.8223 C   0  0  0  0  0  0  0  0  0  0  0  0
    8.7742   -6.1498   16.6764 C   0  0  0  0  0  0  0  0  0  0  0  0
   10.9418   -3.4032   21.2053 O   0  0  0  0  0  0  0  0  0  0  0  0
    1.4797   -8.6258   16.2950 C   0  0  0  0  0  0  0  0  0  0  0  0
    9.2861   -1.2743   25.3585 C   0  0  0  0  0  0  0  0  0  0  0  0
    1.8892  -10.3985   17.7511 N   0  0  0  0  0  0  0  0  0  0  0  0
    9.6210   -0.6952   24.0976 C   0  0  0  0  0  0  0  0  0  0  0  0
    7.0792   -9.0217   17.1429 C   0  0  0  0  0  0  0  0  0  0  0  0
    3.1713  -10.1816   17.6634 C   0  0  0  0  0  0  0  0  0  0  0  0
    2.7878   -8.3822   16.2137 C   0  0  0  0  0  0  0  0  0  0  0  0
    9.4601   -2.6590   25.6528 C   0  0  0  0  0  0  0  0  0  0  0  0
   10.1182   -1.5672   23.1165 C   0  0  0  0  0  0  0  0  0  0  0  0
    1.0552   -9.6360   17.0650 C   0  0  0  0  0  0  0  0  0  0  0  0
    3.6519   -9.1783   16.9039 C   0  0  0  0  0  0  0  0  0  0  0  0
    7.8675   -7.0096   15.9415 C   0  0  0  0  0  0  0  0  0  0  0  0
    5.9733   -9.6553   17.3832 N   0  0  0  0  0  0  0  0  0  0  0  0
   10.2411   -2.9363   23.4301 C   0  0  0  0  0  0  0  0  0  0  0  0
   10.7288   -3.8197   19.9525 C   0  0  0  0  0  0  0  0  0  0  0  0
   10.1189   -5.0054   19.6987 C   0  0  0  0  0  0  0  0  0  0  0  0
  1  3  4  0
  1  7  4  0
  2 21  4  0
  2 27  4  0
  3  9  4  0
  3 10  4  0
  4  8  4  0
  4 18  4  0
  4 25  1  0
  5  9  4  0
  5 12  4  0
  6 13  1  0
  6 27  1  0
  7 28  4  0
  8 11  4  0
  9 29  4  0
 10 12  4  0
 11 24  1  0
 11 26  4  0
 12 25  1  0
 13 28  1  0
 14 20  4  0
 14 23  4  0
 15 17  4  0
 15 21  4  0
 16 19  4  0
 16 23  4  0
 17 22  4  0
 18 26  4  0
 19 24  4  0
 20 24  4  0
 22 27  4  0
 28 29  4  0
M  END
$$$$

 Created by Python create_sdf_string function

 29 33  0  0  0  0  0  0  0  0999 V2000
   10.7215   -3.3326   17.6437 C   0  0  0  0  0  0  0  0  0  0  0  0
    9.9489   -3.4675   24.6487 N   0  0  0  0  0  0  0  0  0  0  0  0
   10.0172   -4.4740   17.4101 C   0  0  0  0  0  0  0  0  0  0  0  0
    6.9051   -7.9575   16.4222 C   0  0  0  0  0  0  0  0  0  0  0  0
    8.9969   -6.3552   17.9668 N   0  0  0  0  0  0  0  0  0  0  0  0
   10.6702   -3.9051   22.4070 C   0  0  0  0  0  0  0  0  0  0  0  0
   11.0625   -3.0028   18.8894 C   0  0  0  0  0  0  0  0  0  0  0  0
    5.6180   -7.9194   16.1754 O   0  0  0  0  0  0  0  0  0  0  0  0
    9.7259   -5.3080   18.4485 C   0  0  0  0  0  0  0  0  0  0  0  0
    9.4578   -5.0200   16.3036 N   0  0  0  0  0  0  0  0  0  0  0  0
    5.0287   -8.9365   16.8223 C   0  0  0  0  0  0  0  0  0  0  0  0
    8.7742   -6.1498   16.6764 C   0  0  0  0  0  0  0  0  0  0  0  0
   10.9418   -3.4032   21.2053 O   0  0  0  0  0  0  0  0  0  0  0  0
    1.4797   -8.6258   16.2950 C   0  0  0  0  0  0  0  0  0  0  0  0
    9.2861   -1.2743   25.3585 C   0  0  0  0  0  0  0  0  0  0  0  0
    1.8892  -10.3985   17.7511 N   0  0  0  0  0  0  0  0  0  0  0  0
    9.6210   -0.6952   24.0976 C   0  0  0  0  0  0  0  0  0  0  0  0
    7.0792   -9.0217   17.1429 C   0  0  0  0  0  0  0  0  0  0  0  0
    3.1713  -10.1816   17.6634 C   0  0  0  0  0  0  0  0  0  0  0  0
    2.7878   -8.3822   16.2137 C   0  0  0  0  0  0  0  0  0  0  0  0
    9.4601   -2.6590   25.6528 C   0  0  0  0  0  0  0  0  0  0  0  0
   10.1182   -1.5672   23.1165 C   0  0  0  0  0  0  0  0  0  0  0  0
    1.0552   -9.6360   17.0650 C   0  0  0  0  0  0  0  0  0  0  0  0
    3.6519   -9.1783   16.9039 C   0  0  0  0  0  0  0  0  0  0  0  0
    7.8675   -7.0096   15.9415 C   0  0  0  0  0  0  0  0  0  0  0  0
    5.9733   -9.6553   17.3832 N   0  0  0  0  0  0  0  0  0  0  0  0
   10.2411   -2.9363   23.4301 C   0  0  0  0  0  0  0  0  0  0  0  0
   10.7288   -3.8197   19.9525 C   0  0  0  0  0  0  0  0  0  0  0  0
   10.1189   -5.0054   19.6987 C   0  0  0  0  0  0  0  0  0  0  0  0
  1  3  4  0
  1  7  4  0
  2 21  4  0
  2 27  4  0
  3  9  4  0
  3 10  4  0
  4  8  4  0
  4 18  4  0
  4 25  1  0
  5  9  4  0
  5 12  4  0
  6 13  1  0
  6 27  1  0
  7 28  4  0
  8 11  4  0
  9 29  4  0
 10 12  4  0
 11 24  1  0
 11 26  4  0
 12 25  1  0
 13 28  1  0
 14 20  4  0
 14 23  4  0
 15 17  4  0
 15 21  4  0
 16 19  4  0
 16 23  4  0
 17 22  4  0
 18 26  4  0
 19 24  4  0
 20 24  4  0
 22 27  4  0
 28 29  4  0
M  END
$$$$

 Created by Python create_sdf_string function

 29 33  0  0  0  0  0  0  0  0999 V2000
   10.7215   -3.3326   17.6437 C   0  0  0  0  0  0  0  0  0  0  0  0
    9.9489   -3.4675   24.6487 N   0  0  0  0  0  0  0  0  0  0  0  0
   10.0172   -4.4740   17.4101 C   0  0  0  0  0  0  0  0  0  0  0  0
    6.9051   -7.9575   16.4222 C   0  0  0  0  0  0  0  0  0  0  0  0
    8.9969   -6.3552   17.9668 N   0  0  0  0  0  0  0  0  0  0  0  0
   10.6702   -3.9051   22.4070 C   0  0  0  0  0  0  0  0  0  0  0  0
   11.0625   -3.0028   18.8894 C   0  0  0  0  0  0  0  0  0  0  0  0
    5.6180   -7.9194   16.1754 O   0  0  0  0  0  0  0  0  0  0  0  0
    9.7259   -5.3080   18.4485 C   0  0  0  0  0  0  0  0  0  0  0  0
    9.4578   -5.0200   16.3036 N   0  0  0  0  0  0  0  0  0  0  0  0
    5.0287   -8.9365   16.8223 C   0  0  0  0  0  0  0  0  0  0  0  0
    8.7742   -6.1498   16.6764 C   0  0  0  0  0  0  0  0  0  0  0  0
   10.9418   -3.4032   21.2053 O   0  0  0  0  0  0  0  0  0  0  0  0
    1.4797   -8.6258   16.2950 C   0  0  0  0  0  0  0  0  0  0  0  0
    9.2861   -1.2743   25.3585 C   0  0  0  0  0  0  0  0  0  0  0  0
    1.8892  -10.3985   17.7511 N   0  0  0  0  0  0  0  0  0  0  0  0
    9.6210   -0.6952   24.0976 C   0  0  0  0  0  0  0  0  0  0  0  0
    7.0792   -9.0217   17.1429 C   0  0  0  0  0  0  0  0  0  0  0  0
    3.1713  -10.1816   17.6634 C   0  0  0  0  0  0  0  0  0  0  0  0
    2.7878   -8.3822   16.2137 C   0  0  0  0  0  0  0  0  0  0  0  0
    9.4601   -2.6590   25.6528 C   0  0  0  0  0  0  0  0  0  0  0  0
   10.1182   -1.5672   23.1165 C   0  0  0  0  0  0  0  0  0  0  0  0
    1.0552   -9.6360   17.0650 C   0  0  0  0  0  0  0  0  0  0  0  0
    3.6519   -9.1783   16.9039 C   0  0  0  0  0  0  0  0  0  0  0  0
    7.8675   -7.0096   15.9415 C   0  0  0  0  0  0  0  0  0  0  0  0
    5.9733   -9.6553   17.3832 N   0  0  0  0  0  0  0  0  0  0  0  0
   10.2411   -2.9363   23.4301 C   0  0  0  0  0  0  0  0  0  0  0  0
   10.7288   -3.8197   19.9525 C   0  0  0  0  0  0  0  0  0  0  0  0
   10.1189   -5.0054   19.6987 C   0  0  0  0  0  0  0  0  0  0  0  0
  1  3  4  0
  1  7  4  0
  2 21  4  0
  2 27  4  0
  3  9  4  0
  3 10  4  0
  4  8  4  0
  4 18  4  0
  4 25  1  0
  5  9  4  0
  5 12  4  0
  6 13  1  0
  6 27  1  0
  7 28  4  0
  8 11  4  0
  9 29  4  0
 10 12  4  0
 11 24  1  0
 11 26  4  0
 12 25  1  0
 13 28  1  0
 14 20  4  0
 14 23  4  0
 15 17  4  0
 15 21  4  0
 16 19  4  0
 16 23  4  0
 17 22  4  0
 18 26  4  0
 19 24  4  0
 20 24  4  0
 22 27  4  0
 28 29  4  0
M  END
$$$$

 Created by Python create_sdf_string function

 29 33  0  0  0  0  0  0  0  0999 V2000
   10.7215   -3.3326   17.6437 C   0  0  0  0  0  0  0  0  0  0  0  0
    9.9489   -3.4675   24.6487 N   0  0  0  0  0  0  0  0  0  0  0  0
   10.0172   -4.4740   17.4101 C   0  0  0  0  0  0  0  0  0  0  0  0
    6.9051   -7.9575   16.4222 C   0  0  0  0  0  0  0  0  0  0  0  0
    8.9969   -6.3552   17.9668 N   0  0  0  0  0  0  0  0  0  0  0  0
   10.6702   -3.9051   22.4070 C   0  0  0  0  0  0  0  0  0  0  0  0
   11.0625   -3.0028   18.8894 C   0  0  0  0  0  0  0  0  0  0  0  0
    5.6180   -7.9194   16.1754 O   0  0  0  0  0  0  0  0  0  0  0  0
    9.7259   -5.3080   18.4485 C   0  0  0  0  0  0  0  0  0  0  0  0
    9.4578   -5.0200   16.3036 N   0  0  0  0  0  0  0  0  0  0  0  0
    5.0287   -8.9365   16.8223 C   0  0  0  0  0  0  0  0  0  0  0  0
    8.7742   -6.1498   16.6764 C   0  0  0  0  0  0  0  0  0  0  0  0
   10.9418   -3.4032   21.2053 O   0  0  0  0  0  0  0  0  0  0  0  0
    1.4797   -8.6258   16.2950 C   0  0  0  0  0  0  0  0  0  0  0  0
    9.2861   -1.2743   25.3585 C   0  0  0  0  0  0  0  0  0  0  0  0
    1.8892  -10.3985   17.7511 N   0  0  0  0  0  0  0  0  0  0  0  0
    9.6210   -0.6952   24.0976 C   0  0  0  0  0  0  0  0  0  0  0  0
    7.0792   -9.0217   17.1429 C   0  0  0  0  0  0  0  0  0  0  0  0
    3.1713  -10.1816   17.6634 C   0  0  0  0  0  0  0  0  0  0  0  0
    2.7878   -8.3822   16.2137 C   0  0  0  0  0  0  0  0  0  0  0  0
    9.4601   -2.6590   25.6528 C   0  0  0  0  0  0  0  0  0  0  0  0
   10.1182   -1.5672   23.1165 C   0  0  0  0  0  0  0  0  0  0  0  0
    1.0552   -9.6360   17.0650 C   0  0  0  0  0  0  0  0  0  0  0  0
    3.6519   -9.1783   16.9039 C   0  0  0  0  0  0  0  0  0  0  0  0
    7.8675   -7.0096   15.9415 C   0  0  0  0  0  0  0  0  0  0  0  0
    5.9733   -9.6553   17.3832 N   0  0  0  0  0  0  0  0  0  0  0  0
   10.2411   -2.9363   23.4301 C   0  0  0  0  0  0  0  0  0  0  0  0
   10.7288   -3.8197   19.9525 C   0  0  0  0  0  0  0  0  0  0  0  0
   10.1189   -5.0054   19.6987 C   0  0  0  0  0  0  0  0  0  0  0  0
  1  3  4  0
  1  7  4  0
  2 21  4  0
  2 27  4  0
  3  9  4  0
  3 10  4  0
  4  8  4  0
  4 18  4  0
  4 25  1  0
  5  9  4  0
  5 12  4  0
  6 13  1  0
  6 27  1  0
  7 28  4  0
  8 11  4  0
  9 29  4  0
 10 12  4  0
 11 24  1  0
 11 26  4  0
 12 25  1  0
 13 28  1  0
 14 20  4  0
 14 23  4  0
 15 17  4  0
 15 21  4  0
 16 19  4  0
 16 23  4  0
 17 22  4  0
 18 26  4  0
 19 24  4  0
 20 24  4  0
 22 27  4  0
 28 29  4  0
M  END
$$$$

 Created by Python create_sdf_string function

 29 33  0  0  0  0  0  0  0  0999 V2000
   10.7215   -3.3326   17.6437 C   0  0  0  0  0  0  0  0  0  0  0  0
    9.9489   -3.4675   24.6487 N   0  0  0  0  0  0  0  0  0  0  0  0
   10.0172   -4.4740   17.4101 C   0  0  0  0  0  0  0  0  0  0  0  0
    6.9051   -7.9575   16.4222 C   0  0  0  0  0  0  0  0  0  0  0  0
    8.9969   -6.3552   17.9668 N   0  0  0  0  0  0  0  0  0  0  0  0
   10.6702   -3.9051   22.4070 C   0  0  0  0  0  0  0  0  0  0  0  0
   11.0625   -3.0028   18.8894 C   0  0  0  0  0  0  0  0  0  0  0  0
    5.6180   -7.9194   16.1754 O   0  0  0  0  0  0  0  0  0  0  0  0
    9.7259   -5.3080   18.4485 C   0  0  0  0  0  0  0  0  0  0  0  0
    9.4578   -5.0200   16.3036 N   0  0  0  0  0  0  0  0  0  0  0  0
    5.0287   -8.9365   16.8223 C   0  0  0  0  0  0  0  0  0  0  0  0
    8.7742   -6.1498   16.6764 C   0  0  0  0  0  0  0  0  0  0  0  0
   10.9418   -3.4032   21.2053 O   0  0  0  0  0  0  0  0  0  0  0  0
    1.4797   -8.6258   16.2950 C   0  0  0  0  0  0  0  0  0  0  0  0
    9.2861   -1.2743   25.3585 C   0  0  0  0  0  0  0  0  0  0  0  0
    1.8892  -10.3985   17.7511 N   0  0  0  0  0  0  0  0  0  0  0  0
    9.6210   -0.6952   24.0976 C   0  0  0  0  0  0  0  0  0  0  0  0
    7.0792   -9.0217   17.1429 C   0  0  0  0  0  0  0  0  0  0  0  0
    3.1713  -10.1816   17.6634 C   0  0  0  0  0  0  0  0  0  0  0  0
    2.7878   -8.3822   16.2137 C   0  0  0  0  0  0  0  0  0  0  0  0
    9.4601   -2.6590   25.6528 C   0  0  0  0  0  0  0  0  0  0  0  0
   10.1182   -1.5672   23.1165 C   0  0  0  0  0  0  0  0  0  0  0  0
    1.0552   -9.6360   17.0650 C   0  0  0  0  0  0  0  0  0  0  0  0
    3.6519   -9.1783   16.9039 C   0  0  0  0  0  0  0  0  0  0  0  0
    7.8675   -7.0096   15.9415 C   0  0  0  0  0  0  0  0  0  0  0  0
    5.9733   -9.6553   17.3832 N   0  0  0  0  0  0  0  0  0  0  0  0
   10.2411   -2.9363   23.4301 C   0  0  0  0  0  0  0  0  0  0  0  0
   10.7288   -3.8197   19.9525 C   0  0  0  0  0  0  0  0  0  0  0  0
   10.1189   -5.0054   19.6987 C   0  0  0  0  0  0  0  0  0  0  0  0
  1  3  4  0
  1  7  4  0
  2 21  4  0
  2 27  4  0
  3  9  4  0
  3 10  4  0
  4  8  4  0
  4 18  4  0
  4 25  1  0
  5  9  4  0
  5 12  4  0
  6 13  1  0
  6 27  1  0
  7 28  4  0
  8 11  4  0
  9 29  4  0
 10 12  4  0
 11 24  1  0
 11 26  4  0
 12 25  1  0
 13 28  1  0
 14 20  4  0
 14 23  4  0
 15 17  4  0
 15 21  4  0
 16 19  4  0
 16 23  4  0
 17 22  4  0
 18 26  4  0
 19 24  4  0
 20 24  4  0
 22 27  4  0
 28 29  4  0
M  END
$$$$

 Created by Python create_sdf_string function

 29 33  0  0  0  0  0  0  0  0999 V2000
   10.7215   -3.3326   17.6437 C   0  0  0  0  0  0  0  0  0  0  0  0
    9.9489   -3.4675   24.6487 N   0  0  0  0  0  0  0  0  0  0  0  0
   10.0172   -4.4740   17.4101 C   0  0  0  0  0  0  0  0  0  0  0  0
    6.9051   -7.9575   16.4222 C   0  0  0  0  0  0  0  0  0  0  0  0
    8.9969   -6.3552   17.9668 N   0  0  0  0  0  0  0  0  0  0  0  0
   10.6702   -3.9051   22.4070 C   0  0  0  0  0  0  0  0  0  0  0  0
   11.0625   -3.0028   18.8894 C   0  0  0  0  0  0  0  0  0  0  0  0
    5.6180   -7.9194   16.1754 O   0  0  0  0  0  0  0  0  0  0  0  0
    9.7259   -5.3080   18.4485 C   0  0  0  0  0  0  0  0  0  0  0  0
    9.4578   -5.0200   16.3036 N   0  0  0  0  0  0  0  0  0  0  0  0
    5.0287   -8.9365   16.8223 C   0  0  0  0  0  0  0  0  0  0  0  0
    8.7742   -6.1498   16.6764 C   0  0  0  0  0  0  0  0  0  0  0  0
   10.9418   -3.4032   21.2053 O   0  0  0  0  0  0  0  0  0  0  0  0
    1.4797   -8.6258   16.2950 C   0  0  0  0  0  0  0  0  0  0  0  0
    9.2861   -1.2743   25.3585 C   0  0  0  0  0  0  0  0  0  0  0  0
    1.8892  -10.3985   17.7511 N   0  0  0  0  0  0  0  0  0  0  0  0
    9.6210   -0.6952   24.0976 C   0  0  0  0  0  0  0  0  0  0  0  0
    7.0792   -9.0217   17.1429 C   0  0  0  0  0  0  0  0  0  0  0  0
    3.1713  -10.1816   17.6634 C   0  0  0  0  0  0  0  0  0  0  0  0
    2.7878   -8.3822   16.2137 C   0  0  0  0  0  0  0  0  0  0  0  0
    9.4601   -2.6590   25.6528 C   0  0  0  0  0  0  0  0  0  0  0  0
   10.1182   -1.5672   23.1165 C   0  0  0  0  0  0  0  0  0  0  0  0
    1.0552   -9.6360   17.0650 C   0  0  0  0  0  0  0  0  0  0  0  0
    3.6519   -9.1783   16.9039 C   0  0  0  0  0  0  0  0  0  0  0  0
    7.8675   -7.0096   15.9415 C   0  0  0  0  0  0  0  0  0  0  0  0
    5.9733   -9.6553   17.3832 N   0  0  0  0  0  0  0  0  0  0  0  0
   10.2411   -2.9363   23.4301 C   0  0  0  0  0  0  0  0  0  0  0  0
   10.7288   -3.8197   19.9525 C   0  0  0  0  0  0  0  0  0  0  0  0
   10.1189   -5.0054   19.6987 C   0  0  0  0  0  0  0  0  0  0  0  0
  1  3  4  0
  1  7  4  0
  2 21  4  0
  2 27  4  0
  3  9  4  0
  3 10  4  0
  4  8  4  0
  4 18  4  0
  4 25  1  0
  5  9  4  0
  5 12  4  0
  6 13  1  0
  6 27  1  0
  7 28  4  0
  8 11  4  0
  9 29  4  0
 10 12  4  0
 11 24  1  0
 11 26  4  0
 12 25  1  0
 13 28  1  0
 14 20  4  0
 14 23  4  0
 15 17  4  0
 15 21  4  0
 16 19  4  0
 16 23  4  0
 17 22  4  0
 18 26  4  0
 19 24  4  0
 20 24  4  0
 22 27  4  0
 28 29  4  0
M  END
$$$$

 Created by Python create_sdf_string function

 29 33  0  0  0  0  0  0  0  0999 V2000
   10.7215   -3.3326   17.6437 C   0  0  0  0  0  0  0  0  0  0  0  0
    9.9489   -3.4675   24.6487 N   0  0  0  0  0  0  0  0  0  0  0  0
   10.0172   -4.4740   17.4101 C   0  0  0  0  0  0  0  0  0  0  0  0
    6.9051   -7.9575   16.4222 C   0  0  0  0  0  0  0  0  0  0  0  0
    8.9969   -6.3552   17.9668 N   0  0  0  0  0  0  0  0  0  0  0  0
   10.6702   -3.9051   22.4070 C   0  0  0  0  0  0  0  0  0  0  0  0
   11.0625   -3.0028   18.8894 C   0  0  0  0  0  0  0  0  0  0  0  0
    5.6180   -7.9194   16.1754 O   0  0  0  0  0  0  0  0  0  0  0  0
    9.7259   -5.3080   18.4485 C   0  0  0  0  0  0  0  0  0  0  0  0
    9.4578   -5.0200   16.3036 N   0  0  0  0  0  0  0  0  0  0  0  0
    5.0287   -8.9365   16.8223 C   0  0  0  0  0  0  0  0  0  0  0  0
    8.7742   -6.1498   16.6764 C   0  0  0  0  0  0  0  0  0  0  0  0
   10.9418   -3.4032   21.2053 O   0  0  0  0  0  0  0  0  0  0  0  0
    1.4797   -8.6258   16.2950 C   0  0  0  0  0  0  0  0  0  0  0  0
    9.2861   -1.2743   25.3585 C   0  0  0  0  0  0  0  0  0  0  0  0
    1.8892  -10.3985   17.7511 N   0  0  0  0  0  0  0  0  0  0  0  0
    9.6210   -0.6952   24.0976 C   0  0  0  0  0  0  0  0  0  0  0  0
    7.0792   -9.0217   17.1429 C   0  0  0  0  0  0  0  0  0  0  0  0
    3.1713  -10.1816   17.6634 C   0  0  0  0  0  0  0  0  0  0  0  0
    2.7878   -8.3822   16.2137 C   0  0  0  0  0  0  0  0  0  0  0  0
    9.4601   -2.6590   25.6528 C   0  0  0  0  0  0  0  0  0  0  0  0
   10.1182   -1.5672   23.1165 C   0  0  0  0  0  0  0  0  0  0  0  0
    1.0552   -9.6360   17.0650 C   0  0  0  0  0  0  0  0  0  0  0  0
    3.6519   -9.1783   16.9039 C   0  0  0  0  0  0  0  0  0  0  0  0
    7.8675   -7.0096   15.9415 C   0  0  0  0  0  0  0  0  0  0  0  0
    5.9733   -9.6553   17.3832 N   0  0  0  0  0  0  0  0  0  0  0  0
   10.2411   -2.9363   23.4301 C   0  0  0  0  0  0  0  0  0  0  0  0
   10.7288   -3.8197   19.9525 C   0  0  0  0  0  0  0  0  0  0  0  0
   10.1189   -5.0054   19.6987 C   0  0  0  0  0  0  0  0  0  0  0  0
  1  3  4  0
  1  7  4  0
  2 21  4  0
  2 27  4  0
  3  9  4  0
  3 10  4  0
  4  8  4  0
  4 18  4  0
  4 25  1  0
  5  9  4  0
  5 12  4  0
  6 13  1  0
  6 27  1  0
  7 28  4  0
  8 11  4  0
  9 29  4  0
 10 12  4  0
 11 24  1  0
 11 26  4  0
 12 25  1  0
 13 28  1  0
 14 20  4  0
 14 23  4  0
 15 17  4  0
 15 21  4  0
 16 19  4  0
 16 23  4  0
 17 22  4  0
 18 26  4  0
 19 24  4  0
 20 24  4  0
 22 27  4  0
 28 29  4  0
M  END
$$$$

 Created by Python create_sdf_string function

 29 33  0  0  0  0  0  0  0  0999 V2000
   10.7215   -3.3326   17.6437 C   0  0  0  0  0  0  0  0  0  0  0  0
    9.9489   -3.4675   24.6487 N   0  0  0  0  0  0  0  0  0  0  0  0
   10.0172   -4.4740   17.4101 C   0  0  0  0  0  0  0  0  0  0  0  0
    6.9051   -7.9575   16.4222 C   0  0  0  0  0  0  0  0  0  0  0  0
    8.9969   -6.3552   17.9668 N   0  0  0  0  0  0  0  0  0  0  0  0
   10.6702   -3.9051   22.4070 C   0  0  0  0  0  0  0  0  0  0  0  0
   11.0625   -3.0028   18.8894 C   0  0  0  0  0  0  0  0  0  0  0  0
    5.6180   -7.9194   16.1754 O   0  0  0  0  0  0  0  0  0  0  0  0
    9.7259   -5.3080   18.4485 C   0  0  0  0  0  0  0  0  0  0  0  0
    9.4578   -5.0200   16.3036 N   0  0  0  0  0  0  0  0  0  0  0  0
    5.0287   -8.9365   16.8223 C   0  0  0  0  0  0  0  0  0  0  0  0
    8.7742   -6.1498   16.6764 C   0  0  0  0  0  0  0  0  0  0  0  0
   10.9418   -3.4032   21.2053 O   0  0  0  0  0  0  0  0  0  0  0  0
    1.4797   -8.6258   16.2950 C   0  0  0  0  0  0  0  0  0  0  0  0
    9.2861   -1.2743   25.3585 C   0  0  0  0  0  0  0  0  0  0  0  0
    1.8892  -10.3985   17.7511 N   0  0  0  0  0  0  0  0  0  0  0  0
    9.6210   -0.6952   24.0976 C   0  0  0  0  0  0  0  0  0  0  0  0
    7.0792   -9.0217   17.1429 C   0  0  0  0  0  0  0  0  0  0  0  0
    3.1713  -10.1816   17.6634 C   0  0  0  0  0  0  0  0  0  0  0  0
    2.7878   -8.3822   16.2137 C   0  0  0  0  0  0  0  0  0  0  0  0
    9.4601   -2.6590   25.6528 C   0  0  0  0  0  0  0  0  0  0  0  0
   10.1182   -1.5672   23.1165 C   0  0  0  0  0  0  0  0  0  0  0  0
    1.0552   -9.6360   17.0650 C   0  0  0  0  0  0  0  0  0  0  0  0
    3.6519   -9.1783   16.9039 C   0  0  0  0  0  0  0  0  0  0  0  0
    7.8675   -7.0096   15.9415 C   0  0  0  0  0  0  0  0  0  0  0  0
    5.9733   -9.6553   17.3832 N   0  0  0  0  0  0  0  0  0  0  0  0
   10.2411   -2.9363   23.4301 C   0  0  0  0  0  0  0  0  0  0  0  0
   10.7288   -3.8197   19.9525 C   0  0  0  0  0  0  0  0  0  0  0  0
   10.1189   -5.0054   19.6987 C   0  0  0  0  0  0  0  0  0  0  0  0
  1  3  4  0
  1  7  4  0
  2 21  4  0
  2 27  4  0
  3  9  4  0
  3 10  4  0
  4  8  4  0
  4 18  4  0
  4 25  1  0
  5  9  4  0
  5 12  4  0
  6 13  1  0
  6 27  1  0
  7 28  4  0
  8 11  4  0
  9 29  4  0
 10 12  4  0
 11 24  1  0
 11 26  4  0
 12 25  1  0
 13 28  1  0
 14 20  4  0
 14 23  4  0
 15 17  4  0
 15 21  4  0
 16 19  4  0
 16 23  4  0
 17 22  4  0
 18 26  4  0
 19 24  4  0
 20 24  4  0
 22 27  4  0
 28 29  4  0
M  END
$$$$

 Created by Python create_sdf_string function

 29 33  0  0  0  0  0  0  0  0999 V2000
   10.7215   -3.3326   17.6437 C   0  0  0  0  0  0  0  0  0  0  0  0
    9.9489   -3.4675   24.6487 N   0  0  0  0  0  0  0  0  0  0  0  0
   10.0172   -4.4740   17.4101 C   0  0  0  0  0  0  0  0  0  0  0  0
    6.9051   -7.9575   16.4222 C   0  0  0  0  0  0  0  0  0  0  0  0
    8.9969   -6.3552   17.9668 N   0  0  0  0  0  0  0  0  0  0  0  0
   10.6702   -3.9051   22.4070 C   0  0  0  0  0  0  0  0  0  0  0  0
   11.0625   -3.0028   18.8894 C   0  0  0  0  0  0  0  0  0  0  0  0
    5.6180   -7.9194   16.1754 O   0  0  0  0  0  0  0  0  0  0  0  0
    9.7259   -5.3080   18.4485 C   0  0  0  0  0  0  0  0  0  0  0  0
    9.4578   -5.0200   16.3036 N   0  0  0  0  0  0  0  0  0  0  0  0
    5.0287   -8.9365   16.8223 C   0  0  0  0  0  0  0  0  0  0  0  0
    8.7742   -6.1498   16.6764 C   0  0  0  0  0  0  0  0  0  0  0  0
   10.9418   -3.4032   21.2053 O   0  0  0  0  0  0  0  0  0  0  0  0
    1.4797   -8.6258   16.2950 C   0  0  0  0  0  0  0  0  0  0  0  0
    9.2861   -1.2743   25.3585 C   0  0  0  0  0  0  0  0  0  0  0  0
    1.8892  -10.3985   17.7511 N   0  0  0  0  0  0  0  0  0  0  0  0
    9.6210   -0.6952   24.0976 C   0  0  0  0  0  0  0  0  0  0  0  0
    7.0792   -9.0217   17.1429 C   0  0  0  0  0  0  0  0  0  0  0  0
    3.1713  -10.1816   17.6634 C   0  0  0  0  0  0  0  0  0  0  0  0
    2.7878   -8.3822   16.2137 C   0  0  0  0  0  0  0  0  0  0  0  0
    9.4601   -2.6590   25.6528 C   0  0  0  0  0  0  0  0  0  0  0  0
   10.1182   -1.5672   23.1165 C   0  0  0  0  0  0  0  0  0  0  0  0
    1.0552   -9.6360   17.0650 C   0  0  0  0  0  0  0  0  0  0  0  0
    3.6519   -9.1783   16.9039 C   0  0  0  0  0  0  0  0  0  0  0  0
    7.8675   -7.0096   15.9415 C   0  0  0  0  0  0  0  0  0  0  0  0
    5.9733   -9.6553   17.3832 N   0  0  0  0  0  0  0  0  0  0  0  0
   10.2411   -2.9363   23.4301 C   0  0  0  0  0  0  0  0  0  0  0  0
   10.7288   -3.8197   19.9525 C   0  0  0  0  0  0  0  0  0  0  0  0
   10.1189   -5.0054   19.6987 C   0  0  0  0  0  0  0  0  0  0  0  0
  1  3  4  0
  1  7  4  0
  2 21  4  0
  2 27  4  0
  3  9  4  0
  3 10  4  0
  4  8  4  0
  4 18  4  0
  4 25  1  0
  5  9  4  0
  5 12  4  0
  6 13  1  0
  6 27  1  0
  7 28  4  0
  8 11  4  0
  9 29  4  0
 10 12  4  0
 11 24  1  0
 11 26  4  0
 12 25  1  0
 13 28  1  0
 14 20  4  0
 14 23  4  0
 15 17  4  0
 15 21  4  0
 16 19  4  0
 16 23  4  0
 17 22  4  0
 18 26  4  0
 19 24  4  0
 20 24  4  0
 22 27  4  0
 28 29  4  0
M  END
$$$$

 Created by Python create_sdf_string function

 29 33  0  0  0  0  0  0  0  0999 V2000
   10.7215   -3.3326   17.6437 C   0  0  0  0  0  0  0  0  0  0  0  0
    9.9489   -3.4675   24.6487 N   0  0  0  0  0  0  0  0  0  0  0  0
   10.0172   -4.4740   17.4101 C   0  0  0  0  0  0  0  0  0  0  0  0
    6.9051   -7.9575   16.4222 C   0  0  0  0  0  0  0  0  0  0  0  0
    8.9969   -6.3552   17.9668 N   0  0  0  0  0  0  0  0  0  0  0  0
   10.6702   -3.9051   22.4070 C   0  0  0  0  0  0  0  0  0  0  0  0
   11.0625   -3.0028   18.8894 C   0  0  0  0  0  0  0  0  0  0  0  0
    5.6180   -7.9194   16.1754 O   0  0  0  0  0  0  0  0  0  0  0  0
    9.7259   -5.3080   18.4485 C   0  0  0  0  0  0  0  0  0  0  0  0
    9.4578   -5.0200   16.3036 N   0  0  0  0  0  0  0  0  0  0  0  0
    5.0287   -8.9365   16.8223 C   0  0  0  0  0  0  0  0  0  0  0  0
    8.7742   -6.1498   16.6764 C   0  0  0  0  0  0  0  0  0  0  0  0
   10.9418   -3.4032   21.2053 O   0  0  0  0  0  0  0  0  0  0  0  0
    1.4797   -8.6258   16.2950 C   0  0  0  0  0  0  0  0  0  0  0  0
    9.2861   -1.2743   25.3585 C   0  0  0  0  0  0  0  0  0  0  0  0
    1.8892  -10.3985   17.7511 N   0  0  0  0  0  0  0  0  0  0  0  0
    9.6210   -0.6952   24.0976 C   0  0  0  0  0  0  0  0  0  0  0  0
    7.0792   -9.0217   17.1429 C   0  0  0  0  0  0  0  0  0  0  0  0
    3.1713  -10.1816   17.6634 C   0  0  0  0  0  0  0  0  0  0  0  0
    2.7878   -8.3822   16.2137 C   0  0  0  0  0  0  0  0  0  0  0  0
    9.4601   -2.6590   25.6528 C   0  0  0  0  0  0  0  0  0  0  0  0
   10.1182   -1.5672   23.1165 C   0  0  0  0  0  0  0  0  0  0  0  0
    1.0552   -9.6360   17.0650 C   0  0  0  0  0  0  0  0  0  0  0  0
    3.6519   -9.1783   16.9039 C   0  0  0  0  0  0  0  0  0  0  0  0
    7.8675   -7.0096   15.9415 C   0  0  0  0  0  0  0  0  0  0  0  0
    5.9733   -9.6553   17.3832 N   0  0  0  0  0  0  0  0  0  0  0  0
   10.2411   -2.9363   23.4301 C   0  0  0  0  0  0  0  0  0  0  0  0
   10.7288   -3.8197   19.9525 C   0  0  0  0  0  0  0  0  0  0  0  0
   10.1189   -5.0054   19.6987 C   0  0  0  0  0  0  0  0  0  0  0  0
  1  3  4  0
  1  7  4  0
  2 21  4  0
  2 27  4  0
  3  9  4  0
  3 10  4  0
  4  8  4  0
  4 18  4  0
  4 25  1  0
  5  9  4  0
  5 12  4  0
  6 13  1  0
  6 27  1  0
  7 28  4  0
  8 11  4  0
  9 29  4  0
 10 12  4  0
 11 24  1  0
 11 26  4  0
 12 25  1  0
 13 28  1  0
 14 20  4  0
 14 23  4  0
 15 17  4  0
 15 21  4  0
 16 19  4  0
 16 23  4  0
 17 22  4  0
 18 26  4  0
 19 24  4  0
 20 24  4  0
 22 27  4  0
 28 29  4  0
M  END
$$$$

 Created by Python create_sdf_string function

 29 33  0  0  0  0  0  0  0  0999 V2000
   10.7215   -3.3326   17.6437 C   0  0  0  0  0  0  0  0  0  0  0  0
    9.9489   -3.4675   24.6487 N   0  0  0  0  0  0  0  0  0  0  0  0
   10.0172   -4.4740   17.4101 C   0  0  0  0  0  0  0  0  0  0  0  0
    6.9051   -7.9575   16.4222 C   0  0  0  0  0  0  0  0  0  0  0  0
    8.9969   -6.3552   17.9668 N   0  0  0  0  0  0  0  0  0  0  0  0
   10.6702   -3.9051   22.4070 C   0  0  0  0  0  0  0  0  0  0  0  0
   11.0625   -3.0028   18.8894 C   0  0  0  0  0  0  0  0  0  0  0  0
    5.6180   -7.9194   16.1754 O   0  0  0  0  0  0  0  0  0  0  0  0
    9.7259   -5.3080   18.4485 C   0  0  0  0  0  0  0  0  0  0  0  0
    9.4578   -5.0200   16.3036 N   0  0  0  0  0  0  0  0  0  0  0  0
    5.0287   -8.9365   16.8223 C   0  0  0  0  0  0  0  0  0  0  0  0
    8.7742   -6.1498   16.6764 C   0  0  0  0  0  0  0  0  0  0  0  0
   10.9418   -3.4032   21.2053 O   0  0  0  0  0  0  0  0  0  0  0  0
    1.4797   -8.6258   16.2950 C   0  0  0  0  0  0  0  0  0  0  0  0
    9.2861   -1.2743   25.3585 C   0  0  0  0  0  0  0  0  0  0  0  0
    1.8892  -10.3985   17.7511 N   0  0  0  0  0  0  0  0  0  0  0  0
    9.6210   -0.6952   24.0976 C   0  0  0  0  0  0  0  0  0  0  0  0
    7.0792   -9.0217   17.1429 C   0  0  0  0  0  0  0  0  0  0  0  0
    3.1713  -10.1816   17.6634 C   0  0  0  0  0  0  0  0  0  0  0  0
    2.7878   -8.3822   16.2137 C   0  0  0  0  0  0  0  0  0  0  0  0
    9.4601   -2.6590   25.6528 C   0  0  0  0  0  0  0  0  0  0  0  0
   10.1182   -1.5672   23.1165 C   0  0  0  0  0  0  0  0  0  0  0  0
    1.0552   -9.6360   17.0650 C   0  0  0  0  0  0  0  0  0  0  0  0
    3.6519   -9.1783   16.9039 C   0  0  0  0  0  0  0  0  0  0  0  0
    7.8675   -7.0096   15.9415 C   0  0  0  0  0  0  0  0  0  0  0  0
    5.9733   -9.6553   17.3832 N   0  0  0  0  0  0  0  0  0  0  0  0
   10.2411   -2.9363   23.4301 C   0  0  0  0  0  0  0  0  0  0  0  0
   10.7288   -3.8197   19.9525 C   0  0  0  0  0  0  0  0  0  0  0  0
   10.1189   -5.0054   19.6987 C   0  0  0  0  0  0  0  0  0  0  0  0
  1  3  4  0
  1  7  4  0
  2 21  4  0
  2 27  4  0
  3  9  4  0
  3 10  4  0
  4  8  4  0
  4 18  4  0
  4 25  1  0
  5  9  4  0
  5 12  4  0
  6 13  1  0
  6 27  1  0
  7 28  4  0
  8 11  4  0
  9 29  4  0
 10 12  4  0
 11 24  1  0
 11 26  4  0
 12 25  1  0
 13 28  1  0
 14 20  4  0
 14 23  4  0
 15 17  4  0
 15 21  4  0
 16 19  4  0
 16 23  4  0
 17 22  4  0
 18 26  4  0
 19 24  4  0
 20 24  4  0
 22 27  4  0
 28 29  4  0
M  END
$$$$

 Created by Python create_sdf_string function

 29 33  0  0  0  0  0  0  0  0999 V2000
   10.7215   -3.3326   17.6437 C   0  0  0  0  0  0  0  0  0  0  0  0
    9.9489   -3.4675   24.6487 N   0  0  0  0  0  0  0  0  0  0  0  0
   10.0172   -4.4740   17.4101 C   0  0  0  0  0  0  0  0  0  0  0  0
    6.9051   -7.9575   16.4222 C   0  0  0  0  0  0  0  0  0  0  0  0
    8.9969   -6.3552   17.9668 N   0  0  0  0  0  0  0  0  0  0  0  0
   10.6702   -3.9051   22.4070 C   0  0  0  0  0  0  0  0  0  0  0  0
   11.0625   -3.0028   18.8894 C   0  0  0  0  0  0  0  0  0  0  0  0
    5.6180   -7.9194   16.1754 O   0  0  0  0  0  0  0  0  0  0  0  0
    9.7259   -5.3080   18.4485 C   0  0  0  0  0  0  0  0  0  0  0  0
    9.4578   -5.0200   16.3036 N   0  0  0  0  0  0  0  0  0  0  0  0
    5.0287   -8.9365   16.8223 C   0  0  0  0  0  0  0  0  0  0  0  0
    8.7742   -6.1498   16.6764 C   0  0  0  0  0  0  0  0  0  0  0  0
   10.9418   -3.4032   21.2053 O   0  0  0  0  0  0  0  0  0  0  0  0
    1.4797   -8.6258   16.2950 C   0  0  0  0  0  0  0  0  0  0  0  0
    9.2861   -1.2743   25.3585 C   0  0  0  0  0  0  0  0  0  0  0  0
    1.8892  -10.3985   17.7511 N   0  0  0  0  0  0  0  0  0  0  0  0
    9.6210   -0.6952   24.0976 C   0  0  0  0  0  0  0  0  0  0  0  0
    7.0792   -9.0217   17.1429 C   0  0  0  0  0  0  0  0  0  0  0  0
    3.1713  -10.1816   17.6634 C   0  0  0  0  0  0  0  0  0  0  0  0
    2.7878   -8.3822   16.2137 C   0  0  0  0  0  0  0  0  0  0  0  0
    9.4601   -2.6590   25.6528 C   0  0  0  0  0  0  0  0  0  0  0  0
   10.1182   -1.5672   23.1165 C   0  0  0  0  0  0  0  0  0  0  0  0
    1.0552   -9.6360   17.0650 C   0  0  0  0  0  0  0  0  0  0  0  0
    3.6519   -9.1783   16.9039 C   0  0  0  0  0  0  0  0  0  0  0  0
    7.8675   -7.0096   15.9415 C   0  0  0  0  0  0  0  0  0  0  0  0
    5.9733   -9.6553   17.3832 N   0  0  0  0  0  0  0  0  0  0  0  0
   10.2411   -2.9363   23.4301 C   0  0  0  0  0  0  0  0  0  0  0  0
   10.7288   -3.8197   19.9525 C   0  0  0  0  0  0  0  0  0  0  0  0
   10.1189   -5.0054   19.6987 C   0  0  0  0  0  0  0  0  0  0  0  0
  1  3  4  0
  1  7  4  0
  2 21  4  0
  2 27  4  0
  3  9  4  0
  3 10  4  0
  4  8  4  0
  4 18  4  0
  4 25  1  0
  5  9  4  0
  5 12  4  0
  6 13  1  0
  6 27  1  0
  7 28  4  0
  8 11  4  0
  9 29  4  0
 10 12  4  0
 11 24  1  0
 11 26  4  0
 12 25  1  0
 13 28  1  0
 14 20  4  0
 14 23  4  0
 15 17  4  0
 15 21  4  0
 16 19  4  0
 16 23  4  0
 17 22  4  0
 18 26  4  0
 19 24  4  0
 20 24  4  0
 22 27  4  0
 28 29  4  0
M  END
$$$$

 Created by Python create_sdf_string function

 29 33  0  0  0  0  0  0  0  0999 V2000
   10.7215   -3.3326   17.6437 C   0  0  0  0  0  0  0  0  0  0  0  0
    9.9489   -3.4675   24.6487 N   0  0  0  0  0  0  0  0  0  0  0  0
   10.0172   -4.4740   17.4101 C   0  0  0  0  0  0  0  0  0  0  0  0
    6.9051   -7.9575   16.4222 C   0  0  0  0  0  0  0  0  0  0  0  0
    8.9969   -6.3552   17.9668 N   0  0  0  0  0  0  0  0  0  0  0  0
   10.6702   -3.9051   22.4070 C   0  0  0  0  0  0  0  0  0  0  0  0
   11.0625   -3.0028   18.8894 C   0  0  0  0  0  0  0  0  0  0  0  0
    5.6180   -7.9194   16.1754 O   0  0  0  0  0  0  0  0  0  0  0  0
    9.7259   -5.3080   18.4485 C   0  0  0  0  0  0  0  0  0  0  0  0
    9.4578   -5.0200   16.3036 N   0  0  0  0  0  0  0  0  0  0  0  0
    5.0287   -8.9365   16.8223 C   0  0  0  0  0  0  0  0  0  0  0  0
    8.7742   -6.1498   16.6764 C   0  0  0  0  0  0  0  0  0  0  0  0
   10.9418   -3.4032   21.2053 O   0  0  0  0  0  0  0  0  0  0  0  0
    1.4797   -8.6258   16.2950 C   0  0  0  0  0  0  0  0  0  0  0  0
    9.2861   -1.2743   25.3585 C   0  0  0  0  0  0  0  0  0  0  0  0
    1.8892  -10.3985   17.7511 N   0  0  0  0  0  0  0  0  0  0  0  0
    9.6210   -0.6952   24.0976 C   0  0  0  0  0  0  0  0  0  0  0  0
    7.0792   -9.0217   17.1429 C   0  0  0  0  0  0  0  0  0  0  0  0
    3.1713  -10.1816   17.6634 C   0  0  0  0  0  0  0  0  0  0  0  0
    2.7878   -8.3822   16.2137 C   0  0  0  0  0  0  0  0  0  0  0  0
    9.4601   -2.6590   25.6528 C   0  0  0  0  0  0  0  0  0  0  0  0
   10.1182   -1.5672   23.1165 C   0  0  0  0  0  0  0  0  0  0  0  0
    1.0552   -9.6360   17.0650 C   0  0  0  0  0  0  0  0  0  0  0  0
    3.6519   -9.1783   16.9039 C   0  0  0  0  0  0  0  0  0  0  0  0
    7.8675   -7.0096   15.9415 C   0  0  0  0  0  0  0  0  0  0  0  0
    5.9733   -9.6553   17.3832 N   0  0  0  0  0  0  0  0  0  0  0  0
   10.2411   -2.9363   23.4301 C   0  0  0  0  0  0  0  0  0  0  0  0
   10.7288   -3.8197   19.9525 C   0  0  0  0  0  0  0  0  0  0  0  0
   10.1189   -5.0054   19.6987 C   0  0  0  0  0  0  0  0  0  0  0  0
  1  3  4  0
  1  7  4  0
  2 21  4  0
  2 27  4  0
  3  9  4  0
  3 10  4  0
  4  8  4  0
  4 18  4  0
  4 25  1  0
  5  9  4  0
  5 12  4  0
  6 13  1  0
  6 27  1  0
  7 28  4  0
  8 11  4  0
  9 29  4  0
 10 12  4  0
 11 24  1  0
 11 26  4  0
 12 25  1  0
 13 28  1  0
 14 20  4  0
 14 23  4  0
 15 17  4  0
 15 21  4  0
 16 19  4  0
 16 23  4  0
 17 22  4  0
 18 26  4  0
 19 24  4  0
 20 24  4  0
 22 27  4  0
 28 29  4  0
M  END
$$$$

 Created by Python create_sdf_string function

 29 33  0  0  0  0  0  0  0  0999 V2000
   10.7215   -3.3326   17.6437 C   0  0  0  0  0  0  0  0  0  0  0  0
    9.9489   -3.4675   24.6487 N   0  0  0  0  0  0  0  0  0  0  0  0
   10.0172   -4.4740   17.4101 C   0  0  0  0  0  0  0  0  0  0  0  0
    6.9051   -7.9575   16.4222 C   0  0  0  0  0  0  0  0  0  0  0  0
    8.9969   -6.3552   17.9668 N   0  0  0  0  0  0  0  0  0  0  0  0
   10.6702   -3.9051   22.4070 C   0  0  0  0  0  0  0  0  0  0  0  0
   11.0625   -3.0028   18.8894 C   0  0  0  0  0  0  0  0  0  0  0  0
    5.6180   -7.9194   16.1754 O   0  0  0  0  0  0  0  0  0  0  0  0
    9.7259   -5.3080   18.4485 C   0  0  0  0  0  0  0  0  0  0  0  0
    9.4578   -5.0200   16.3036 N   0  0  0  0  0  0  0  0  0  0  0  0
    5.0287   -8.9365   16.8223 C   0  0  0  0  0  0  0  0  0  0  0  0
    8.7742   -6.1498   16.6764 C   0  0  0  0  0  0  0  0  0  0  0  0
   10.9418   -3.4032   21.2053 O   0  0  0  0  0  0  0  0  0  0  0  0
    1.4797   -8.6258   16.2950 C   0  0  0  0  0  0  0  0  0  0  0  0
    9.2861   -1.2743   25.3585 C   0  0  0  0  0  0  0  0  0  0  0  0
    1.8892  -10.3985   17.7511 N   0  0  0  0  0  0  0  0  0  0  0  0
    9.6210   -0.6952   24.0976 C   0  0  0  0  0  0  0  0  0  0  0  0
    7.0792   -9.0217   17.1429 C   0  0  0  0  0  0  0  0  0  0  0  0
    3.1713  -10.1816   17.6634 C   0  0  0  0  0  0  0  0  0  0  0  0
    2.7878   -8.3822   16.2137 C   0  0  0  0  0  0  0  0  0  0  0  0
    9.4601   -2.6590   25.6528 C   0  0  0  0  0  0  0  0  0  0  0  0
   10.1182   -1.5672   23.1165 C   0  0  0  0  0  0  0  0  0  0  0  0
    1.0552   -9.6360   17.0650 C   0  0  0  0  0  0  0  0  0  0  0  0
    3.6519   -9.1783   16.9039 C   0  0  0  0  0  0  0  0  0  0  0  0
    7.8675   -7.0096   15.9415 C   0  0  0  0  0  0  0  0  0  0  0  0
    5.9733   -9.6553   17.3832 N   0  0  0  0  0  0  0  0  0  0  0  0
   10.2411   -2.9363   23.4301 C   0  0  0  0  0  0  0  0  0  0  0  0
   10.7288   -3.8197   19.9525 C   0  0  0  0  0  0  0  0  0  0  0  0
   10.1189   -5.0054   19.6987 C   0  0  0  0  0  0  0  0  0  0  0  0
  1  3  4  0
  1  7  4  0
  2 21  4  0
  2 27  4  0
  3  9  4  0
  3 10  4  0
  4  8  4  0
  4 18  4  0
  4 25  1  0
  5  9  4  0
  5 12  4  0
  6 13  1  0
  6 27  1  0
  7 28  4  0
  8 11  4  0
  9 29  4  0
 10 12  4  0
 11 24  1  0
 11 26  4  0
 12 25  1  0
 13 28  1  0
 14 20  4  0
 14 23  4  0
 15 17  4  0
 15 21  4  0
 16 19  4  0
 16 23  4  0
 17 22  4  0
 18 26  4  0
 19 24  4  0
 20 24  4  0
 22 27  4  0
 28 29  4  0
M  END
$$$$

 Created by Python create_sdf_string function

 29 33  0  0  0  0  0  0  0  0999 V2000
   10.7215   -3.3326   17.6437 C   0  0  0  0  0  0  0  0  0  0  0  0
    9.9489   -3.4675   24.6487 N   0  0  0  0  0  0  0  0  0  0  0  0
   10.0172   -4.4740   17.4101 C   0  0  0  0  0  0  0  0  0  0  0  0
    6.9051   -7.9575   16.4222 C   0  0  0  0  0  0  0  0  0  0  0  0
    8.9969   -6.3552   17.9668 N   0  0  0  0  0  0  0  0  0  0  0  0
   10.6702   -3.9051   22.4070 C   0  0  0  0  0  0  0  0  0  0  0  0
   11.0625   -3.0028   18.8894 C   0  0  0  0  0  0  0  0  0  0  0  0
    5.6180   -7.9194   16.1754 O   0  0  0  0  0  0  0  0  0  0  0  0
    9.7259   -5.3080   18.4485 C   0  0  0  0  0  0  0  0  0  0  0  0
    9.4578   -5.0200   16.3036 N   0  0  0  0  0  0  0  0  0  0  0  0
    5.0287   -8.9365   16.8223 C   0  0  0  0  0  0  0  0  0  0  0  0
    8.7742   -6.1498   16.6764 C   0  0  0  0  0  0  0  0  0  0  0  0
   10.9418   -3.4032   21.2053 O   0  0  0  0  0  0  0  0  0  0  0  0
    1.4797   -8.6258   16.2950 C   0  0  0  0  0  0  0  0  0  0  0  0
    9.2861   -1.2743   25.3585 C   0  0  0  0  0  0  0  0  0  0  0  0
    1.8892  -10.3985   17.7511 N   0  0  0  0  0  0  0  0  0  0  0  0
    9.6210   -0.6952   24.0976 C   0  0  0  0  0  0  0  0  0  0  0  0
    7.0792   -9.0217   17.1429 C   0  0  0  0  0  0  0  0  0  0  0  0
    3.1713  -10.1816   17.6634 C   0  0  0  0  0  0  0  0  0  0  0  0
    2.7878   -8.3822   16.2137 C   0  0  0  0  0  0  0  0  0  0  0  0
    9.4601   -2.6590   25.6528 C   0  0  0  0  0  0  0  0  0  0  0  0
   10.1182   -1.5672   23.1165 C   0  0  0  0  0  0  0  0  0  0  0  0
    1.0552   -9.6360   17.0650 C   0  0  0  0  0  0  0  0  0  0  0  0
    3.6519   -9.1783   16.9039 C   0  0  0  0  0  0  0  0  0  0  0  0
    7.8675   -7.0096   15.9415 C   0  0  0  0  0  0  0  0  0  0  0  0
    5.9733   -9.6553   17.3832 N   0  0  0  0  0  0  0  0  0  0  0  0
   10.2411   -2.9363   23.4301 C   0  0  0  0  0  0  0  0  0  0  0  0
   10.7288   -3.8197   19.9525 C   0  0  0  0  0  0  0  0  0  0  0  0
   10.1189   -5.0054   19.6987 C   0  0  0  0  0  0  0  0  0  0  0  0
  1  3  4  0
  1  7  4  0
  2 21  4  0
  2 27  4  0
  3  9  4  0
  3 10  4  0
  4  8  4  0
  4 18  4  0
  4 25  1  0
  5  9  4  0
  5 12  4  0
  6 13  1  0
  6 27  1  0
  7 28  4  0
  8 11  4  0
  9 29  4  0
 10 12  4  0
 11 24  1  0
 11 26  4  0
 12 25  1  0
 13 28  1  0
 14 20  4  0
 14 23  4  0
 15 17  4  0
 15 21  4  0
 16 19  4  0
 16 23  4  0
 17 22  4  0
 18 26  4  0
 19 24  4  0
 20 24  4  0
 22 27  4  0
 28 29  4  0
M  END
$$$$

 Created by Python create_sdf_string function

 29 33  0  0  0  0  0  0  0  0999 V2000
   10.7215   -3.3326   17.6437 C   0  0  0  0  0  0  0  0  0  0  0  0
    9.9489   -3.4675   24.6487 N   0  0  0  0  0  0  0  0  0  0  0  0
   10.0172   -4.4740   17.4101 C   0  0  0  0  0  0  0  0  0  0  0  0
    6.9051   -7.9575   16.4222 C   0  0  0  0  0  0  0  0  0  0  0  0
    8.9969   -6.3552   17.9668 N   0  0  0  0  0  0  0  0  0  0  0  0
   10.6702   -3.9051   22.4070 C   0  0  0  0  0  0  0  0  0  0  0  0
   11.0625   -3.0028   18.8894 C   0  0  0  0  0  0  0  0  0  0  0  0
    5.6180   -7.9194   16.1754 O   0  0  0  0  0  0  0  0  0  0  0  0
    9.7259   -5.3080   18.4485 C   0  0  0  0  0  0  0  0  0  0  0  0
    9.4578   -5.0200   16.3036 N   0  0  0  0  0  0  0  0  0  0  0  0
    5.0287   -8.9365   16.8223 C   0  0  0  0  0  0  0  0  0  0  0  0
    8.7742   -6.1498   16.6764 C   0  0  0  0  0  0  0  0  0  0  0  0
   10.9418   -3.4032   21.2053 O   0  0  0  0  0  0  0  0  0  0  0  0
    1.4797   -8.6258   16.2950 C   0  0  0  0  0  0  0  0  0  0  0  0
    9.2861   -1.2743   25.3585 C   0  0  0  0  0  0  0  0  0  0  0  0
    1.8892  -10.3985   17.7511 N   0  0  0  0  0  0  0  0  0  0  0  0
    9.6210   -0.6952   24.0976 C   0  0  0  0  0  0  0  0  0  0  0  0
    7.0792   -9.0217   17.1429 C   0  0  0  0  0  0  0  0  0  0  0  0
    3.1713  -10.1816   17.6634 C   0  0  0  0  0  0  0  0  0  0  0  0
    2.7878   -8.3822   16.2137 C   0  0  0  0  0  0  0  0  0  0  0  0
    9.4601   -2.6590   25.6528 C   0  0  0  0  0  0  0  0  0  0  0  0
   10.1182   -1.5672   23.1165 C   0  0  0  0  0  0  0  0  0  0  0  0
    1.0552   -9.6360   17.0650 C   0  0  0  0  0  0  0  0  0  0  0  0
    3.6519   -9.1783   16.9039 C   0  0  0  0  0  0  0  0  0  0  0  0
    7.8675   -7.0096   15.9415 C   0  0  0  0  0  0  0  0  0  0  0  0
    5.9733   -9.6553   17.3832 N   0  0  0  0  0  0  0  0  0  0  0  0
   10.2411   -2.9363   23.4301 C   0  0  0  0  0  0  0  0  0  0  0  0
   10.7288   -3.8197   19.9525 C   0  0  0  0  0  0  0  0  0  0  0  0
   10.1189   -5.0054   19.6987 C   0  0  0  0  0  0  0  0  0  0  0  0
  1  3  4  0
  1  7  4  0
  2 21  4  0
  2 27  4  0
  3  9  4  0
  3 10  4  0
  4  8  4  0
  4 18  4  0
  4 25  1  0
  5  9  4  0
  5 12  4  0
  6 13  1  0
  6 27  1  0
  7 28  4  0
  8 11  4  0
  9 29  4  0
 10 12  4  0
 11 24  1  0
 11 26  4  0
 12 25  1  0
 13 28  1  0
 14 20  4  0
 14 23  4  0
 15 17  4  0
 15 21  4  0
 16 19  4  0
 16 23  4  0
 17 22  4  0
 18 26  4  0
 19 24  4  0
 20 24  4  0
 22 27  4  0
 28 29  4  0
M  END
$$$$

 Created by Python create_sdf_string function

 29 33  0  0  0  0  0  0  0  0999 V2000
   10.7215   -3.3326   17.6437 C   0  0  0  0  0  0  0  0  0  0  0  0
    9.9489   -3.4675   24.6487 N   0  0  0  0  0  0  0  0  0  0  0  0
   10.0172   -4.4740   17.4101 C   0  0  0  0  0  0  0  0  0  0  0  0
    6.9051   -7.9575   16.4222 C   0  0  0  0  0  0  0  0  0  0  0  0
    8.9969   -6.3552   17.9668 N   0  0  0  0  0  0  0  0  0  0  0  0
   10.6702   -3.9051   22.4070 C   0  0  0  0  0  0  0  0  0  0  0  0
   11.0625   -3.0028   18.8894 C   0  0  0  0  0  0  0  0  0  0  0  0
    5.6180   -7.9194   16.1754 O   0  0  0  0  0  0  0  0  0  0  0  0
    9.7259   -5.3080   18.4485 C   0  0  0  0  0  0  0  0  0  0  0  0
    9.4578   -5.0200   16.3036 N   0  0  0  0  0  0  0  0  0  0  0  0
    5.0287   -8.9365   16.8223 C   0  0  0  0  0  0  0  0  0  0  0  0
    8.7742   -6.1498   16.6764 C   0  0  0  0  0  0  0  0  0  0  0  0
   10.9418   -3.4032   21.2053 O   0  0  0  0  0  0  0  0  0  0  0  0
    1.4797   -8.6258   16.2950 C   0  0  0  0  0  0  0  0  0  0  0  0
    9.2861   -1.2743   25.3585 C   0  0  0  0  0  0  0  0  0  0  0  0
    1.8892  -10.3985   17.7511 N   0  0  0  0  0  0  0  0  0  0  0  0
    9.6210   -0.6952   24.0976 C   0  0  0  0  0  0  0  0  0  0  0  0
    7.0792   -9.0217   17.1429 C   0  0  0  0  0  0  0  0  0  0  0  0
    3.1713  -10.1816   17.6634 C   0  0  0  0  0  0  0  0  0  0  0  0
    2.7878   -8.3822   16.2137 C   0  0  0  0  0  0  0  0  0  0  0  0
    9.4601   -2.6590   25.6528 C   0  0  0  0  0  0  0  0  0  0  0  0
   10.1182   -1.5672   23.1165 C   0  0  0  0  0  0  0  0  0  0  0  0
    1.0552   -9.6360   17.0650 C   0  0  0  0  0  0  0  0  0  0  0  0
    3.6519   -9.1783   16.9039 C   0  0  0  0  0  0  0  0  0  0  0  0
    7.8675   -7.0096   15.9415 C   0  0  0  0  0  0  0  0  0  0  0  0
    5.9733   -9.6553   17.3832 N   0  0  0  0  0  0  0  0  0  0  0  0
   10.2411   -2.9363   23.4301 C   0  0  0  0  0  0  0  0  0  0  0  0
   10.7288   -3.8197   19.9525 C   0  0  0  0  0  0  0  0  0  0  0  0
   10.1189   -5.0054   19.6987 C   0  0  0  0  0  0  0  0  0  0  0  0
  1  3  4  0
  1  7  4  0
  2 21  4  0
  2 27  4  0
  3  9  4  0
  3 10  4  0
  4  8  4  0
  4 18  4  0
  4 25  1  0
  5  9  4  0
  5 12  4  0
  6 13  1  0
  6 27  1  0
  7 28  4  0
  8 11  4  0
  9 29  4  0
 10 12  4  0
 11 24  1  0
 11 26  4  0
 12 25  1  0
 13 28  1  0
 14 20  4  0
 14 23  4  0
 15 17  4  0
 15 21  4  0
 16 19  4  0
 16 23  4  0
 17 22  4  0
 18 26  4  0
 19 24  4  0
 20 24  4  0
 22 27  4  0
 28 29  4  0
M  END
$$$$

 Created by Python create_sdf_string function

 29 33  0  0  0  0  0  0  0  0999 V2000
   10.7215   -3.3326   17.6437 C   0  0  0  0  0  0  0  0  0  0  0  0
    9.9489   -3.4675   24.6487 N   0  0  0  0  0  0  0  0  0  0  0  0
   10.0172   -4.4740   17.4101 C   0  0  0  0  0  0  0  0  0  0  0  0
    6.9051   -7.9575   16.4222 C   0  0  0  0  0  0  0  0  0  0  0  0
    8.9969   -6.3552   17.9668 N   0  0  0  0  0  0  0  0  0  0  0  0
   10.6702   -3.9051   22.4070 C   0  0  0  0  0  0  0  0  0  0  0  0
   11.0625   -3.0028   18.8894 C   0  0  0  0  0  0  0  0  0  0  0  0
    5.6180   -7.9194   16.1754 O   0  0  0  0  0  0  0  0  0  0  0  0
    9.7259   -5.3080   18.4485 C   0  0  0  0  0  0  0  0  0  0  0  0
    9.4578   -5.0200   16.3036 N   0  0  0  0  0  0  0  0  0  0  0  0
    5.0287   -8.9365   16.8223 C   0  0  0  0  0  0  0  0  0  0  0  0
    8.7742   -6.1498   16.6764 C   0  0  0  0  0  0  0  0  0  0  0  0
   10.9418   -3.4032   21.2053 O   0  0  0  0  0  0  0  0  0  0  0  0
    1.4797   -8.6258   16.2950 C   0  0  0  0  0  0  0  0  0  0  0  0
    9.2861   -1.2743   25.3585 C   0  0  0  0  0  0  0  0  0  0  0  0
    1.8892  -10.3985   17.7511 N   0  0  0  0  0  0  0  0  0  0  0  0
    9.6210   -0.6952   24.0976 C   0  0  0  0  0  0  0  0  0  0  0  0
    7.0792   -9.0217   17.1429 C   0  0  0  0  0  0  0  0  0  0  0  0
    3.1713  -10.1816   17.6634 C   0  0  0  0  0  0  0  0  0  0  0  0
    2.7878   -8.3822   16.2137 C   0  0  0  0  0  0  0  0  0  0  0  0
    9.4601   -2.6590   25.6528 C   0  0  0  0  0  0  0  0  0  0  0  0
   10.1182   -1.5672   23.1165 C   0  0  0  0  0  0  0  0  0  0  0  0
    1.0552   -9.6360   17.0650 C   0  0  0  0  0  0  0  0  0  0  0  0
    3.6519   -9.1783   16.9039 C   0  0  0  0  0  0  0  0  0  0  0  0
    7.8675   -7.0096   15.9415 C   0  0  0  0  0  0  0  0  0  0  0  0
    5.9733   -9.6553   17.3832 N   0  0  0  0  0  0  0  0  0  0  0  0
   10.2411   -2.9363   23.4301 C   0  0  0  0  0  0  0  0  0  0  0  0
   10.7288   -3.8197   19.9525 C   0  0  0  0  0  0  0  0  0  0  0  0
   10.1189   -5.0054   19.6987 C   0  0  0  0  0  0  0  0  0  0  0  0
  1  3  4  0
  1  7  4  0
  2 21  4  0
  2 27  4  0
  3  9  4  0
  3 10  4  0
  4  8  4  0
  4 18  4  0
  4 25  1  0
  5  9  4  0
  5 12  4  0
  6 13  1  0
  6 27  1  0
  7 28  4  0
  8 11  4  0
  9 29  4  0
 10 12  4  0
 11 24  1  0
 11 26  4  0
 12 25  1  0
 13 28  1  0
 14 20  4  0
 14 23  4  0
 15 17  4  0
 15 21  4  0
 16 19  4  0
 16 23  4  0
 17 22  4  0
 18 26  4  0
 19 24  4  0
 20 24  4  0
 22 27  4  0
 28 29  4  0
M  END
$$$$

 Created by Python create_sdf_string function

 29 33  0  0  0  0  0  0  0  0999 V2000
   10.7215   -3.3326   17.6437 C   0  0  0  0  0  0  0  0  0  0  0  0
    9.9489   -3.4675   24.6487 N   0  0  0  0  0  0  0  0  0  0  0  0
   10.0172   -4.4740   17.4101 C   0  0  0  0  0  0  0  0  0  0  0  0
    6.9051   -7.9575   16.4222 C   0  0  0  0  0  0  0  0  0  0  0  0
    8.9969   -6.3552   17.9668 N   0  0  0  0  0  0  0  0  0  0  0  0
   10.6702   -3.9051   22.4070 C   0  0  0  0  0  0  0  0  0  0  0  0
   11.0625   -3.0028   18.8894 C   0  0  0  0  0  0  0  0  0  0  0  0
    5.6180   -7.9194   16.1754 O   0  0  0  0  0  0  0  0  0  0  0  0
    9.7259   -5.3080   18.4485 C   0  0  0  0  0  0  0  0  0  0  0  0
    9.4578   -5.0200   16.3036 N   0  0  0  0  0  0  0  0  0  0  0  0
    5.0287   -8.9365   16.8223 C   0  0  0  0  0  0  0  0  0  0  0  0
    8.7742   -6.1498   16.6764 C   0  0  0  0  0  0  0  0  0  0  0  0
   10.9418   -3.4032   21.2053 O   0  0  0  0  0  0  0  0  0  0  0  0
    1.4797   -8.6258   16.2950 C   0  0  0  0  0  0  0  0  0  0  0  0
    9.2861   -1.2743   25.3585 C   0  0  0  0  0  0  0  0  0  0  0  0
    1.8892  -10.3985   17.7511 N   0  0  0  0  0  0  0  0  0  0  0  0
    9.6210   -0.6952   24.0976 C   0  0  0  0  0  0  0  0  0  0  0  0
    7.0792   -9.0217   17.1429 C   0  0  0  0  0  0  0  0  0  0  0  0
    3.1713  -10.1816   17.6634 C   0  0  0  0  0  0  0  0  0  0  0  0
    2.7878   -8.3822   16.2137 C   0  0  0  0  0  0  0  0  0  0  0  0
    9.4601   -2.6590   25.6528 C   0  0  0  0  0  0  0  0  0  0  0  0
   10.1182   -1.5672   23.1165 C   0  0  0  0  0  0  0  0  0  0  0  0
    1.0552   -9.6360   17.0650 C   0  0  0  0  0  0  0  0  0  0  0  0
    3.6519   -9.1783   16.9039 C   0  0  0  0  0  0  0  0  0  0  0  0
    7.8675   -7.0096   15.9415 C   0  0  0  0  0  0  0  0  0  0  0  0
    5.9733   -9.6553   17.3832 N   0  0  0  0  0  0  0  0  0  0  0  0
   10.2411   -2.9363   23.4301 C   0  0  0  0  0  0  0  0  0  0  0  0
   10.7288   -3.8197   19.9525 C   0  0  0  0  0  0  0  0  0  0  0  0
   10.1189   -5.0054   19.6987 C   0  0  0  0  0  0  0  0  0  0  0  0
  1  3  4  0
  1  7  4  0
  2 21  4  0
  2 27  4  0
  3  9  4  0
  3 10  4  0
  4  8  4  0
  4 18  4  0
  4 25  1  0
  5  9  4  0
  5 12  4  0
  6 13  1  0
  6 27  1  0
  7 28  4  0
  8 11  4  0
  9 29  4  0
 10 12  4  0
 11 24  1  0
 11 26  4  0
 12 25  1  0
 13 28  1  0
 14 20  4  0
 14 23  4  0
 15 17  4  0
 15 21  4  0
 16 19  4  0
 16 23  4  0
 17 22  4  0
 18 26  4  0
 19 24  4  0
 20 24  4  0
 22 27  4  0
 28 29  4  0
M  END
$$$$

 Created by Python create_sdf_string function

 29 33  0  0  0  0  0  0  0  0999 V2000
   10.7215   -3.3326   17.6437 C   0  0  0  0  0  0  0  0  0  0  0  0
    9.9489   -3.4675   24.6487 N   0  0  0  0  0  0  0  0  0  0  0  0
   10.0172   -4.4740   17.4101 C   0  0  0  0  0  0  0  0  0  0  0  0
    6.9051   -7.9575   16.4222 C   0  0  0  0  0  0  0  0  0  0  0  0
    8.9969   -6.3552   17.9668 N   0  0  0  0  0  0  0  0  0  0  0  0
   10.6702   -3.9051   22.4070 C   0  0  0  0  0  0  0  0  0  0  0  0
   11.0625   -3.0028   18.8894 C   0  0  0  0  0  0  0  0  0  0  0  0
    5.6180   -7.9194   16.1754 O   0  0  0  0  0  0  0  0  0  0  0  0
    9.7259   -5.3080   18.4485 C   0  0  0  0  0  0  0  0  0  0  0  0
    9.4578   -5.0200   16.3036 N   0  0  0  0  0  0  0  0  0  0  0  0
    5.0287   -8.9365   16.8223 C   0  0  0  0  0  0  0  0  0  0  0  0
    8.7742   -6.1498   16.6764 C   0  0  0  0  0  0  0  0  0  0  0  0
   10.9418   -3.4032   21.2053 O   0  0  0  0  0  0  0  0  0  0  0  0
    1.4797   -8.6258   16.2950 C   0  0  0  0  0  0  0  0  0  0  0  0
    9.2861   -1.2743   25.3585 C   0  0  0  0  0  0  0  0  0  0  0  0
    1.8892  -10.3985   17.7511 N   0  0  0  0  0  0  0  0  0  0  0  0
    9.6210   -0.6952   24.0976 C   0  0  0  0  0  0  0  0  0  0  0  0
    7.0792   -9.0217   17.1429 C   0  0  0  0  0  0  0  0  0  0  0  0
    3.1713  -10.1816   17.6634 C   0  0  0  0  0  0  0  0  0  0  0  0
    2.7878   -8.3822   16.2137 C   0  0  0  0  0  0  0  0  0  0  0  0
    9.4601   -2.6590   25.6528 C   0  0  0  0  0  0  0  0  0  0  0  0
   10.1182   -1.5672   23.1165 C   0  0  0  0  0  0  0  0  0  0  0  0
    1.0552   -9.6360   17.0650 C   0  0  0  0  0  0  0  0  0  0  0  0
    3.6519   -9.1783   16.9039 C   0  0  0  0  0  0  0  0  0  0  0  0
    7.8675   -7.0096   15.9415 C   0  0  0  0  0  0  0  0  0  0  0  0
    5.9733   -9.6553   17.3832 N   0  0  0  0  0  0  0  0  0  0  0  0
   10.2411   -2.9363   23.4301 C   0  0  0  0  0  0  0  0  0  0  0  0
   10.7288   -3.8197   19.9525 C   0  0  0  0  0  0  0  0  0  0  0  0
   10.1189   -5.0054   19.6987 C   0  0  0  0  0  0  0  0  0  0  0  0
  1  3  4  0
  1  7  4  0
  2 21  4  0
  2 27  4  0
  3  9  4  0
  3 10  4  0
  4  8  4  0
  4 18  4  0
  4 25  1  0
  5  9  4  0
  5 12  4  0
  6 13  1  0
  6 27  1  0
  7 28  4  0
  8 11  4  0
  9 29  4  0
 10 12  4  0
 11 24  1  0
 11 26  4  0
 12 25  1  0
 13 28  1  0
 14 20  4  0
 14 23  4  0
 15 17  4  0
 15 21  4  0
 16 19  4  0
 16 23  4  0
 17 22  4  0
 18 26  4  0
 19 24  4  0
 20 24  4  0
 22 27  4  0
 28 29  4  0
M  END
$$$$

 Created by Python create_sdf_string function

 29 33  0  0  0  0  0  0  0  0999 V2000
   10.7215   -3.3326   17.6437 C   0  0  0  0  0  0  0  0  0  0  0  0
    9.9489   -3.4675   24.6487 N   0  0  0  0  0  0  0  0  0  0  0  0
   10.0172   -4.4740   17.4101 C   0  0  0  0  0  0  0  0  0  0  0  0
    6.9051   -7.9575   16.4222 C   0  0  0  0  0  0  0  0  0  0  0  0
    8.9969   -6.3552   17.9668 N   0  0  0  0  0  0  0  0  0  0  0  0
   10.6702   -3.9051   22.4070 C   0  0  0  0  0  0  0  0  0  0  0  0
   11.0625   -3.0028   18.8894 C   0  0  0  0  0  0  0  0  0  0  0  0
    5.6180   -7.9194   16.1754 O   0  0  0  0  0  0  0  0  0  0  0  0
    9.7259   -5.3080   18.4485 C   0  0  0  0  0  0  0  0  0  0  0  0
    9.4578   -5.0200   16.3036 N   0  0  0  0  0  0  0  0  0  0  0  0
    5.0287   -8.9365   16.8223 C   0  0  0  0  0  0  0  0  0  0  0  0
    8.7742   -6.1498   16.6764 C   0  0  0  0  0  0  0  0  0  0  0  0
   10.9418   -3.4032   21.2053 O   0  0  0  0  0  0  0  0  0  0  0  0
    1.4797   -8.6258   16.2950 C   0  0  0  0  0  0  0  0  0  0  0  0
    9.2861   -1.2743   25.3585 C   0  0  0  0  0  0  0  0  0  0  0  0
    1.8892  -10.3985   17.7511 N   0  0  0  0  0  0  0  0  0  0  0  0
    9.6210   -0.6952   24.0976 C   0  0  0  0  0  0  0  0  0  0  0  0
    7.0792   -9.0217   17.1429 C   0  0  0  0  0  0  0  0  0  0  0  0
    3.1713  -10.1816   17.6634 C   0  0  0  0  0  0  0  0  0  0  0  0
    2.7878   -8.3822   16.2137 C   0  0  0  0  0  0  0  0  0  0  0  0
    9.4601   -2.6590   25.6528 C   0  0  0  0  0  0  0  0  0  0  0  0
   10.1182   -1.5672   23.1165 C   0  0  0  0  0  0  0  0  0  0  0  0
    1.0552   -9.6360   17.0650 C   0  0  0  0  0  0  0  0  0  0  0  0
    3.6519   -9.1783   16.9039 C   0  0  0  0  0  0  0  0  0  0  0  0
    7.8675   -7.0096   15.9415 C   0  0  0  0  0  0  0  0  0  0  0  0
    5.9733   -9.6553   17.3832 N   0  0  0  0  0  0  0  0  0  0  0  0
   10.2411   -2.9363   23.4301 C   0  0  0  0  0  0  0  0  0  0  0  0
   10.7288   -3.8197   19.9525 C   0  0  0  0  0  0  0  0  0  0  0  0
   10.1189   -5.0054   19.6987 C   0  0  0  0  0  0  0  0  0  0  0  0
  1  3  4  0
  1  7  4  0
  2 21  4  0
  2 27  4  0
  3  9  4  0
  3 10  4  0
  4  8  4  0
  4 18  4  0
  4 25  1  0
  5  9  4  0
  5 12  4  0
  6 13  1  0
  6 27  1  0
  7 28  4  0
  8 11  4  0
  9 29  4  0
 10 12  4  0
 11 24  1  0
 11 26  4  0
 12 25  1  0
 13 28  1  0
 14 20  4  0
 14 23  4  0
 15 17  4  0
 15 21  4  0
 16 19  4  0
 16 23  4  0
 17 22  4  0
 18 26  4  0
 19 24  4  0
 20 24  4  0
 22 27  4  0
 28 29  4  0
M  END
$$$$

 Created by Python create_sdf_string function

 29 33  0  0  0  0  0  0  0  0999 V2000
   10.7215   -3.3326   17.6437 C   0  0  0  0  0  0  0  0  0  0  0  0
    9.9489   -3.4675   24.6487 N   0  0  0  0  0  0  0  0  0  0  0  0
   10.0172   -4.4740   17.4101 C   0  0  0  0  0  0  0  0  0  0  0  0
    6.9051   -7.9575   16.4222 C   0  0  0  0  0  0  0  0  0  0  0  0
    8.9969   -6.3552   17.9668 N   0  0  0  0  0  0  0  0  0  0  0  0
   10.6702   -3.9051   22.4070 C   0  0  0  0  0  0  0  0  0  0  0  0
   11.0625   -3.0028   18.8894 C   0  0  0  0  0  0  0  0  0  0  0  0
    5.6180   -7.9194   16.1754 O   0  0  0  0  0  0  0  0  0  0  0  0
    9.7259   -5.3080   18.4485 C   0  0  0  0  0  0  0  0  0  0  0  0
    9.4578   -5.0200   16.3036 N   0  0  0  0  0  0  0  0  0  0  0  0
    5.0287   -8.9365   16.8223 C   0  0  0  0  0  0  0  0  0  0  0  0
    8.7742   -6.1498   16.6764 C   0  0  0  0  0  0  0  0  0  0  0  0
   10.9418   -3.4032   21.2053 O   0  0  0  0  0  0  0  0  0  0  0  0
    1.4797   -8.6258   16.2950 C   0  0  0  0  0  0  0  0  0  0  0  0
    9.2861   -1.2743   25.3585 C   0  0  0  0  0  0  0  0  0  0  0  0
    1.8892  -10.3985   17.7511 N   0  0  0  0  0  0  0  0  0  0  0  0
    9.6210   -0.6952   24.0976 C   0  0  0  0  0  0  0  0  0  0  0  0
    7.0792   -9.0217   17.1429 C   0  0  0  0  0  0  0  0  0  0  0  0
    3.1713  -10.1816   17.6634 C   0  0  0  0  0  0  0  0  0  0  0  0
    2.7878   -8.3822   16.2137 C   0  0  0  0  0  0  0  0  0  0  0  0
    9.4601   -2.6590   25.6528 C   0  0  0  0  0  0  0  0  0  0  0  0
   10.1182   -1.5672   23.1165 C   0  0  0  0  0  0  0  0  0  0  0  0
    1.0552   -9.6360   17.0650 C   0  0  0  0  0  0  0  0  0  0  0  0
    3.6519   -9.1783   16.9039 C   0  0  0  0  0  0  0  0  0  0  0  0
    7.8675   -7.0096   15.9415 C   0  0  0  0  0  0  0  0  0  0  0  0
    5.9733   -9.6553   17.3832 N   0  0  0  0  0  0  0  0  0  0  0  0
   10.2411   -2.9363   23.4301 C   0  0  0  0  0  0  0  0  0  0  0  0
   10.7288   -3.8197   19.9525 C   0  0  0  0  0  0  0  0  0  0  0  0
   10.1189   -5.0054   19.6987 C   0  0  0  0  0  0  0  0  0  0  0  0
  1  3  4  0
  1  7  4  0
  2 21  4  0
  2 27  4  0
  3  9  4  0
  3 10  4  0
  4  8  4  0
  4 18  4  0
  4 25  1  0
  5  9  4  0
  5 12  4  0
  6 13  1  0
  6 27  1  0
  7 28  4  0
  8 11  4  0
  9 29  4  0
 10 12  4  0
 11 24  1  0
 11 26  4  0
 12 25  1  0
 13 28  1  0
 14 20  4  0
 14 23  4  0
 15 17  4  0
 15 21  4  0
 16 19  4  0
 16 23  4  0
 17 22  4  0
 18 26  4  0
 19 24  4  0
 20 24  4  0
 22 27  4  0
 28 29  4  0
M  END
$$$$

 Created by Python create_sdf_string function

 29 33  0  0  0  0  0  0  0  0999 V2000
   10.7215   -3.3326   17.6437 C   0  0  0  0  0  0  0  0  0  0  0  0
    9.9489   -3.4675   24.6487 N   0  0  0  0  0  0  0  0  0  0  0  0
   10.0172   -4.4740   17.4101 C   0  0  0  0  0  0  0  0  0  0  0  0
    6.9051   -7.9575   16.4222 C   0  0  0  0  0  0  0  0  0  0  0  0
    8.9969   -6.3552   17.9668 N   0  0  0  0  0  0  0  0  0  0  0  0
   10.6702   -3.9051   22.4070 C   0  0  0  0  0  0  0  0  0  0  0  0
   11.0625   -3.0028   18.8894 C   0  0  0  0  0  0  0  0  0  0  0  0
    5.6180   -7.9194   16.1754 O   0  0  0  0  0  0  0  0  0  0  0  0
    9.7259   -5.3080   18.4485 C   0  0  0  0  0  0  0  0  0  0  0  0
    9.4578   -5.0200   16.3036 N   0  0  0  0  0  0  0  0  0  0  0  0
    5.0287   -8.9365   16.8223 C   0  0  0  0  0  0  0  0  0  0  0  0
    8.7742   -6.1498   16.6764 C   0  0  0  0  0  0  0  0  0  0  0  0
   10.9418   -3.4032   21.2053 O   0  0  0  0  0  0  0  0  0  0  0  0
    1.4797   -8.6258   16.2950 C   0  0  0  0  0  0  0  0  0  0  0  0
    9.2861   -1.2743   25.3585 C   0  0  0  0  0  0  0  0  0  0  0  0
    1.8892  -10.3985   17.7511 N   0  0  0  0  0  0  0  0  0  0  0  0
    9.6210   -0.6952   24.0976 C   0  0  0  0  0  0  0  0  0  0  0  0
    7.0792   -9.0217   17.1429 C   0  0  0  0  0  0  0  0  0  0  0  0
    3.1713  -10.1816   17.6634 C   0  0  0  0  0  0  0  0  0  0  0  0
    2.7878   -8.3822   16.2137 C   0  0  0  0  0  0  0  0  0  0  0  0
    9.4601   -2.6590   25.6528 C   0  0  0  0  0  0  0  0  0  0  0  0
   10.1182   -1.5672   23.1165 C   0  0  0  0  0  0  0  0  0  0  0  0
    1.0552   -9.6360   17.0650 C   0  0  0  0  0  0  0  0  0  0  0  0
    3.6519   -9.1783   16.9039 C   0  0  0  0  0  0  0  0  0  0  0  0
    7.8675   -7.0096   15.9415 C   0  0  0  0  0  0  0  0  0  0  0  0
    5.9733   -9.6553   17.3832 N   0  0  0  0  0  0  0  0  0  0  0  0
   10.2411   -2.9363   23.4301 C   0  0  0  0  0  0  0  0  0  0  0  0
   10.7288   -3.8197   19.9525 C   0  0  0  0  0  0  0  0  0  0  0  0
   10.1189   -5.0054   19.6987 C   0  0  0  0  0  0  0  0  0  0  0  0
  1  3  4  0
  1  7  4  0
  2 21  4  0
  2 27  4  0
  3  9  4  0
  3 10  4  0
  4  8  4  0
  4 18  4  0
  4 25  1  0
  5  9  4  0
  5 12  4  0
  6 13  1  0
  6 27  1  0
  7 28  4  0
  8 11  4  0
  9 29  4  0
 10 12  4  0
 11 24  1  0
 11 26  4  0
 12 25  1  0
 13 28  1  0
 14 20  4  0
 14 23  4  0
 15 17  4  0
 15 21  4  0
 16 19  4  0
 16 23  4  0
 17 22  4  0
 18 26  4  0
 19 24  4  0
 20 24  4  0
 22 27  4  0
 28 29  4  0
M  END
$$$$

 Created by Python create_sdf_string function

 29 33  0  0  0  0  0  0  0  0999 V2000
   10.7215   -3.3326   17.6437 C   0  0  0  0  0  0  0  0  0  0  0  0
    9.9489   -3.4675   24.6487 N   0  0  0  0  0  0  0  0  0  0  0  0
   10.0172   -4.4740   17.4101 C   0  0  0  0  0  0  0  0  0  0  0  0
    6.9051   -7.9575   16.4222 C   0  0  0  0  0  0  0  0  0  0  0  0
    8.9969   -6.3552   17.9668 N   0  0  0  0  0  0  0  0  0  0  0  0
   10.6702   -3.9051   22.4070 C   0  0  0  0  0  0  0  0  0  0  0  0
   11.0625   -3.0028   18.8894 C   0  0  0  0  0  0  0  0  0  0  0  0
    5.6180   -7.9194   16.1754 O   0  0  0  0  0  0  0  0  0  0  0  0
    9.7259   -5.3080   18.4485 C   0  0  0  0  0  0  0  0  0  0  0  0
    9.4578   -5.0200   16.3036 N   0  0  0  0  0  0  0  0  0  0  0  0
    5.0287   -8.9365   16.8223 C   0  0  0  0  0  0  0  0  0  0  0  0
    8.7742   -6.1498   16.6764 C   0  0  0  0  0  0  0  0  0  0  0  0
   10.9418   -3.4032   21.2053 O   0  0  0  0  0  0  0  0  0  0  0  0
    1.4797   -8.6258   16.2950 C   0  0  0  0  0  0  0  0  0  0  0  0
    9.2861   -1.2743   25.3585 C   0  0  0  0  0  0  0  0  0  0  0  0
    1.8892  -10.3985   17.7511 N   0  0  0  0  0  0  0  0  0  0  0  0
    9.6210   -0.6952   24.0976 C   0  0  0  0  0  0  0  0  0  0  0  0
    7.0792   -9.0217   17.1429 C   0  0  0  0  0  0  0  0  0  0  0  0
    3.1713  -10.1816   17.6634 C   0  0  0  0  0  0  0  0  0  0  0  0
    2.7878   -8.3822   16.2137 C   0  0  0  0  0  0  0  0  0  0  0  0
    9.4601   -2.6590   25.6528 C   0  0  0  0  0  0  0  0  0  0  0  0
   10.1182   -1.5672   23.1165 C   0  0  0  0  0  0  0  0  0  0  0  0
    1.0552   -9.6360   17.0650 C   0  0  0  0  0  0  0  0  0  0  0  0
    3.6519   -9.1783   16.9039 C   0  0  0  0  0  0  0  0  0  0  0  0
    7.8675   -7.0096   15.9415 C   0  0  0  0  0  0  0  0  0  0  0  0
    5.9733   -9.6553   17.3832 N   0  0  0  0  0  0  0  0  0  0  0  0
   10.2411   -2.9363   23.4301 C   0  0  0  0  0  0  0  0  0  0  0  0
   10.7288   -3.8197   19.9525 C   0  0  0  0  0  0  0  0  0  0  0  0
   10.1189   -5.0054   19.6987 C   0  0  0  0  0  0  0  0  0  0  0  0
  1  3  4  0
  1  7  4  0
  2 21  4  0
  2 27  4  0
  3  9  4  0
  3 10  4  0
  4  8  4  0
  4 18  4  0
  4 25  1  0
  5  9  4  0
  5 12  4  0
  6 13  1  0
  6 27  1  0
  7 28  4  0
  8 11  4  0
  9 29  4  0
 10 12  4  0
 11 24  1  0
 11 26  4  0
 12 25  1  0
 13 28  1  0
 14 20  4  0
 14 23  4  0
 15 17  4  0
 15 21  4  0
 16 19  4  0
 16 23  4  0
 17 22  4  0
 18 26  4  0
 19 24  4  0
 20 24  4  0
 22 27  4  0
 28 29  4  0
M  END
$$$$

 Created by Python create_sdf_string function

 29 33  0  0  0  0  0  0  0  0999 V2000
   10.7215   -3.3326   17.6437 C   0  0  0  0  0  0  0  0  0  0  0  0
    9.9489   -3.4675   24.6487 N   0  0  0  0  0  0  0  0  0  0  0  0
   10.0172   -4.4740   17.4101 C   0  0  0  0  0  0  0  0  0  0  0  0
    6.9051   -7.9575   16.4222 C   0  0  0  0  0  0  0  0  0  0  0  0
    8.9969   -6.3552   17.9668 N   0  0  0  0  0  0  0  0  0  0  0  0
   10.6702   -3.9051   22.4070 C   0  0  0  0  0  0  0  0  0  0  0  0
   11.0625   -3.0028   18.8894 C   0  0  0  0  0  0  0  0  0  0  0  0
    5.6180   -7.9194   16.1754 O   0  0  0  0  0  0  0  0  0  0  0  0
    9.7259   -5.3080   18.4485 C   0  0  0  0  0  0  0  0  0  0  0  0
    9.4578   -5.0200   16.3036 N   0  0  0  0  0  0  0  0  0  0  0  0
    5.0287   -8.9365   16.8223 C   0  0  0  0  0  0  0  0  0  0  0  0
    8.7742   -6.1498   16.6764 C   0  0  0  0  0  0  0  0  0  0  0  0
   10.9418   -3.4032   21.2053 O   0  0  0  0  0  0  0  0  0  0  0  0
    1.4797   -8.6258   16.2950 C   0  0  0  0  0  0  0  0  0  0  0  0
    9.2861   -1.2743   25.3585 C   0  0  0  0  0  0  0  0  0  0  0  0
    1.8892  -10.3985   17.7511 N   0  0  0  0  0  0  0  0  0  0  0  0
    9.6210   -0.6952   24.0976 C   0  0  0  0  0  0  0  0  0  0  0  0
    7.0792   -9.0217   17.1429 C   0  0  0  0  0  0  0  0  0  0  0  0
    3.1713  -10.1816   17.6634 C   0  0  0  0  0  0  0  0  0  0  0  0
    2.7878   -8.3822   16.2137 C   0  0  0  0  0  0  0  0  0  0  0  0
    9.4601   -2.6590   25.6528 C   0  0  0  0  0  0  0  0  0  0  0  0
   10.1182   -1.5672   23.1165 C   0  0  0  0  0  0  0  0  0  0  0  0
    1.0552   -9.6360   17.0650 C   0  0  0  0  0  0  0  0  0  0  0  0
    3.6519   -9.1783   16.9039 C   0  0  0  0  0  0  0  0  0  0  0  0
    7.8675   -7.0096   15.9415 C   0  0  0  0  0  0  0  0  0  0  0  0
    5.9733   -9.6553   17.3832 N   0  0  0  0  0  0  0  0  0  0  0  0
   10.2411   -2.9363   23.4301 C   0  0  0  0  0  0  0  0  0  0  0  0
   10.7288   -3.8197   19.9525 C   0  0  0  0  0  0  0  0  0  0  0  0
   10.1189   -5.0054   19.6987 C   0  0  0  0  0  0  0  0  0  0  0  0
  1  3  4  0
  1  7  4  0
  2 21  4  0
  2 27  4  0
  3  9  4  0
  3 10  4  0
  4  8  4  0
  4 18  4  0
  4 25  1  0
  5  9  4  0
  5 12  4  0
  6 13  1  0
  6 27  1  0
  7 28  4  0
  8 11  4  0
  9 29  4  0
 10 12  4  0
 11 24  1  0
 11 26  4  0
 12 25  1  0
 13 28  1  0
 14 20  4  0
 14 23  4  0
 15 17  4  0
 15 21  4  0
 16 19  4  0
 16 23  4  0
 17 22  4  0
 18 26  4  0
 19 24  4  0
 20 24  4  0
 22 27  4  0
 28 29  4  0
M  END
$$$$

 Created by Python create_sdf_string function

 29 33  0  0  0  0  0  0  0  0999 V2000
   10.7215   -3.3326   17.6437 C   0  0  0  0  0  0  0  0  0  0  0  0
    9.9489   -3.4675   24.6487 N   0  0  0  0  0  0  0  0  0  0  0  0
   10.0172   -4.4740   17.4101 C   0  0  0  0  0  0  0  0  0  0  0  0
    6.9051   -7.9575   16.4222 C   0  0  0  0  0  0  0  0  0  0  0  0
    8.9969   -6.3552   17.9668 N   0  0  0  0  0  0  0  0  0  0  0  0
   10.6702   -3.9051   22.4070 C   0  0  0  0  0  0  0  0  0  0  0  0
   11.0625   -3.0028   18.8894 C   0  0  0  0  0  0  0  0  0  0  0  0
    5.6180   -7.9194   16.1754 O   0  0  0  0  0  0  0  0  0  0  0  0
    9.7259   -5.3080   18.4485 C   0  0  0  0  0  0  0  0  0  0  0  0
    9.4578   -5.0200   16.3036 N   0  0  0  0  0  0  0  0  0  0  0  0
    5.0287   -8.9365   16.8223 C   0  0  0  0  0  0  0  0  0  0  0  0
    8.7742   -6.1498   16.6764 C   0  0  0  0  0  0  0  0  0  0  0  0
   10.9418   -3.4032   21.2053 O   0  0  0  0  0  0  0  0  0  0  0  0
    1.4797   -8.6258   16.2950 C   0  0  0  0  0  0  0  0  0  0  0  0
    9.2861   -1.2743   25.3585 C   0  0  0  0  0  0  0  0  0  0  0  0
    1.8892  -10.3985   17.7511 N   0  0  0  0  0  0  0  0  0  0  0  0
    9.6210   -0.6952   24.0976 C   0  0  0  0  0  0  0  0  0  0  0  0
    7.0792   -9.0217   17.1429 C   0  0  0  0  0  0  0  0  0  0  0  0
    3.1713  -10.1816   17.6634 C   0  0  0  0  0  0  0  0  0  0  0  0
    2.7878   -8.3822   16.2137 C   0  0  0  0  0  0  0  0  0  0  0  0
    9.4601   -2.6590   25.6528 C   0  0  0  0  0  0  0  0  0  0  0  0
   10.1182   -1.5672   23.1165 C   0  0  0  0  0  0  0  0  0  0  0  0
    1.0552   -9.6360   17.0650 C   0  0  0  0  0  0  0  0  0  0  0  0
    3.6519   -9.1783   16.9039 C   0  0  0  0  0  0  0  0  0  0  0  0
    7.8675   -7.0096   15.9415 C   0  0  0  0  0  0  0  0  0  0  0  0
    5.9733   -9.6553   17.3832 N   0  0  0  0  0  0  0  0  0  0  0  0
   10.2411   -2.9363   23.4301 C   0  0  0  0  0  0  0  0  0  0  0  0
   10.7288   -3.8197   19.9525 C   0  0  0  0  0  0  0  0  0  0  0  0
   10.1189   -5.0054   19.6987 C   0  0  0  0  0  0  0  0  0  0  0  0
  1  3  4  0
  1  7  4  0
  2 21  4  0
  2 27  4  0
  3  9  4  0
  3 10  4  0
  4  8  4  0
  4 18  4  0
  4 25  1  0
  5  9  4  0
  5 12  4  0
  6 13  1  0
  6 27  1  0
  7 28  4  0
  8 11  4  0
  9 29  4  0
 10 12  4  0
 11 24  1  0
 11 26  4  0
 12 25  1  0
 13 28  1  0
 14 20  4  0
 14 23  4  0
 15 17  4  0
 15 21  4  0
 16 19  4  0
 16 23  4  0
 17 22  4  0
 18 26  4  0
 19 24  4  0
 20 24  4  0
 22 27  4  0
 28 29  4  0
M  END
$$$$

 Created by Python create_sdf_string function

 29 33  0  0  0  0  0  0  0  0999 V2000
   10.7215   -3.3326   17.6437 C   0  0  0  0  0  0  0  0  0  0  0  0
    9.9489   -3.4675   24.6487 N   0  0  0  0  0  0  0  0  0  0  0  0
   10.0172   -4.4740   17.4101 C   0  0  0  0  0  0  0  0  0  0  0  0
    6.9051   -7.9575   16.4222 C   0  0  0  0  0  0  0  0  0  0  0  0
    8.9969   -6.3552   17.9668 N   0  0  0  0  0  0  0  0  0  0  0  0
   10.6702   -3.9051   22.4070 C   0  0  0  0  0  0  0  0  0  0  0  0
   11.0625   -3.0028   18.8894 C   0  0  0  0  0  0  0  0  0  0  0  0
    5.6180   -7.9194   16.1754 O   0  0  0  0  0  0  0  0  0  0  0  0
    9.7259   -5.3080   18.4485 C   0  0  0  0  0  0  0  0  0  0  0  0
    9.4578   -5.0200   16.3036 N   0  0  0  0  0  0  0  0  0  0  0  0
    5.0287   -8.9365   16.8223 C   0  0  0  0  0  0  0  0  0  0  0  0
    8.7742   -6.1498   16.6764 C   0  0  0  0  0  0  0  0  0  0  0  0
   10.9418   -3.4032   21.2053 O   0  0  0  0  0  0  0  0  0  0  0  0
    1.4797   -8.6258   16.2950 C   0  0  0  0  0  0  0  0  0  0  0  0
    9.2861   -1.2743   25.3585 C   0  0  0  0  0  0  0  0  0  0  0  0
    1.8892  -10.3985   17.7511 N   0  0  0  0  0  0  0  0  0  0  0  0
    9.6210   -0.6952   24.0976 C   0  0  0  0  0  0  0  0  0  0  0  0
    7.0792   -9.0217   17.1429 C   0  0  0  0  0  0  0  0  0  0  0  0
    3.1713  -10.1816   17.6634 C   0  0  0  0  0  0  0  0  0  0  0  0
    2.7878   -8.3822   16.2137 C   0  0  0  0  0  0  0  0  0  0  0  0
    9.4601   -2.6590   25.6528 C   0  0  0  0  0  0  0  0  0  0  0  0
   10.1182   -1.5672   23.1165 C   0  0  0  0  0  0  0  0  0  0  0  0
    1.0552   -9.6360   17.0650 C   0  0  0  0  0  0  0  0  0  0  0  0
    3.6519   -9.1783   16.9039 C   0  0  0  0  0  0  0  0  0  0  0  0
    7.8675   -7.0096   15.9415 C   0  0  0  0  0  0  0  0  0  0  0  0
    5.9733   -9.6553   17.3832 N   0  0  0  0  0  0  0  0  0  0  0  0
   10.2411   -2.9363   23.4301 C   0  0  0  0  0  0  0  0  0  0  0  0
   10.7288   -3.8197   19.9525 C   0  0  0  0  0  0  0  0  0  0  0  0
   10.1189   -5.0054   19.6987 C   0  0  0  0  0  0  0  0  0  0  0  0
  1  3  4  0
  1  7  4  0
  2 21  4  0
  2 27  4  0
  3  9  4  0
  3 10  4  0
  4  8  4  0
  4 18  4  0
  4 25  1  0
  5  9  4  0
  5 12  4  0
  6 13  1  0
  6 27  1  0
  7 28  4  0
  8 11  4  0
  9 29  4  0
 10 12  4  0
 11 24  1  0
 11 26  4  0
 12 25  1  0
 13 28  1  0
 14 20  4  0
 14 23  4  0
 15 17  4  0
 15 21  4  0
 16 19  4  0
 16 23  4  0
 17 22  4  0
 18 26  4  0
 19 24  4  0
 20 24  4  0
 22 27  4  0
 28 29  4  0
M  END
$$$$

 Created by Python create_sdf_string function

 29 33  0  0  0  0  0  0  0  0999 V2000
   10.7215   -3.3326   17.6437 C   0  0  0  0  0  0  0  0  0  0  0  0
    9.9489   -3.4675   24.6487 N   0  0  0  0  0  0  0  0  0  0  0  0
   10.0172   -4.4740   17.4101 C   0  0  0  0  0  0  0  0  0  0  0  0
    6.9051   -7.9575   16.4222 C   0  0  0  0  0  0  0  0  0  0  0  0
    8.9969   -6.3552   17.9668 N   0  0  0  0  0  0  0  0  0  0  0  0
   10.6702   -3.9051   22.4070 C   0  0  0  0  0  0  0  0  0  0  0  0
   11.0625   -3.0028   18.8894 C   0  0  0  0  0  0  0  0  0  0  0  0
    5.6180   -7.9194   16.1754 O   0  0  0  0  0  0  0  0  0  0  0  0
    9.7259   -5.3080   18.4485 C   0  0  0  0  0  0  0  0  0  0  0  0
    9.4578   -5.0200   16.3036 N   0  0  0  0  0  0  0  0  0  0  0  0
    5.0287   -8.9365   16.8223 C   0  0  0  0  0  0  0  0  0  0  0  0
    8.7742   -6.1498   16.6764 C   0  0  0  0  0  0  0  0  0  0  0  0
   10.9418   -3.4032   21.2053 O   0  0  0  0  0  0  0  0  0  0  0  0
    1.4797   -8.6258   16.2950 C   0  0  0  0  0  0  0  0  0  0  0  0
    9.2861   -1.2743   25.3585 C   0  0  0  0  0  0  0  0  0  0  0  0
    1.8892  -10.3985   17.7511 N   0  0  0  0  0  0  0  0  0  0  0  0
    9.6210   -0.6952   24.0976 C   0  0  0  0  0  0  0  0  0  0  0  0
    7.0792   -9.0217   17.1429 C   0  0  0  0  0  0  0  0  0  0  0  0
    3.1713  -10.1816   17.6634 C   0  0  0  0  0  0  0  0  0  0  0  0
    2.7878   -8.3822   16.2137 C   0  0  0  0  0  0  0  0  0  0  0  0
    9.4601   -2.6590   25.6528 C   0  0  0  0  0  0  0  0  0  0  0  0
   10.1182   -1.5672   23.1165 C   0  0  0  0  0  0  0  0  0  0  0  0
    1.0552   -9.6360   17.0650 C   0  0  0  0  0  0  0  0  0  0  0  0
    3.6519   -9.1783   16.9039 C   0  0  0  0  0  0  0  0  0  0  0  0
    7.8675   -7.0096   15.9415 C   0  0  0  0  0  0  0  0  0  0  0  0
    5.9733   -9.6553   17.3832 N   0  0  0  0  0  0  0  0  0  0  0  0
   10.2411   -2.9363   23.4301 C   0  0  0  0  0  0  0  0  0  0  0  0
   10.7288   -3.8197   19.9525 C   0  0  0  0  0  0  0  0  0  0  0  0
   10.1189   -5.0054   19.6987 C   0  0  0  0  0  0  0  0  0  0  0  0
  1  3  4  0
  1  7  4  0
  2 21  4  0
  2 27  4  0
  3  9  4  0
  3 10  4  0
  4  8  4  0
  4 18  4  0
  4 25  1  0
  5  9  4  0
  5 12  4  0
  6 13  1  0
  6 27  1  0
  7 28  4  0
  8 11  4  0
  9 29  4  0
 10 12  4  0
 11 24  1  0
 11 26  4  0
 12 25  1  0
 13 28  1  0
 14 20  4  0
 14 23  4  0
 15 17  4  0
 15 21  4  0
 16 19  4  0
 16 23  4  0
 17 22  4  0
 18 26  4  0
 19 24  4  0
 20 24  4  0
 22 27  4  0
 28 29  4  0
M  END
$$$$

 Created by Python create_sdf_string function

 29 33  0  0  0  0  0  0  0  0999 V2000
   10.7215   -3.3326   17.6437 C   0  0  0  0  0  0  0  0  0  0  0  0
    9.9489   -3.4675   24.6487 N   0  0  0  0  0  0  0  0  0  0  0  0
   10.0172   -4.4740   17.4101 C   0  0  0  0  0  0  0  0  0  0  0  0
    6.9051   -7.9575   16.4222 C   0  0  0  0  0  0  0  0  0  0  0  0
    8.9969   -6.3552   17.9668 N   0  0  0  0  0  0  0  0  0  0  0  0
   10.6702   -3.9051   22.4070 C   0  0  0  0  0  0  0  0  0  0  0  0
   11.0625   -3.0028   18.8894 C   0  0  0  0  0  0  0  0  0  0  0  0
    5.6180   -7.9194   16.1754 O   0  0  0  0  0  0  0  0  0  0  0  0
    9.7259   -5.3080   18.4485 C   0  0  0  0  0  0  0  0  0  0  0  0
    9.4578   -5.0200   16.3036 N   0  0  0  0  0  0  0  0  0  0  0  0
    5.0287   -8.9365   16.8223 C   0  0  0  0  0  0  0  0  0  0  0  0
    8.7742   -6.1498   16.6764 C   0  0  0  0  0  0  0  0  0  0  0  0
   10.9418   -3.4032   21.2053 O   0  0  0  0  0  0  0  0  0  0  0  0
    1.4797   -8.6258   16.2950 C   0  0  0  0  0  0  0  0  0  0  0  0
    9.2861   -1.2743   25.3585 C   0  0  0  0  0  0  0  0  0  0  0  0
    1.8892  -10.3985   17.7511 N   0  0  0  0  0  0  0  0  0  0  0  0
    9.6210   -0.6952   24.0976 C   0  0  0  0  0  0  0  0  0  0  0  0
    7.0792   -9.0217   17.1429 C   0  0  0  0  0  0  0  0  0  0  0  0
    3.1713  -10.1816   17.6634 C   0  0  0  0  0  0  0  0  0  0  0  0
    2.7878   -8.3822   16.2137 C   0  0  0  0  0  0  0  0  0  0  0  0
    9.4601   -2.6590   25.6528 C   0  0  0  0  0  0  0  0  0  0  0  0
   10.1182   -1.5672   23.1165 C   0  0  0  0  0  0  0  0  0  0  0  0
    1.0552   -9.6360   17.0650 C   0  0  0  0  0  0  0  0  0  0  0  0
    3.6519   -9.1783   16.9039 C   0  0  0  0  0  0  0  0  0  0  0  0
    7.8675   -7.0096   15.9415 C   0  0  0  0  0  0  0  0  0  0  0  0
    5.9733   -9.6553   17.3832 N   0  0  0  0  0  0  0  0  0  0  0  0
   10.2411   -2.9363   23.4301 C   0  0  0  0  0  0  0  0  0  0  0  0
   10.7288   -3.8197   19.9525 C   0  0  0  0  0  0  0  0  0  0  0  0
   10.1189   -5.0054   19.6987 C   0  0  0  0  0  0  0  0  0  0  0  0
  1  3  4  0
  1  7  4  0
  2 21  4  0
  2 27  4  0
  3  9  4  0
  3 10  4  0
  4  8  4  0
  4 18  4  0
  4 25  1  0
  5  9  4  0
  5 12  4  0
  6 13  1  0
  6 27  1  0
  7 28  4  0
  8 11  4  0
  9 29  4  0
 10 12  4  0
 11 24  1  0
 11 26  4  0
 12 25  1  0
 13 28  1  0
 14 20  4  0
 14 23  4  0
 15 17  4  0
 15 21  4  0
 16 19  4  0
 16 23  4  0
 17 22  4  0
 18 26  4  0
 19 24  4  0
 20 24  4  0
 22 27  4  0
 28 29  4  0
M  END
$$$$

 Created by Python create_sdf_string function

 29 33  0  0  0  0  0  0  0  0999 V2000
   10.7215   -3.3326   17.6437 C   0  0  0  0  0  0  0  0  0  0  0  0
    9.9489   -3.4675   24.6487 N   0  0  0  0  0  0  0  0  0  0  0  0
   10.0172   -4.4740   17.4101 C   0  0  0  0  0  0  0  0  0  0  0  0
    6.9051   -7.9575   16.4222 C   0  0  0  0  0  0  0  0  0  0  0  0
    8.9969   -6.3552   17.9668 N   0  0  0  0  0  0  0  0  0  0  0  0
   10.6702   -3.9051   22.4070 C   0  0  0  0  0  0  0  0  0  0  0  0
   11.0625   -3.0028   18.8894 C   0  0  0  0  0  0  0  0  0  0  0  0
    5.6180   -7.9194   16.1754 O   0  0  0  0  0  0  0  0  0  0  0  0
    9.7259   -5.3080   18.4485 C   0  0  0  0  0  0  0  0  0  0  0  0
    9.4578   -5.0200   16.3036 N   0  0  0  0  0  0  0  0  0  0  0  0
    5.0287   -8.9365   16.8223 C   0  0  0  0  0  0  0  0  0  0  0  0
    8.7742   -6.1498   16.6764 C   0  0  0  0  0  0  0  0  0  0  0  0
   10.9418   -3.4032   21.2053 O   0  0  0  0  0  0  0  0  0  0  0  0
    1.4797   -8.6258   16.2950 C   0  0  0  0  0  0  0  0  0  0  0  0
    9.2861   -1.2743   25.3585 C   0  0  0  0  0  0  0  0  0  0  0  0
    1.8892  -10.3985   17.7511 N   0  0  0  0  0  0  0  0  0  0  0  0
    9.6210   -0.6952   24.0976 C   0  0  0  0  0  0  0  0  0  0  0  0
    7.0792   -9.0217   17.1429 C   0  0  0  0  0  0  0  0  0  0  0  0
    3.1713  -10.1816   17.6634 C   0  0  0  0  0  0  0  0  0  0  0  0
    2.7878   -8.3822   16.2137 C   0  0  0  0  0  0  0  0  0  0  0  0
    9.4601   -2.6590   25.6528 C   0  0  0  0  0  0  0  0  0  0  0  0
   10.1182   -1.5672   23.1165 C   0  0  0  0  0  0  0  0  0  0  0  0
    1.0552   -9.6360   17.0650 C   0  0  0  0  0  0  0  0  0  0  0  0
    3.6519   -9.1783   16.9039 C   0  0  0  0  0  0  0  0  0  0  0  0
    7.8675   -7.0096   15.9415 C   0  0  0  0  0  0  0  0  0  0  0  0
    5.9733   -9.6553   17.3832 N   0  0  0  0  0  0  0  0  0  0  0  0
   10.2411   -2.9363   23.4301 C   0  0  0  0  0  0  0  0  0  0  0  0
   10.7288   -3.8197   19.9525 C   0  0  0  0  0  0  0  0  0  0  0  0
   10.1189   -5.0054   19.6987 C   0  0  0  0  0  0  0  0  0  0  0  0
  1  3  4  0
  1  7  4  0
  2 21  4  0
  2 27  4  0
  3  9  4  0
  3 10  4  0
  4  8  4  0
  4 18  4  0
  4 25  1  0
  5  9  4  0
  5 12  4  0
  6 13  1  0
  6 27  1  0
  7 28  4  0
  8 11  4  0
  9 29  4  0
 10 12  4  0
 11 24  1  0
 11 26  4  0
 12 25  1  0
 13 28  1  0
 14 20  4  0
 14 23  4  0
 15 17  4  0
 15 21  4  0
 16 19  4  0
 16 23  4  0
 17 22  4  0
 18 26  4  0
 19 24  4  0
 20 24  4  0
 22 27  4  0
 28 29  4  0
M  END
$$$$

 Created by Python create_sdf_string function

 29 33  0  0  0  0  0  0  0  0999 V2000
   10.7215   -3.3326   17.6437 C   0  0  0  0  0  0  0  0  0  0  0  0
    9.9489   -3.4675   24.6487 N   0  0  0  0  0  0  0  0  0  0  0  0
   10.0172   -4.4740   17.4101 C   0  0  0  0  0  0  0  0  0  0  0  0
    6.9051   -7.9575   16.4222 C   0  0  0  0  0  0  0  0  0  0  0  0
    8.9969   -6.3552   17.9668 N   0  0  0  0  0  0  0  0  0  0  0  0
   10.6702   -3.9051   22.4070 C   0  0  0  0  0  0  0  0  0  0  0  0
   11.0625   -3.0028   18.8894 C   0  0  0  0  0  0  0  0  0  0  0  0
    5.6180   -7.9194   16.1754 O   0  0  0  0  0  0  0  0  0  0  0  0
    9.7259   -5.3080   18.4485 C   0  0  0  0  0  0  0  0  0  0  0  0
    9.4578   -5.0200   16.3036 N   0  0  0  0  0  0  0  0  0  0  0  0
    5.0287   -8.9365   16.8223 C   0  0  0  0  0  0  0  0  0  0  0  0
    8.7742   -6.1498   16.6764 C   0  0  0  0  0  0  0  0  0  0  0  0
   10.9418   -3.4032   21.2053 O   0  0  0  0  0  0  0  0  0  0  0  0
    1.4797   -8.6258   16.2950 C   0  0  0  0  0  0  0  0  0  0  0  0
    9.2861   -1.2743   25.3585 C   0  0  0  0  0  0  0  0  0  0  0  0
    1.8892  -10.3985   17.7511 N   0  0  0  0  0  0  0  0  0  0  0  0
    9.6210   -0.6952   24.0976 C   0  0  0  0  0  0  0  0  0  0  0  0
    7.0792   -9.0217   17.1429 C   0  0  0  0  0  0  0  0  0  0  0  0
    3.1713  -10.1816   17.6634 C   0  0  0  0  0  0  0  0  0  0  0  0
    2.7878   -8.3822   16.2137 C   0  0  0  0  0  0  0  0  0  0  0  0
    9.4601   -2.6590   25.6528 C   0  0  0  0  0  0  0  0  0  0  0  0
   10.1182   -1.5672   23.1165 C   0  0  0  0  0  0  0  0  0  0  0  0
    1.0552   -9.6360   17.0650 C   0  0  0  0  0  0  0  0  0  0  0  0
    3.6519   -9.1783   16.9039 C   0  0  0  0  0  0  0  0  0  0  0  0
    7.8675   -7.0096   15.9415 C   0  0  0  0  0  0  0  0  0  0  0  0
    5.9733   -9.6553   17.3832 N   0  0  0  0  0  0  0  0  0  0  0  0
   10.2411   -2.9363   23.4301 C   0  0  0  0  0  0  0  0  0  0  0  0
   10.7288   -3.8197   19.9525 C   0  0  0  0  0  0  0  0  0  0  0  0
   10.1189   -5.0054   19.6987 C   0  0  0  0  0  0  0  0  0  0  0  0
  1  3  4  0
  1  7  4  0
  2 21  4  0
  2 27  4  0
  3  9  4  0
  3 10  4  0
  4  8  4  0
  4 18  4  0
  4 25  1  0
  5  9  4  0
  5 12  4  0
  6 13  1  0
  6 27  1  0
  7 28  4  0
  8 11  4  0
  9 29  4  0
 10 12  4  0
 11 24  1  0
 11 26  4  0
 12 25  1  0
 13 28  1  0
 14 20  4  0
 14 23  4  0
 15 17  4  0
 15 21  4  0
 16 19  4  0
 16 23  4  0
 17 22  4  0
 18 26  4  0
 19 24  4  0
 20 24  4  0
 22 27  4  0
 28 29  4  0
M  END
$$$$

 Created by Python create_sdf_string function

 29 33  0  0  0  0  0  0  0  0999 V2000
   10.7215   -3.3326   17.6437 C   0  0  0  0  0  0  0  0  0  0  0  0
    9.9489   -3.4675   24.6487 N   0  0  0  0  0  0  0  0  0  0  0  0
   10.0172   -4.4740   17.4101 C   0  0  0  0  0  0  0  0  0  0  0  0
    6.9051   -7.9575   16.4222 C   0  0  0  0  0  0  0  0  0  0  0  0
    8.9969   -6.3552   17.9668 N   0  0  0  0  0  0  0  0  0  0  0  0
   10.6702   -3.9051   22.4070 C   0  0  0  0  0  0  0  0  0  0  0  0
   11.0625   -3.0028   18.8894 C   0  0  0  0  0  0  0  0  0  0  0  0
    5.6180   -7.9194   16.1754 O   0  0  0  0  0  0  0  0  0  0  0  0
    9.7259   -5.3080   18.4485 C   0  0  0  0  0  0  0  0  0  0  0  0
    9.4578   -5.0200   16.3036 N   0  0  0  0  0  0  0  0  0  0  0  0
    5.0287   -8.9365   16.8223 C   0  0  0  0  0  0  0  0  0  0  0  0
    8.7742   -6.1498   16.6764 C   0  0  0  0  0  0  0  0  0  0  0  0
   10.9418   -3.4032   21.2053 O   0  0  0  0  0  0  0  0  0  0  0  0
    1.4797   -8.6258   16.2950 C   0  0  0  0  0  0  0  0  0  0  0  0
    9.2861   -1.2743   25.3585 C   0  0  0  0  0  0  0  0  0  0  0  0
    1.8892  -10.3985   17.7511 N   0  0  0  0  0  0  0  0  0  0  0  0
    9.6210   -0.6952   24.0976 C   0  0  0  0  0  0  0  0  0  0  0  0
    7.0792   -9.0217   17.1429 C   0  0  0  0  0  0  0  0  0  0  0  0
    3.1713  -10.1816   17.6634 C   0  0  0  0  0  0  0  0  0  0  0  0
    2.7878   -8.3822   16.2137 C   0  0  0  0  0  0  0  0  0  0  0  0
    9.4601   -2.6590   25.6528 C   0  0  0  0  0  0  0  0  0  0  0  0
   10.1182   -1.5672   23.1165 C   0  0  0  0  0  0  0  0  0  0  0  0
    1.0552   -9.6360   17.0650 C   0  0  0  0  0  0  0  0  0  0  0  0
    3.6519   -9.1783   16.9039 C   0  0  0  0  0  0  0  0  0  0  0  0
    7.8675   -7.0096   15.9415 C   0  0  0  0  0  0  0  0  0  0  0  0
    5.9733   -9.6553   17.3832 N   0  0  0  0  0  0  0  0  0  0  0  0
   10.2411   -2.9363   23.4301 C   0  0  0  0  0  0  0  0  0  0  0  0
   10.7288   -3.8197   19.9525 C   0  0  0  0  0  0  0  0  0  0  0  0
   10.1189   -5.0054   19.6987 C   0  0  0  0  0  0  0  0  0  0  0  0
  1  3  4  0
  1  7  4  0
  2 21  4  0
  2 27  4  0
  3  9  4  0
  3 10  4  0
  4  8  4  0
  4 18  4  0
  4 25  1  0
  5  9  4  0
  5 12  4  0
  6 13  1  0
  6 27  1  0
  7 28  4  0
  8 11  4  0
  9 29  4  0
 10 12  4  0
 11 24  1  0
 11 26  4  0
 12 25  1  0
 13 28  1  0
 14 20  4  0
 14 23  4  0
 15 17  4  0
 15 21  4  0
 16 19  4  0
 16 23  4  0
 17 22  4  0
 18 26  4  0
 19 24  4  0
 20 24  4  0
 22 27  4  0
 28 29  4  0
M  END
$$$$

 Created by Python create_sdf_string function

 29 33  0  0  0  0  0  0  0  0999 V2000
   10.7215   -3.3326   17.6437 C   0  0  0  0  0  0  0  0  0  0  0  0
    9.9489   -3.4675   24.6487 N   0  0  0  0  0  0  0  0  0  0  0  0
   10.0172   -4.4740   17.4101 C   0  0  0  0  0  0  0  0  0  0  0  0
    6.9051   -7.9575   16.4222 C   0  0  0  0  0  0  0  0  0  0  0  0
    8.9969   -6.3552   17.9668 N   0  0  0  0  0  0  0  0  0  0  0  0
   10.6702   -3.9051   22.4070 C   0  0  0  0  0  0  0  0  0  0  0  0
   11.0625   -3.0028   18.8894 C   0  0  0  0  0  0  0  0  0  0  0  0
    5.6180   -7.9194   16.1754 O   0  0  0  0  0  0  0  0  0  0  0  0
    9.7259   -5.3080   18.4485 C   0  0  0  0  0  0  0  0  0  0  0  0
    9.4578   -5.0200   16.3036 N   0  0  0  0  0  0  0  0  0  0  0  0
    5.0287   -8.9365   16.8223 C   0  0  0  0  0  0  0  0  0  0  0  0
    8.7742   -6.1498   16.6764 C   0  0  0  0  0  0  0  0  0  0  0  0
   10.9418   -3.4032   21.2053 O   0  0  0  0  0  0  0  0  0  0  0  0
    1.4797   -8.6258   16.2950 C   0  0  0  0  0  0  0  0  0  0  0  0
    9.2861   -1.2743   25.3585 C   0  0  0  0  0  0  0  0  0  0  0  0
    1.8892  -10.3985   17.7511 N   0  0  0  0  0  0  0  0  0  0  0  0
    9.6210   -0.6952   24.0976 C   0  0  0  0  0  0  0  0  0  0  0  0
    7.0792   -9.0217   17.1429 C   0  0  0  0  0  0  0  0  0  0  0  0
    3.1713  -10.1816   17.6634 C   0  0  0  0  0  0  0  0  0  0  0  0
    2.7878   -8.3822   16.2137 C   0  0  0  0  0  0  0  0  0  0  0  0
    9.4601   -2.6590   25.6528 C   0  0  0  0  0  0  0  0  0  0  0  0
   10.1182   -1.5672   23.1165 C   0  0  0  0  0  0  0  0  0  0  0  0
    1.0552   -9.6360   17.0650 C   0  0  0  0  0  0  0  0  0  0  0  0
    3.6519   -9.1783   16.9039 C   0  0  0  0  0  0  0  0  0  0  0  0
    7.8675   -7.0096   15.9415 C   0  0  0  0  0  0  0  0  0  0  0  0
    5.9733   -9.6553   17.3832 N   0  0  0  0  0  0  0  0  0  0  0  0
   10.2411   -2.9363   23.4301 C   0  0  0  0  0  0  0  0  0  0  0  0
   10.7288   -3.8197   19.9525 C   0  0  0  0  0  0  0  0  0  0  0  0
   10.1189   -5.0054   19.6987 C   0  0  0  0  0  0  0  0  0  0  0  0
  1  3  4  0
  1  7  4  0
  2 21  4  0
  2 27  4  0
  3  9  4  0
  3 10  4  0
  4  8  4  0
  4 18  4  0
  4 25  1  0
  5  9  4  0
  5 12  4  0
  6 13  1  0
  6 27  1  0
  7 28  4  0
  8 11  4  0
  9 29  4  0
 10 12  4  0
 11 24  1  0
 11 26  4  0
 12 25  1  0
 13 28  1  0
 14 20  4  0
 14 23  4  0
 15 17  4  0
 15 21  4  0
 16 19  4  0
 16 23  4  0
 17 22  4  0
 18 26  4  0
 19 24  4  0
 20 24  4  0
 22 27  4  0
 28 29  4  0
M  END
$$$$

 Created by Python create_sdf_string function

 29 33  0  0  0  0  0  0  0  0999 V2000
   10.7215   -3.3326   17.6437 C   0  0  0  0  0  0  0  0  0  0  0  0
    9.9489   -3.4675   24.6487 N   0  0  0  0  0  0  0  0  0  0  0  0
   10.0172   -4.4740   17.4101 C   0  0  0  0  0  0  0  0  0  0  0  0
    6.9051   -7.9575   16.4222 C   0  0  0  0  0  0  0  0  0  0  0  0
    8.9969   -6.3552   17.9668 N   0  0  0  0  0  0  0  0  0  0  0  0
   10.6702   -3.9051   22.4070 C   0  0  0  0  0  0  0  0  0  0  0  0
   11.0625   -3.0028   18.8894 C   0  0  0  0  0  0  0  0  0  0  0  0
    5.6180   -7.9194   16.1754 O   0  0  0  0  0  0  0  0  0  0  0  0
    9.7259   -5.3080   18.4485 C   0  0  0  0  0  0  0  0  0  0  0  0
    9.4578   -5.0200   16.3036 N   0  0  0  0  0  0  0  0  0  0  0  0
    5.0287   -8.9365   16.8223 C   0  0  0  0  0  0  0  0  0  0  0  0
    8.7742   -6.1498   16.6764 C   0  0  0  0  0  0  0  0  0  0  0  0
   10.9418   -3.4032   21.2053 O   0  0  0  0  0  0  0  0  0  0  0  0
    1.4797   -8.6258   16.2950 C   0  0  0  0  0  0  0  0  0  0  0  0
    9.2861   -1.2743   25.3585 C   0  0  0  0  0  0  0  0  0  0  0  0
    1.8892  -10.3985   17.7511 N   0  0  0  0  0  0  0  0  0  0  0  0
    9.6210   -0.6952   24.0976 C   0  0  0  0  0  0  0  0  0  0  0  0
    7.0792   -9.0217   17.1429 C   0  0  0  0  0  0  0  0  0  0  0  0
    3.1713  -10.1816   17.6634 C   0  0  0  0  0  0  0  0  0  0  0  0
    2.7878   -8.3822   16.2137 C   0  0  0  0  0  0  0  0  0  0  0  0
    9.4601   -2.6590   25.6528 C   0  0  0  0  0  0  0  0  0  0  0  0
   10.1182   -1.5672   23.1165 C   0  0  0  0  0  0  0  0  0  0  0  0
    1.0552   -9.6360   17.0650 C   0  0  0  0  0  0  0  0  0  0  0  0
    3.6519   -9.1783   16.9039 C   0  0  0  0  0  0  0  0  0  0  0  0
    7.8675   -7.0096   15.9415 C   0  0  0  0  0  0  0  0  0  0  0  0
    5.9733   -9.6553   17.3832 N   0  0  0  0  0  0  0  0  0  0  0  0
   10.2411   -2.9363   23.4301 C   0  0  0  0  0  0  0  0  0  0  0  0
   10.7288   -3.8197   19.9525 C   0  0  0  0  0  0  0  0  0  0  0  0
   10.1189   -5.0054   19.6987 C   0  0  0  0  0  0  0  0  0  0  0  0
  1  3  4  0
  1  7  4  0
  2 21  4  0
  2 27  4  0
  3  9  4  0
  3 10  4  0
  4  8  4  0
  4 18  4  0
  4 25  1  0
  5  9  4  0
  5 12  4  0
  6 13  1  0
  6 27  1  0
  7 28  4  0
  8 11  4  0
  9 29  4  0
 10 12  4  0
 11 24  1  0
 11 26  4  0
 12 25  1  0
 13 28  1  0
 14 20  4  0
 14 23  4  0
 15 17  4  0
 15 21  4  0
 16 19  4  0
 16 23  4  0
 17 22  4  0
 18 26  4  0
 19 24  4  0
 20 24  4  0
 22 27  4  0
 28 29  4  0
M  END
$$$$

 Created by Python create_sdf_string function

 29 33  0  0  0  0  0  0  0  0999 V2000
   10.7215   -3.3326   17.6437 C   0  0  0  0  0  0  0  0  0  0  0  0
    9.9489   -3.4675   24.6487 N   0  0  0  0  0  0  0  0  0  0  0  0
   10.0172   -4.4740   17.4101 C   0  0  0  0  0  0  0  0  0  0  0  0
    6.9051   -7.9575   16.4222 C   0  0  0  0  0  0  0  0  0  0  0  0
    8.9969   -6.3552   17.9668 N   0  0  0  0  0  0  0  0  0  0  0  0
   10.6702   -3.9051   22.4070 C   0  0  0  0  0  0  0  0  0  0  0  0
   11.0625   -3.0028   18.8894 C   0  0  0  0  0  0  0  0  0  0  0  0
    5.6180   -7.9194   16.1754 O   0  0  0  0  0  0  0  0  0  0  0  0
    9.7259   -5.3080   18.4485 C   0  0  0  0  0  0  0  0  0  0  0  0
    9.4578   -5.0200   16.3036 N   0  0  0  0  0  0  0  0  0  0  0  0
    5.0287   -8.9365   16.8223 C   0  0  0  0  0  0  0  0  0  0  0  0
    8.7742   -6.1498   16.6764 C   0  0  0  0  0  0  0  0  0  0  0  0
   10.9418   -3.4032   21.2053 O   0  0  0  0  0  0  0  0  0  0  0  0
    1.4797   -8.6258   16.2950 C   0  0  0  0  0  0  0  0  0  0  0  0
    9.2861   -1.2743   25.3585 C   0  0  0  0  0  0  0  0  0  0  0  0
    1.8892  -10.3985   17.7511 N   0  0  0  0  0  0  0  0  0  0  0  0
    9.6210   -0.6952   24.0976 C   0  0  0  0  0  0  0  0  0  0  0  0
    7.0792   -9.0217   17.1429 C   0  0  0  0  0  0  0  0  0  0  0  0
    3.1713  -10.1816   17.6634 C   0  0  0  0  0  0  0  0  0  0  0  0
    2.7878   -8.3822   16.2137 C   0  0  0  0  0  0  0  0  0  0  0  0
    9.4601   -2.6590   25.6528 C   0  0  0  0  0  0  0  0  0  0  0  0
   10.1182   -1.5672   23.1165 C   0  0  0  0  0  0  0  0  0  0  0  0
    1.0552   -9.6360   17.0650 C   0  0  0  0  0  0  0  0  0  0  0  0
    3.6519   -9.1783   16.9039 C   0  0  0  0  0  0  0  0  0  0  0  0
    7.8675   -7.0096   15.9415 C   0  0  0  0  0  0  0  0  0  0  0  0
    5.9733   -9.6553   17.3832 N   0  0  0  0  0  0  0  0  0  0  0  0
   10.2411   -2.9363   23.4301 C   0  0  0  0  0  0  0  0  0  0  0  0
   10.7288   -3.8197   19.9525 C   0  0  0  0  0  0  0  0  0  0  0  0
   10.1189   -5.0054   19.6987 C   0  0  0  0  0  0  0  0  0  0  0  0
  1  3  4  0
  1  7  4  0
  2 21  4  0
  2 27  4  0
  3  9  4  0
  3 10  4  0
  4  8  4  0
  4 18  4  0
  4 25  1  0
  5  9  4  0
  5 12  4  0
  6 13  1  0
  6 27  1  0
  7 28  4  0
  8 11  4  0
  9 29  4  0
 10 12  4  0
 11 24  1  0
 11 26  4  0
 12 25  1  0
 13 28  1  0
 14 20  4  0
 14 23  4  0
 15 17  4  0
 15 21  4  0
 16 19  4  0
 16 23  4  0
 17 22  4  0
 18 26  4  0
 19 24  4  0
 20 24  4  0
 22 27  4  0
 28 29  4  0
M  END
$$$$

 Created by Python create_sdf_string function

 29 33  0  0  0  0  0  0  0  0999 V2000
   10.7215   -3.3326   17.6437 C   0  0  0  0  0  0  0  0  0  0  0  0
    9.9489   -3.4675   24.6487 N   0  0  0  0  0  0  0  0  0  0  0  0
   10.0172   -4.4740   17.4101 C   0  0  0  0  0  0  0  0  0  0  0  0
    6.9051   -7.9575   16.4222 C   0  0  0  0  0  0  0  0  0  0  0  0
    8.9969   -6.3552   17.9668 N   0  0  0  0  0  0  0  0  0  0  0  0
   10.6702   -3.9051   22.4070 C   0  0  0  0  0  0  0  0  0  0  0  0
   11.0625   -3.0028   18.8894 C   0  0  0  0  0  0  0  0  0  0  0  0
    5.6180   -7.9194   16.1754 O   0  0  0  0  0  0  0  0  0  0  0  0
    9.7259   -5.3080   18.4485 C   0  0  0  0  0  0  0  0  0  0  0  0
    9.4578   -5.0200   16.3036 N   0  0  0  0  0  0  0  0  0  0  0  0
    5.0287   -8.9365   16.8223 C   0  0  0  0  0  0  0  0  0  0  0  0
    8.7742   -6.1498   16.6764 C   0  0  0  0  0  0  0  0  0  0  0  0
   10.9418   -3.4032   21.2053 O   0  0  0  0  0  0  0  0  0  0  0  0
    1.4797   -8.6258   16.2950 C   0  0  0  0  0  0  0  0  0  0  0  0
    9.2861   -1.2743   25.3585 C   0  0  0  0  0  0  0  0  0  0  0  0
    1.8892  -10.3985   17.7511 N   0  0  0  0  0  0  0  0  0  0  0  0
    9.6210   -0.6952   24.0976 C   0  0  0  0  0  0  0  0  0  0  0  0
    7.0792   -9.0217   17.1429 C   0  0  0  0  0  0  0  0  0  0  0  0
    3.1713  -10.1816   17.6634 C   0  0  0  0  0  0  0  0  0  0  0  0
    2.7878   -8.3822   16.2137 C   0  0  0  0  0  0  0  0  0  0  0  0
    9.4601   -2.6590   25.6528 C   0  0  0  0  0  0  0  0  0  0  0  0
   10.1182   -1.5672   23.1165 C   0  0  0  0  0  0  0  0  0  0  0  0
    1.0552   -9.6360   17.0650 C   0  0  0  0  0  0  0  0  0  0  0  0
    3.6519   -9.1783   16.9039 C   0  0  0  0  0  0  0  0  0  0  0  0
    7.8675   -7.0096   15.9415 C   0  0  0  0  0  0  0  0  0  0  0  0
    5.9733   -9.6553   17.3832 N   0  0  0  0  0  0  0  0  0  0  0  0
   10.2411   -2.9363   23.4301 C   0  0  0  0  0  0  0  0  0  0  0  0
   10.7288   -3.8197   19.9525 C   0  0  0  0  0  0  0  0  0  0  0  0
   10.1189   -5.0054   19.6987 C   0  0  0  0  0  0  0  0  0  0  0  0
  1  3  4  0
  1  7  4  0
  2 21  4  0
  2 27  4  0
  3  9  4  0
  3 10  4  0
  4  8  4  0
  4 18  4  0
  4 25  1  0
  5  9  4  0
  5 12  4  0
  6 13  1  0
  6 27  1  0
  7 28  4  0
  8 11  4  0
  9 29  4  0
 10 12  4  0
 11 24  1  0
 11 26  4  0
 12 25  1  0
 13 28  1  0
 14 20  4  0
 14 23  4  0
 15 17  4  0
 15 21  4  0
 16 19  4  0
 16 23  4  0
 17 22  4  0
 18 26  4  0
 19 24  4  0
 20 24  4  0
 22 27  4  0
 28 29  4  0
M  END
$$$$

 Created by Python create_sdf_string function

 29 33  0  0  0  0  0  0  0  0999 V2000
   10.7215   -3.3326   17.6437 C   0  0  0  0  0  0  0  0  0  0  0  0
    9.9489   -3.4675   24.6487 N   0  0  0  0  0  0  0  0  0  0  0  0
   10.0172   -4.4740   17.4101 C   0  0  0  0  0  0  0  0  0  0  0  0
    6.9051   -7.9575   16.4222 C   0  0  0  0  0  0  0  0  0  0  0  0
    8.9969   -6.3552   17.9668 N   0  0  0  0  0  0  0  0  0  0  0  0
   10.6702   -3.9051   22.4070 C   0  0  0  0  0  0  0  0  0  0  0  0
   11.0625   -3.0028   18.8894 C   0  0  0  0  0  0  0  0  0  0  0  0
    5.6180   -7.9194   16.1754 O   0  0  0  0  0  0  0  0  0  0  0  0
    9.7259   -5.3080   18.4485 C   0  0  0  0  0  0  0  0  0  0  0  0
    9.4578   -5.0200   16.3036 N   0  0  0  0  0  0  0  0  0  0  0  0
    5.0287   -8.9365   16.8223 C   0  0  0  0  0  0  0  0  0  0  0  0
    8.7742   -6.1498   16.6764 C   0  0  0  0  0  0  0  0  0  0  0  0
   10.9418   -3.4032   21.2053 O   0  0  0  0  0  0  0  0  0  0  0  0
    1.4797   -8.6258   16.2950 C   0  0  0  0  0  0  0  0  0  0  0  0
    9.2861   -1.2743   25.3585 C   0  0  0  0  0  0  0  0  0  0  0  0
    1.8892  -10.3985   17.7511 N   0  0  0  0  0  0  0  0  0  0  0  0
    9.6210   -0.6952   24.0976 C   0  0  0  0  0  0  0  0  0  0  0  0
    7.0792   -9.0217   17.1429 C   0  0  0  0  0  0  0  0  0  0  0  0
    3.1713  -10.1816   17.6634 C   0  0  0  0  0  0  0  0  0  0  0  0
    2.7878   -8.3822   16.2137 C   0  0  0  0  0  0  0  0  0  0  0  0
    9.4601   -2.6590   25.6528 C   0  0  0  0  0  0  0  0  0  0  0  0
   10.1182   -1.5672   23.1165 C   0  0  0  0  0  0  0  0  0  0  0  0
    1.0552   -9.6360   17.0650 C   0  0  0  0  0  0  0  0  0  0  0  0
    3.6519   -9.1783   16.9039 C   0  0  0  0  0  0  0  0  0  0  0  0
    7.8675   -7.0096   15.9415 C   0  0  0  0  0  0  0  0  0  0  0  0
    5.9733   -9.6553   17.3832 N   0  0  0  0  0  0  0  0  0  0  0  0
   10.2411   -2.9363   23.4301 C   0  0  0  0  0  0  0  0  0  0  0  0
   10.7288   -3.8197   19.9525 C   0  0  0  0  0  0  0  0  0  0  0  0
   10.1189   -5.0054   19.6987 C   0  0  0  0  0  0  0  0  0  0  0  0
  1  3  4  0
  1  7  4  0
  2 21  4  0
  2 27  4  0
  3  9  4  0
  3 10  4  0
  4  8  4  0
  4 18  4  0
  4 25  1  0
  5  9  4  0
  5 12  4  0
  6 13  1  0
  6 27  1  0
  7 28  4  0
  8 11  4  0
  9 29  4  0
 10 12  4  0
 11 24  1  0
 11 26  4  0
 12 25  1  0
 13 28  1  0
 14 20  4  0
 14 23  4  0
 15 17  4  0
 15 21  4  0
 16 19  4  0
 16 23  4  0
 17 22  4  0
 18 26  4  0
 19 24  4  0
 20 24  4  0
 22 27  4  0
 28 29  4  0
M  END
$$$$

 Created by Python create_sdf_string function

 29 33  0  0  0  0  0  0  0  0999 V2000
   10.7215   -3.3326   17.6437 C   0  0  0  0  0  0  0  0  0  0  0  0
    9.9489   -3.4675   24.6487 N   0  0  0  0  0  0  0  0  0  0  0  0
   10.0172   -4.4740   17.4101 C   0  0  0  0  0  0  0  0  0  0  0  0
    6.9051   -7.9575   16.4222 C   0  0  0  0  0  0  0  0  0  0  0  0
    8.9969   -6.3552   17.9668 N   0  0  0  0  0  0  0  0  0  0  0  0
   10.6702   -3.9051   22.4070 C   0  0  0  0  0  0  0  0  0  0  0  0
   11.0625   -3.0028   18.8894 C   0  0  0  0  0  0  0  0  0  0  0  0
    5.6180   -7.9194   16.1754 O   0  0  0  0  0  0  0  0  0  0  0  0
    9.7259   -5.3080   18.4485 C   0  0  0  0  0  0  0  0  0  0  0  0
    9.4578   -5.0200   16.3036 N   0  0  0  0  0  0  0  0  0  0  0  0
    5.0287   -8.9365   16.8223 C   0  0  0  0  0  0  0  0  0  0  0  0
    8.7742   -6.1498   16.6764 C   0  0  0  0  0  0  0  0  0  0  0  0
   10.9418   -3.4032   21.2053 O   0  0  0  0  0  0  0  0  0  0  0  0
    1.4797   -8.6258   16.2950 C   0  0  0  0  0  0  0  0  0  0  0  0
    9.2861   -1.2743   25.3585 C   0  0  0  0  0  0  0  0  0  0  0  0
    1.8892  -10.3985   17.7511 N   0  0  0  0  0  0  0  0  0  0  0  0
    9.6210   -0.6952   24.0976 C   0  0  0  0  0  0  0  0  0  0  0  0
    7.0792   -9.0217   17.1429 C   0  0  0  0  0  0  0  0  0  0  0  0
    3.1713  -10.1816   17.6634 C   0  0  0  0  0  0  0  0  0  0  0  0
    2.7878   -8.3822   16.2137 C   0  0  0  0  0  0  0  0  0  0  0  0
    9.4601   -2.6590   25.6528 C   0  0  0  0  0  0  0  0  0  0  0  0
   10.1182   -1.5672   23.1165 C   0  0  0  0  0  0  0  0  0  0  0  0
    1.0552   -9.6360   17.0650 C   0  0  0  0  0  0  0  0  0  0  0  0
    3.6519   -9.1783   16.9039 C   0  0  0  0  0  0  0  0  0  0  0  0
    7.8675   -7.0096   15.9415 C   0  0  0  0  0  0  0  0  0  0  0  0
    5.9733   -9.6553   17.3832 N   0  0  0  0  0  0  0  0  0  0  0  0
   10.2411   -2.9363   23.4301 C   0  0  0  0  0  0  0  0  0  0  0  0
   10.7288   -3.8197   19.9525 C   0  0  0  0  0  0  0  0  0  0  0  0
   10.1189   -5.0054   19.6987 C   0  0  0  0  0  0  0  0  0  0  0  0
  1  3  4  0
  1  7  4  0
  2 21  4  0
  2 27  4  0
  3  9  4  0
  3 10  4  0
  4  8  4  0
  4 18  4  0
  4 25  1  0
  5  9  4  0
  5 12  4  0
  6 13  1  0
  6 27  1  0
  7 28  4  0
  8 11  4  0
  9 29  4  0
 10 12  4  0
 11 24  1  0
 11 26  4  0
 12 25  1  0
 13 28  1  0
 14 20  4  0
 14 23  4  0
 15 17  4  0
 15 21  4  0
 16 19  4  0
 16 23  4  0
 17 22  4  0
 18 26  4  0
 19 24  4  0
 20 24  4  0
 22 27  4  0
 28 29  4  0
M  END
$$$$

 Created by Python create_sdf_string function

 29 33  0  0  0  0  0  0  0  0999 V2000
   10.7215   -3.3326   17.6437 C   0  0  0  0  0  0  0  0  0  0  0  0
    9.9489   -3.4675   24.6487 N   0  0  0  0  0  0  0  0  0  0  0  0
   10.0172   -4.4740   17.4101 C   0  0  0  0  0  0  0  0  0  0  0  0
    6.9051   -7.9575   16.4222 C   0  0  0  0  0  0  0  0  0  0  0  0
    8.9969   -6.3552   17.9668 N   0  0  0  0  0  0  0  0  0  0  0  0
   10.6702   -3.9051   22.4070 C   0  0  0  0  0  0  0  0  0  0  0  0
   11.0625   -3.0028   18.8894 C   0  0  0  0  0  0  0  0  0  0  0  0
    5.6180   -7.9194   16.1754 O   0  0  0  0  0  0  0  0  0  0  0  0
    9.7259   -5.3080   18.4485 C   0  0  0  0  0  0  0  0  0  0  0  0
    9.4578   -5.0200   16.3036 N   0  0  0  0  0  0  0  0  0  0  0  0
    5.0287   -8.9365   16.8223 C   0  0  0  0  0  0  0  0  0  0  0  0
    8.7742   -6.1498   16.6764 C   0  0  0  0  0  0  0  0  0  0  0  0
   10.9418   -3.4032   21.2053 O   0  0  0  0  0  0  0  0  0  0  0  0
    1.4797   -8.6258   16.2950 C   0  0  0  0  0  0  0  0  0  0  0  0
    9.2861   -1.2743   25.3585 C   0  0  0  0  0  0  0  0  0  0  0  0
    1.8892  -10.3985   17.7511 N   0  0  0  0  0  0  0  0  0  0  0  0
    9.6210   -0.6952   24.0976 C   0  0  0  0  0  0  0  0  0  0  0  0
    7.0792   -9.0217   17.1429 C   0  0  0  0  0  0  0  0  0  0  0  0
    3.1713  -10.1816   17.6634 C   0  0  0  0  0  0  0  0  0  0  0  0
    2.7878   -8.3822   16.2137 C   0  0  0  0  0  0  0  0  0  0  0  0
    9.4601   -2.6590   25.6528 C   0  0  0  0  0  0  0  0  0  0  0  0
   10.1182   -1.5672   23.1165 C   0  0  0  0  0  0  0  0  0  0  0  0
    1.0552   -9.6360   17.0650 C   0  0  0  0  0  0  0  0  0  0  0  0
    3.6519   -9.1783   16.9039 C   0  0  0  0  0  0  0  0  0  0  0  0
    7.8675   -7.0096   15.9415 C   0  0  0  0  0  0  0  0  0  0  0  0
    5.9733   -9.6553   17.3832 N   0  0  0  0  0  0  0  0  0  0  0  0
   10.2411   -2.9363   23.4301 C   0  0  0  0  0  0  0  0  0  0  0  0
   10.7288   -3.8197   19.9525 C   0  0  0  0  0  0  0  0  0  0  0  0
   10.1189   -5.0054   19.6987 C   0  0  0  0  0  0  0  0  0  0  0  0
  1  3  4  0
  1  7  4  0
  2 21  4  0
  2 27  4  0
  3  9  4  0
  3 10  4  0
  4  8  4  0
  4 18  4  0
  4 25  1  0
  5  9  4  0
  5 12  4  0
  6 13  1  0
  6 27  1  0
  7 28  4  0
  8 11  4  0
  9 29  4  0
 10 12  4  0
 11 24  1  0
 11 26  4  0
 12 25  1  0
 13 28  1  0
 14 20  4  0
 14 23  4  0
 15 17  4  0
 15 21  4  0
 16 19  4  0
 16 23  4  0
 17 22  4  0
 18 26  4  0
 19 24  4  0
 20 24  4  0
 22 27  4  0
 28 29  4  0
M  END
$$$$

 Created by Python create_sdf_string function

 29 33  0  0  0  0  0  0  0  0999 V2000
   10.7215   -3.3326   17.6437 C   0  0  0  0  0  0  0  0  0  0  0  0
    9.9489   -3.4675   24.6487 N   0  0  0  0  0  0  0  0  0  0  0  0
   10.0172   -4.4740   17.4101 C   0  0  0  0  0  0  0  0  0  0  0  0
    6.9051   -7.9575   16.4222 C   0  0  0  0  0  0  0  0  0  0  0  0
    8.9969   -6.3552   17.9668 N   0  0  0  0  0  0  0  0  0  0  0  0
   10.6702   -3.9051   22.4070 C   0  0  0  0  0  0  0  0  0  0  0  0
   11.0625   -3.0028   18.8894 C   0  0  0  0  0  0  0  0  0  0  0  0
    5.6180   -7.9194   16.1754 O   0  0  0  0  0  0  0  0  0  0  0  0
    9.7259   -5.3080   18.4485 C   0  0  0  0  0  0  0  0  0  0  0  0
    9.4578   -5.0200   16.3036 N   0  0  0  0  0  0  0  0  0  0  0  0
    5.0287   -8.9365   16.8223 C   0  0  0  0  0  0  0  0  0  0  0  0
    8.7742   -6.1498   16.6764 C   0  0  0  0  0  0  0  0  0  0  0  0
   10.9418   -3.4032   21.2053 O   0  0  0  0  0  0  0  0  0  0  0  0
    1.4797   -8.6258   16.2950 C   0  0  0  0  0  0  0  0  0  0  0  0
    9.2861   -1.2743   25.3585 C   0  0  0  0  0  0  0  0  0  0  0  0
    1.8892  -10.3985   17.7511 N   0  0  0  0  0  0  0  0  0  0  0  0
    9.6210   -0.6952   24.0976 C   0  0  0  0  0  0  0  0  0  0  0  0
    7.0792   -9.0217   17.1429 C   0  0  0  0  0  0  0  0  0  0  0  0
    3.1713  -10.1816   17.6634 C   0  0  0  0  0  0  0  0  0  0  0  0
    2.7878   -8.3822   16.2137 C   0  0  0  0  0  0  0  0  0  0  0  0
    9.4601   -2.6590   25.6528 C   0  0  0  0  0  0  0  0  0  0  0  0
   10.1182   -1.5672   23.1165 C   0  0  0  0  0  0  0  0  0  0  0  0
    1.0552   -9.6360   17.0650 C   0  0  0  0  0  0  0  0  0  0  0  0
    3.6519   -9.1783   16.9039 C   0  0  0  0  0  0  0  0  0  0  0  0
    7.8675   -7.0096   15.9415 C   0  0  0  0  0  0  0  0  0  0  0  0
    5.9733   -9.6553   17.3832 N   0  0  0  0  0  0  0  0  0  0  0  0
   10.2411   -2.9363   23.4301 C   0  0  0  0  0  0  0  0  0  0  0  0
   10.7288   -3.8197   19.9525 C   0  0  0  0  0  0  0  0  0  0  0  0
   10.1189   -5.0054   19.6987 C   0  0  0  0  0  0  0  0  0  0  0  0
  1  3  4  0
  1  7  4  0
  2 21  4  0
  2 27  4  0
  3  9  4  0
  3 10  4  0
  4  8  4  0
  4 18  4  0
  4 25  1  0
  5  9  4  0
  5 12  4  0
  6 13  1  0
  6 27  1  0
  7 28  4  0
  8 11  4  0
  9 29  4  0
 10 12  4  0
 11 24  1  0
 11 26  4  0
 12 25  1  0
 13 28  1  0
 14 20  4  0
 14 23  4  0
 15 17  4  0
 15 21  4  0
 16 19  4  0
 16 23  4  0
 17 22  4  0
 18 26  4  0
 19 24  4  0
 20 24  4  0
 22 27  4  0
 28 29  4  0
M  END
$$$$

 Created by Python create_sdf_string function

 29 33  0  0  0  0  0  0  0  0999 V2000
   10.7215   -3.3326   17.6437 C   0  0  0  0  0  0  0  0  0  0  0  0
    9.9489   -3.4675   24.6487 N   0  0  0  0  0  0  0  0  0  0  0  0
   10.0172   -4.4740   17.4101 C   0  0  0  0  0  0  0  0  0  0  0  0
    6.9051   -7.9575   16.4222 C   0  0  0  0  0  0  0  0  0  0  0  0
    8.9969   -6.3552   17.9668 N   0  0  0  0  0  0  0  0  0  0  0  0
   10.6702   -3.9051   22.4070 C   0  0  0  0  0  0  0  0  0  0  0  0
   11.0625   -3.0028   18.8894 C   0  0  0  0  0  0  0  0  0  0  0  0
    5.6180   -7.9194   16.1754 O   0  0  0  0  0  0  0  0  0  0  0  0
    9.7259   -5.3080   18.4485 C   0  0  0  0  0  0  0  0  0  0  0  0
    9.4578   -5.0200   16.3036 N   0  0  0  0  0  0  0  0  0  0  0  0
    5.0287   -8.9365   16.8223 C   0  0  0  0  0  0  0  0  0  0  0  0
    8.7742   -6.1498   16.6764 C   0  0  0  0  0  0  0  0  0  0  0  0
   10.9418   -3.4032   21.2053 O   0  0  0  0  0  0  0  0  0  0  0  0
    1.4797   -8.6258   16.2950 C   0  0  0  0  0  0  0  0  0  0  0  0
    9.2861   -1.2743   25.3585 C   0  0  0  0  0  0  0  0  0  0  0  0
    1.8892  -10.3985   17.7511 N   0  0  0  0  0  0  0  0  0  0  0  0
    9.6210   -0.6952   24.0976 C   0  0  0  0  0  0  0  0  0  0  0  0
    7.0792   -9.0217   17.1429 C   0  0  0  0  0  0  0  0  0  0  0  0
    3.1713  -10.1816   17.6634 C   0  0  0  0  0  0  0  0  0  0  0  0
    2.7878   -8.3822   16.2137 C   0  0  0  0  0  0  0  0  0  0  0  0
    9.4601   -2.6590   25.6528 C   0  0  0  0  0  0  0  0  0  0  0  0
   10.1182   -1.5672   23.1165 C   0  0  0  0  0  0  0  0  0  0  0  0
    1.0552   -9.6360   17.0650 C   0  0  0  0  0  0  0  0  0  0  0  0
    3.6519   -9.1783   16.9039 C   0  0  0  0  0  0  0  0  0  0  0  0
    7.8675   -7.0096   15.9415 C   0  0  0  0  0  0  0  0  0  0  0  0
    5.9733   -9.6553   17.3832 N   0  0  0  0  0  0  0  0  0  0  0  0
   10.2411   -2.9363   23.4301 C   0  0  0  0  0  0  0  0  0  0  0  0
   10.7288   -3.8197   19.9525 C   0  0  0  0  0  0  0  0  0  0  0  0
   10.1189   -5.0054   19.6987 C   0  0  0  0  0  0  0  0  0  0  0  0
  1  3  4  0
  1  7  4  0
  2 21  4  0
  2 27  4  0
  3  9  4  0
  3 10  4  0
  4  8  4  0
  4 18  4  0
  4 25  1  0
  5  9  4  0
  5 12  4  0
  6 13  1  0
  6 27  1  0
  7 28  4  0
  8 11  4  0
  9 29  4  0
 10 12  4  0
 11 24  1  0
 11 26  4  0
 12 25  1  0
 13 28  1  0
 14 20  4  0
 14 23  4  0
 15 17  4  0
 15 21  4  0
 16 19  4  0
 16 23  4  0
 17 22  4  0
 18 26  4  0
 19 24  4  0
 20 24  4  0
 22 27  4  0
 28 29  4  0
M  END
$$$$

 Created by Python create_sdf_string function

 29 33  0  0  0  0  0  0  0  0999 V2000
   10.7215   -3.3326   17.6437 C   0  0  0  0  0  0  0  0  0  0  0  0
    9.9489   -3.4675   24.6487 N   0  0  0  0  0  0  0  0  0  0  0  0
   10.0172   -4.4740   17.4101 C   0  0  0  0  0  0  0  0  0  0  0  0
    6.9051   -7.9575   16.4222 C   0  0  0  0  0  0  0  0  0  0  0  0
    8.9969   -6.3552   17.9668 N   0  0  0  0  0  0  0  0  0  0  0  0
   10.6702   -3.9051   22.4070 C   0  0  0  0  0  0  0  0  0  0  0  0
   11.0625   -3.0028   18.8894 C   0  0  0  0  0  0  0  0  0  0  0  0
    5.6180   -7.9194   16.1754 O   0  0  0  0  0  0  0  0  0  0  0  0
    9.7259   -5.3080   18.4485 C   0  0  0  0  0  0  0  0  0  0  0  0
    9.4578   -5.0200   16.3036 N   0  0  0  0  0  0  0  0  0  0  0  0
    5.0287   -8.9365   16.8223 C   0  0  0  0  0  0  0  0  0  0  0  0
    8.7742   -6.1498   16.6764 C   0  0  0  0  0  0  0  0  0  0  0  0
   10.9418   -3.4032   21.2053 O   0  0  0  0  0  0  0  0  0  0  0  0
    1.4797   -8.6258   16.2950 C   0  0  0  0  0  0  0  0  0  0  0  0
    9.2861   -1.2743   25.3585 C   0  0  0  0  0  0  0  0  0  0  0  0
    1.8892  -10.3985   17.7511 N   0  0  0  0  0  0  0  0  0  0  0  0
    9.6210   -0.6952   24.0976 C   0  0  0  0  0  0  0  0  0  0  0  0
    7.0792   -9.0217   17.1429 C   0  0  0  0  0  0  0  0  0  0  0  0
    3.1713  -10.1816   17.6634 C   0  0  0  0  0  0  0  0  0  0  0  0
    2.7878   -8.3822   16.2137 C   0  0  0  0  0  0  0  0  0  0  0  0
    9.4601   -2.6590   25.6528 C   0  0  0  0  0  0  0  0  0  0  0  0
   10.1182   -1.5672   23.1165 C   0  0  0  0  0  0  0  0  0  0  0  0
    1.0552   -9.6360   17.0650 C   0  0  0  0  0  0  0  0  0  0  0  0
    3.6519   -9.1783   16.9039 C   0  0  0  0  0  0  0  0  0  0  0  0
    7.8675   -7.0096   15.9415 C   0  0  0  0  0  0  0  0  0  0  0  0
    5.9733   -9.6553   17.3832 N   0  0  0  0  0  0  0  0  0  0  0  0
   10.2411   -2.9363   23.4301 C   0  0  0  0  0  0  0  0  0  0  0  0
   10.7288   -3.8197   19.9525 C   0  0  0  0  0  0  0  0  0  0  0  0
   10.1189   -5.0054   19.6987 C   0  0  0  0  0  0  0  0  0  0  0  0
  1  3  4  0
  1  7  4  0
  2 21  4  0
  2 27  4  0
  3  9  4  0
  3 10  4  0
  4  8  4  0
  4 18  4  0
  4 25  1  0
  5  9  4  0
  5 12  4  0
  6 13  1  0
  6 27  1  0
  7 28  4  0
  8 11  4  0
  9 29  4  0
 10 12  4  0
 11 24  1  0
 11 26  4  0
 12 25  1  0
 13 28  1  0
 14 20  4  0
 14 23  4  0
 15 17  4  0
 15 21  4  0
 16 19  4  0
 16 23  4  0
 17 22  4  0
 18 26  4  0
 19 24  4  0
 20 24  4  0
 22 27  4  0
 28 29  4  0
M  END
$$$$

 Created by Python create_sdf_string function

 29 33  0  0  0  0  0  0  0  0999 V2000
   10.7215   -3.3326   17.6437 C   0  0  0  0  0  0  0  0  0  0  0  0
    9.9489   -3.4675   24.6487 N   0  0  0  0  0  0  0  0  0  0  0  0
   10.0172   -4.4740   17.4101 C   0  0  0  0  0  0  0  0  0  0  0  0
    6.9051   -7.9575   16.4222 C   0  0  0  0  0  0  0  0  0  0  0  0
    8.9969   -6.3552   17.9668 N   0  0  0  0  0  0  0  0  0  0  0  0
   10.6702   -3.9051   22.4070 C   0  0  0  0  0  0  0  0  0  0  0  0
   11.0625   -3.0028   18.8894 C   0  0  0  0  0  0  0  0  0  0  0  0
    5.6180   -7.9194   16.1754 O   0  0  0  0  0  0  0  0  0  0  0  0
    9.7259   -5.3080   18.4485 C   0  0  0  0  0  0  0  0  0  0  0  0
    9.4578   -5.0200   16.3036 N   0  0  0  0  0  0  0  0  0  0  0  0
    5.0287   -8.9365   16.8223 C   0  0  0  0  0  0  0  0  0  0  0  0
    8.7742   -6.1498   16.6764 C   0  0  0  0  0  0  0  0  0  0  0  0
   10.9418   -3.4032   21.2053 O   0  0  0  0  0  0  0  0  0  0  0  0
    1.4797   -8.6258   16.2950 C   0  0  0  0  0  0  0  0  0  0  0  0
    9.2861   -1.2743   25.3585 C   0  0  0  0  0  0  0  0  0  0  0  0
    1.8892  -10.3985   17.7511 N   0  0  0  0  0  0  0  0  0  0  0  0
    9.6210   -0.6952   24.0976 C   0  0  0  0  0  0  0  0  0  0  0  0
    7.0792   -9.0217   17.1429 C   0  0  0  0  0  0  0  0  0  0  0  0
    3.1713  -10.1816   17.6634 C   0  0  0  0  0  0  0  0  0  0  0  0
    2.7878   -8.3822   16.2137 C   0  0  0  0  0  0  0  0  0  0  0  0
    9.4601   -2.6590   25.6528 C   0  0  0  0  0  0  0  0  0  0  0  0
   10.1182   -1.5672   23.1165 C   0  0  0  0  0  0  0  0  0  0  0  0
    1.0552   -9.6360   17.0650 C   0  0  0  0  0  0  0  0  0  0  0  0
    3.6519   -9.1783   16.9039 C   0  0  0  0  0  0  0  0  0  0  0  0
    7.8675   -7.0096   15.9415 C   0  0  0  0  0  0  0  0  0  0  0  0
    5.9733   -9.6553   17.3832 N   0  0  0  0  0  0  0  0  0  0  0  0
   10.2411   -2.9363   23.4301 C   0  0  0  0  0  0  0  0  0  0  0  0
   10.7288   -3.8197   19.9525 C   0  0  0  0  0  0  0  0  0  0  0  0
   10.1189   -5.0054   19.6987 C   0  0  0  0  0  0  0  0  0  0  0  0
  1  3  4  0
  1  7  4  0
  2 21  4  0
  2 27  4  0
  3  9  4  0
  3 10  4  0
  4  8  4  0
  4 18  4  0
  4 25  1  0
  5  9  4  0
  5 12  4  0
  6 13  1  0
  6 27  1  0
  7 28  4  0
  8 11  4  0
  9 29  4  0
 10 12  4  0
 11 24  1  0
 11 26  4  0
 12 25  1  0
 13 28  1  0
 14 20  4  0
 14 23  4  0
 15 17  4  0
 15 21  4  0
 16 19  4  0
 16 23  4  0
 17 22  4  0
 18 26  4  0
 19 24  4  0
 20 24  4  0
 22 27  4  0
 28 29  4  0
M  END
$$$$

 Created by Python create_sdf_string function

 29 33  0  0  0  0  0  0  0  0999 V2000
   10.7215   -3.3326   17.6437 C   0  0  0  0  0  0  0  0  0  0  0  0
    9.9489   -3.4675   24.6487 N   0  0  0  0  0  0  0  0  0  0  0  0
   10.0172   -4.4740   17.4101 C   0  0  0  0  0  0  0  0  0  0  0  0
    6.9051   -7.9575   16.4222 C   0  0  0  0  0  0  0  0  0  0  0  0
    8.9969   -6.3552   17.9668 N   0  0  0  0  0  0  0  0  0  0  0  0
   10.6702   -3.9051   22.4070 C   0  0  0  0  0  0  0  0  0  0  0  0
   11.0625   -3.0028   18.8894 C   0  0  0  0  0  0  0  0  0  0  0  0
    5.6180   -7.9194   16.1754 O   0  0  0  0  0  0  0  0  0  0  0  0
    9.7259   -5.3080   18.4485 C   0  0  0  0  0  0  0  0  0  0  0  0
    9.4578   -5.0200   16.3036 N   0  0  0  0  0  0  0  0  0  0  0  0
    5.0287   -8.9365   16.8223 C   0  0  0  0  0  0  0  0  0  0  0  0
    8.7742   -6.1498   16.6764 C   0  0  0  0  0  0  0  0  0  0  0  0
   10.9418   -3.4032   21.2053 O   0  0  0  0  0  0  0  0  0  0  0  0
    1.4797   -8.6258   16.2950 C   0  0  0  0  0  0  0  0  0  0  0  0
    9.2861   -1.2743   25.3585 C   0  0  0  0  0  0  0  0  0  0  0  0
    1.8892  -10.3985   17.7511 N   0  0  0  0  0  0  0  0  0  0  0  0
    9.6210   -0.6952   24.0976 C   0  0  0  0  0  0  0  0  0  0  0  0
    7.0792   -9.0217   17.1429 C   0  0  0  0  0  0  0  0  0  0  0  0
    3.1713  -10.1816   17.6634 C   0  0  0  0  0  0  0  0  0  0  0  0
    2.7878   -8.3822   16.2137 C   0  0  0  0  0  0  0  0  0  0  0  0
    9.4601   -2.6590   25.6528 C   0  0  0  0  0  0  0  0  0  0  0  0
   10.1182   -1.5672   23.1165 C   0  0  0  0  0  0  0  0  0  0  0  0
    1.0552   -9.6360   17.0650 C   0  0  0  0  0  0  0  0  0  0  0  0
    3.6519   -9.1783   16.9039 C   0  0  0  0  0  0  0  0  0  0  0  0
    7.8675   -7.0096   15.9415 C   0  0  0  0  0  0  0  0  0  0  0  0
    5.9733   -9.6553   17.3832 N   0  0  0  0  0  0  0  0  0  0  0  0
   10.2411   -2.9363   23.4301 C   0  0  0  0  0  0  0  0  0  0  0  0
   10.7288   -3.8197   19.9525 C   0  0  0  0  0  0  0  0  0  0  0  0
   10.1189   -5.0054   19.6987 C   0  0  0  0  0  0  0  0  0  0  0  0
  1  3  4  0
  1  7  4  0
  2 21  4  0
  2 27  4  0
  3  9  4  0
  3 10  4  0
  4  8  4  0
  4 18  4  0
  4 25  1  0
  5  9  4  0
  5 12  4  0
  6 13  1  0
  6 27  1  0
  7 28  4  0
  8 11  4  0
  9 29  4  0
 10 12  4  0
 11 24  1  0
 11 26  4  0
 12 25  1  0
 13 28  1  0
 14 20  4  0
 14 23  4  0
 15 17  4  0
 15 21  4  0
 16 19  4  0
 16 23  4  0
 17 22  4  0
 18 26  4  0
 19 24  4  0
 20 24  4  0
 22 27  4  0
 28 29  4  0
M  END
$$$$

 Created by Python create_sdf_string function

 29 33  0  0  0  0  0  0  0  0999 V2000
   10.7215   -3.3326   17.6437 C   0  0  0  0  0  0  0  0  0  0  0  0
    9.9489   -3.4675   24.6487 N   0  0  0  0  0  0  0  0  0  0  0  0
   10.0172   -4.4740   17.4101 C   0  0  0  0  0  0  0  0  0  0  0  0
    6.9051   -7.9575   16.4222 C   0  0  0  0  0  0  0  0  0  0  0  0
    8.9969   -6.3552   17.9668 N   0  0  0  0  0  0  0  0  0  0  0  0
   10.6702   -3.9051   22.4070 C   0  0  0  0  0  0  0  0  0  0  0  0
   11.0625   -3.0028   18.8894 C   0  0  0  0  0  0  0  0  0  0  0  0
    5.6180   -7.9194   16.1754 O   0  0  0  0  0  0  0  0  0  0  0  0
    9.7259   -5.3080   18.4485 C   0  0  0  0  0  0  0  0  0  0  0  0
    9.4578   -5.0200   16.3036 N   0  0  0  0  0  0  0  0  0  0  0  0
    5.0287   -8.9365   16.8223 C   0  0  0  0  0  0  0  0  0  0  0  0
    8.7742   -6.1498   16.6764 C   0  0  0  0  0  0  0  0  0  0  0  0
   10.9418   -3.4032   21.2053 O   0  0  0  0  0  0  0  0  0  0  0  0
    1.4797   -8.6258   16.2950 C   0  0  0  0  0  0  0  0  0  0  0  0
    9.2861   -1.2743   25.3585 C   0  0  0  0  0  0  0  0  0  0  0  0
    1.8892  -10.3985   17.7511 N   0  0  0  0  0  0  0  0  0  0  0  0
    9.6210   -0.6952   24.0976 C   0  0  0  0  0  0  0  0  0  0  0  0
    7.0792   -9.0217   17.1429 C   0  0  0  0  0  0  0  0  0  0  0  0
    3.1713  -10.1816   17.6634 C   0  0  0  0  0  0  0  0  0  0  0  0
    2.7878   -8.3822   16.2137 C   0  0  0  0  0  0  0  0  0  0  0  0
    9.4601   -2.6590   25.6528 C   0  0  0  0  0  0  0  0  0  0  0  0
   10.1182   -1.5672   23.1165 C   0  0  0  0  0  0  0  0  0  0  0  0
    1.0552   -9.6360   17.0650 C   0  0  0  0  0  0  0  0  0  0  0  0
    3.6519   -9.1783   16.9039 C   0  0  0  0  0  0  0  0  0  0  0  0
    7.8675   -7.0096   15.9415 C   0  0  0  0  0  0  0  0  0  0  0  0
    5.9733   -9.6553   17.3832 N   0  0  0  0  0  0  0  0  0  0  0  0
   10.2411   -2.9363   23.4301 C   0  0  0  0  0  0  0  0  0  0  0  0
   10.7288   -3.8197   19.9525 C   0  0  0  0  0  0  0  0  0  0  0  0
   10.1189   -5.0054   19.6987 C   0  0  0  0  0  0  0  0  0  0  0  0
  1  3  4  0
  1  7  4  0
  2 21  4  0
  2 27  4  0
  3  9  4  0
  3 10  4  0
  4  8  4  0
  4 18  4  0
  4 25  1  0
  5  9  4  0
  5 12  4  0
  6 13  1  0
  6 27  1  0
  7 28  4  0
  8 11  4  0
  9 29  4  0
 10 12  4  0
 11 24  1  0
 11 26  4  0
 12 25  1  0
 13 28  1  0
 14 20  4  0
 14 23  4  0
 15 17  4  0
 15 21  4  0
 16 19  4  0
 16 23  4  0
 17 22  4  0
 18 26  4  0
 19 24  4  0
 20 24  4  0
 22 27  4  0
 28 29  4  0
M  END
$$$$

 Created by Python create_sdf_string function

 29 33  0  0  0  0  0  0  0  0999 V2000
   10.7215   -3.3326   17.6437 C   0  0  0  0  0  0  0  0  0  0  0  0
    9.9489   -3.4675   24.6487 N   0  0  0  0  0  0  0  0  0  0  0  0
   10.0172   -4.4740   17.4101 C   0  0  0  0  0  0  0  0  0  0  0  0
    6.9051   -7.9575   16.4222 C   0  0  0  0  0  0  0  0  0  0  0  0
    8.9969   -6.3552   17.9668 N   0  0  0  0  0  0  0  0  0  0  0  0
   10.6702   -3.9051   22.4070 C   0  0  0  0  0  0  0  0  0  0  0  0
   11.0625   -3.0028   18.8894 C   0  0  0  0  0  0  0  0  0  0  0  0
    5.6180   -7.9194   16.1754 O   0  0  0  0  0  0  0  0  0  0  0  0
    9.7259   -5.3080   18.4485 C   0  0  0  0  0  0  0  0  0  0  0  0
    9.4578   -5.0200   16.3036 N   0  0  0  0  0  0  0  0  0  0  0  0
    5.0287   -8.9365   16.8223 C   0  0  0  0  0  0  0  0  0  0  0  0
    8.7742   -6.1498   16.6764 C   0  0  0  0  0  0  0  0  0  0  0  0
   10.9418   -3.4032   21.2053 O   0  0  0  0  0  0  0  0  0  0  0  0
    1.4797   -8.6258   16.2950 C   0  0  0  0  0  0  0  0  0  0  0  0
    9.2861   -1.2743   25.3585 C   0  0  0  0  0  0  0  0  0  0  0  0
    1.8892  -10.3985   17.7511 N   0  0  0  0  0  0  0  0  0  0  0  0
    9.6210   -0.6952   24.0976 C   0  0  0  0  0  0  0  0  0  0  0  0
    7.0792   -9.0217   17.1429 C   0  0  0  0  0  0  0  0  0  0  0  0
    3.1713  -10.1816   17.6634 C   0  0  0  0  0  0  0  0  0  0  0  0
    2.7878   -8.3822   16.2137 C   0  0  0  0  0  0  0  0  0  0  0  0
    9.4601   -2.6590   25.6528 C   0  0  0  0  0  0  0  0  0  0  0  0
   10.1182   -1.5672   23.1165 C   0  0  0  0  0  0  0  0  0  0  0  0
    1.0552   -9.6360   17.0650 C   0  0  0  0  0  0  0  0  0  0  0  0
    3.6519   -9.1783   16.9039 C   0  0  0  0  0  0  0  0  0  0  0  0
    7.8675   -7.0096   15.9415 C   0  0  0  0  0  0  0  0  0  0  0  0
    5.9733   -9.6553   17.3832 N   0  0  0  0  0  0  0  0  0  0  0  0
   10.2411   -2.9363   23.4301 C   0  0  0  0  0  0  0  0  0  0  0  0
   10.7288   -3.8197   19.9525 C   0  0  0  0  0  0  0  0  0  0  0  0
   10.1189   -5.0054   19.6987 C   0  0  0  0  0  0  0  0  0  0  0  0
  1  3  4  0
  1  7  4  0
  2 21  4  0
  2 27  4  0
  3  9  4  0
  3 10  4  0
  4  8  4  0
  4 18  4  0
  4 25  1  0
  5  9  4  0
  5 12  4  0
  6 13  1  0
  6 27  1  0
  7 28  4  0
  8 11  4  0
  9 29  4  0
 10 12  4  0
 11 24  1  0
 11 26  4  0
 12 25  1  0
 13 28  1  0
 14 20  4  0
 14 23  4  0
 15 17  4  0
 15 21  4  0
 16 19  4  0
 16 23  4  0
 17 22  4  0
 18 26  4  0
 19 24  4  0
 20 24  4  0
 22 27  4  0
 28 29  4  0
M  END
$$$$

 Created by Python create_sdf_string function

 29 33  0  0  0  0  0  0  0  0999 V2000
   10.7215   -3.3326   17.6437 C   0  0  0  0  0  0  0  0  0  0  0  0
    9.9489   -3.4675   24.6487 N   0  0  0  0  0  0  0  0  0  0  0  0
   10.0172   -4.4740   17.4101 C   0  0  0  0  0  0  0  0  0  0  0  0
    6.9051   -7.9575   16.4222 C   0  0  0  0  0  0  0  0  0  0  0  0
    8.9969   -6.3552   17.9668 N   0  0  0  0  0  0  0  0  0  0  0  0
   10.6702   -3.9051   22.4070 C   0  0  0  0  0  0  0  0  0  0  0  0
   11.0625   -3.0028   18.8894 C   0  0  0  0  0  0  0  0  0  0  0  0
    5.6180   -7.9194   16.1754 O   0  0  0  0  0  0  0  0  0  0  0  0
    9.7259   -5.3080   18.4485 C   0  0  0  0  0  0  0  0  0  0  0  0
    9.4578   -5.0200   16.3036 N   0  0  0  0  0  0  0  0  0  0  0  0
    5.0287   -8.9365   16.8223 C   0  0  0  0  0  0  0  0  0  0  0  0
    8.7742   -6.1498   16.6764 C   0  0  0  0  0  0  0  0  0  0  0  0
   10.9418   -3.4032   21.2053 O   0  0  0  0  0  0  0  0  0  0  0  0
    1.4797   -8.6258   16.2950 C   0  0  0  0  0  0  0  0  0  0  0  0
    9.2861   -1.2743   25.3585 C   0  0  0  0  0  0  0  0  0  0  0  0
    1.8892  -10.3985   17.7511 N   0  0  0  0  0  0  0  0  0  0  0  0
    9.6210   -0.6952   24.0976 C   0  0  0  0  0  0  0  0  0  0  0  0
    7.0792   -9.0217   17.1429 C   0  0  0  0  0  0  0  0  0  0  0  0
    3.1713  -10.1816   17.6634 C   0  0  0  0  0  0  0  0  0  0  0  0
    2.7878   -8.3822   16.2137 C   0  0  0  0  0  0  0  0  0  0  0  0
    9.4601   -2.6590   25.6528 C   0  0  0  0  0  0  0  0  0  0  0  0
   10.1182   -1.5672   23.1165 C   0  0  0  0  0  0  0  0  0  0  0  0
    1.0552   -9.6360   17.0650 C   0  0  0  0  0  0  0  0  0  0  0  0
    3.6519   -9.1783   16.9039 C   0  0  0  0  0  0  0  0  0  0  0  0
    7.8675   -7.0096   15.9415 C   0  0  0  0  0  0  0  0  0  0  0  0
    5.9733   -9.6553   17.3832 N   0  0  0  0  0  0  0  0  0  0  0  0
   10.2411   -2.9363   23.4301 C   0  0  0  0  0  0  0  0  0  0  0  0
   10.7288   -3.8197   19.9525 C   0  0  0  0  0  0  0  0  0  0  0  0
   10.1189   -5.0054   19.6987 C   0  0  0  0  0  0  0  0  0  0  0  0
  1  3  4  0
  1  7  4  0
  2 21  4  0
  2 27  4  0
  3  9  4  0
  3 10  4  0
  4  8  4  0
  4 18  4  0
  4 25  1  0
  5  9  4  0
  5 12  4  0
  6 13  1  0
  6 27  1  0
  7 28  4  0
  8 11  4  0
  9 29  4  0
 10 12  4  0
 11 24  1  0
 11 26  4  0
 12 25  1  0
 13 28  1  0
 14 20  4  0
 14 23  4  0
 15 17  4  0
 15 21  4  0
 16 19  4  0
 16 23  4  0
 17 22  4  0
 18 26  4  0
 19 24  4  0
 20 24  4  0
 22 27  4  0
 28 29  4  0
M  END
$$$$

 Created by Python create_sdf_string function

 29 33  0  0  0  0  0  0  0  0999 V2000
   10.7215   -3.3326   17.6437 C   0  0  0  0  0  0  0  0  0  0  0  0
    9.9489   -3.4675   24.6487 N   0  0  0  0  0  0  0  0  0  0  0  0
   10.0172   -4.4740   17.4101 C   0  0  0  0  0  0  0  0  0  0  0  0
    6.9051   -7.9575   16.4222 C   0  0  0  0  0  0  0  0  0  0  0  0
    8.9969   -6.3552   17.9668 N   0  0  0  0  0  0  0  0  0  0  0  0
   10.6702   -3.9051   22.4070 C   0  0  0  0  0  0  0  0  0  0  0  0
   11.0625   -3.0028   18.8894 C   0  0  0  0  0  0  0  0  0  0  0  0
    5.6180   -7.9194   16.1754 O   0  0  0  0  0  0  0  0  0  0  0  0
    9.7259   -5.3080   18.4485 C   0  0  0  0  0  0  0  0  0  0  0  0
    9.4578   -5.0200   16.3036 N   0  0  0  0  0  0  0  0  0  0  0  0
    5.0287   -8.9365   16.8223 C   0  0  0  0  0  0  0  0  0  0  0  0
    8.7742   -6.1498   16.6764 C   0  0  0  0  0  0  0  0  0  0  0  0
   10.9418   -3.4032   21.2053 O   0  0  0  0  0  0  0  0  0  0  0  0
    1.4797   -8.6258   16.2950 C   0  0  0  0  0  0  0  0  0  0  0  0
    9.2861   -1.2743   25.3585 C   0  0  0  0  0  0  0  0  0  0  0  0
    1.8892  -10.3985   17.7511 N   0  0  0  0  0  0  0  0  0  0  0  0
    9.6210   -0.6952   24.0976 C   0  0  0  0  0  0  0  0  0  0  0  0
    7.0792   -9.0217   17.1429 C   0  0  0  0  0  0  0  0  0  0  0  0
    3.1713  -10.1816   17.6634 C   0  0  0  0  0  0  0  0  0  0  0  0
    2.7878   -8.3822   16.2137 C   0  0  0  0  0  0  0  0  0  0  0  0
    9.4601   -2.6590   25.6528 C   0  0  0  0  0  0  0  0  0  0  0  0
   10.1182   -1.5672   23.1165 C   0  0  0  0  0  0  0  0  0  0  0  0
    1.0552   -9.6360   17.0650 C   0  0  0  0  0  0  0  0  0  0  0  0
    3.6519   -9.1783   16.9039 C   0  0  0  0  0  0  0  0  0  0  0  0
    7.8675   -7.0096   15.9415 C   0  0  0  0  0  0  0  0  0  0  0  0
    5.9733   -9.6553   17.3832 N   0  0  0  0  0  0  0  0  0  0  0  0
   10.2411   -2.9363   23.4301 C   0  0  0  0  0  0  0  0  0  0  0  0
   10.7288   -3.8197   19.9525 C   0  0  0  0  0  0  0  0  0  0  0  0
   10.1189   -5.0054   19.6987 C   0  0  0  0  0  0  0  0  0  0  0  0
  1  3  4  0
  1  7  4  0
  2 21  4  0
  2 27  4  0
  3  9  4  0
  3 10  4  0
  4  8  4  0
  4 18  4  0
  4 25  1  0
  5  9  4  0
  5 12  4  0
  6 13  1  0
  6 27  1  0
  7 28  4  0
  8 11  4  0
  9 29  4  0
 10 12  4  0
 11 24  1  0
 11 26  4  0
 12 25  1  0
 13 28  1  0
 14 20  4  0
 14 23  4  0
 15 17  4  0
 15 21  4  0
 16 19  4  0
 16 23  4  0
 17 22  4  0
 18 26  4  0
 19 24  4  0
 20 24  4  0
 22 27  4  0
 28 29  4  0
M  END
$$$$

 Created by Python create_sdf_string function

 29 33  0  0  0  0  0  0  0  0999 V2000
   10.7215   -3.3326   17.6437 C   0  0  0  0  0  0  0  0  0  0  0  0
    9.9489   -3.4675   24.6487 N   0  0  0  0  0  0  0  0  0  0  0  0
   10.0172   -4.4740   17.4101 C   0  0  0  0  0  0  0  0  0  0  0  0
    6.9051   -7.9575   16.4222 C   0  0  0  0  0  0  0  0  0  0  0  0
    8.9969   -6.3552   17.9668 N   0  0  0  0  0  0  0  0  0  0  0  0
   10.6702   -3.9051   22.4070 C   0  0  0  0  0  0  0  0  0  0  0  0
   11.0625   -3.0028   18.8894 C   0  0  0  0  0  0  0  0  0  0  0  0
    5.6180   -7.9194   16.1754 O   0  0  0  0  0  0  0  0  0  0  0  0
    9.7259   -5.3080   18.4485 C   0  0  0  0  0  0  0  0  0  0  0  0
    9.4578   -5.0200   16.3036 N   0  0  0  0  0  0  0  0  0  0  0  0
    5.0287   -8.9365   16.8223 C   0  0  0  0  0  0  0  0  0  0  0  0
    8.7742   -6.1498   16.6764 C   0  0  0  0  0  0  0  0  0  0  0  0
   10.9418   -3.4032   21.2053 O   0  0  0  0  0  0  0  0  0  0  0  0
    1.4797   -8.6258   16.2950 C   0  0  0  0  0  0  0  0  0  0  0  0
    9.2861   -1.2743   25.3585 C   0  0  0  0  0  0  0  0  0  0  0  0
    1.8892  -10.3985   17.7511 N   0  0  0  0  0  0  0  0  0  0  0  0
    9.6210   -0.6952   24.0976 C   0  0  0  0  0  0  0  0  0  0  0  0
    7.0792   -9.0217   17.1429 C   0  0  0  0  0  0  0  0  0  0  0  0
    3.1713  -10.1816   17.6634 C   0  0  0  0  0  0  0  0  0  0  0  0
    2.7878   -8.3822   16.2137 C   0  0  0  0  0  0  0  0  0  0  0  0
    9.4601   -2.6590   25.6528 C   0  0  0  0  0  0  0  0  0  0  0  0
   10.1182   -1.5672   23.1165 C   0  0  0  0  0  0  0  0  0  0  0  0
    1.0552   -9.6360   17.0650 C   0  0  0  0  0  0  0  0  0  0  0  0
    3.6519   -9.1783   16.9039 C   0  0  0  0  0  0  0  0  0  0  0  0
    7.8675   -7.0096   15.9415 C   0  0  0  0  0  0  0  0  0  0  0  0
    5.9733   -9.6553   17.3832 N   0  0  0  0  0  0  0  0  0  0  0  0
   10.2411   -2.9363   23.4301 C   0  0  0  0  0  0  0  0  0  0  0  0
   10.7288   -3.8197   19.9525 C   0  0  0  0  0  0  0  0  0  0  0  0
   10.1189   -5.0054   19.6987 C   0  0  0  0  0  0  0  0  0  0  0  0
  1  3  4  0
  1  7  4  0
  2 21  4  0
  2 27  4  0
  3  9  4  0
  3 10  4  0
  4  8  4  0
  4 18  4  0
  4 25  1  0
  5  9  4  0
  5 12  4  0
  6 13  1  0
  6 27  1  0
  7 28  4  0
  8 11  4  0
  9 29  4  0
 10 12  4  0
 11 24  1  0
 11 26  4  0
 12 25  1  0
 13 28  1  0
 14 20  4  0
 14 23  4  0
 15 17  4  0
 15 21  4  0
 16 19  4  0
 16 23  4  0
 17 22  4  0
 18 26  4  0
 19 24  4  0
 20 24  4  0
 22 27  4  0
 28 29  4  0
M  END
$$$$

 Created by Python create_sdf_string function

 29 33  0  0  0  0  0  0  0  0999 V2000
   10.7215   -3.3326   17.6437 C   0  0  0  0  0  0  0  0  0  0  0  0
    9.9489   -3.4675   24.6487 N   0  0  0  0  0  0  0  0  0  0  0  0
   10.0172   -4.4740   17.4101 C   0  0  0  0  0  0  0  0  0  0  0  0
    6.9051   -7.9575   16.4222 C   0  0  0  0  0  0  0  0  0  0  0  0
    8.9969   -6.3552   17.9668 N   0  0  0  0  0  0  0  0  0  0  0  0
   10.6702   -3.9051   22.4070 C   0  0  0  0  0  0  0  0  0  0  0  0
   11.0625   -3.0028   18.8894 C   0  0  0  0  0  0  0  0  0  0  0  0
    5.6180   -7.9194   16.1754 O   0  0  0  0  0  0  0  0  0  0  0  0
    9.7259   -5.3080   18.4485 C   0  0  0  0  0  0  0  0  0  0  0  0
    9.4578   -5.0200   16.3036 N   0  0  0  0  0  0  0  0  0  0  0  0
    5.0287   -8.9365   16.8223 C   0  0  0  0  0  0  0  0  0  0  0  0
    8.7742   -6.1498   16.6764 C   0  0  0  0  0  0  0  0  0  0  0  0
   10.9418   -3.4032   21.2053 O   0  0  0  0  0  0  0  0  0  0  0  0
    1.4797   -8.6258   16.2950 C   0  0  0  0  0  0  0  0  0  0  0  0
    9.2861   -1.2743   25.3585 C   0  0  0  0  0  0  0  0  0  0  0  0
    1.8892  -10.3985   17.7511 N   0  0  0  0  0  0  0  0  0  0  0  0
    9.6210   -0.6952   24.0976 C   0  0  0  0  0  0  0  0  0  0  0  0
    7.0792   -9.0217   17.1429 C   0  0  0  0  0  0  0  0  0  0  0  0
    3.1713  -10.1816   17.6634 C   0  0  0  0  0  0  0  0  0  0  0  0
    2.7878   -8.3822   16.2137 C   0  0  0  0  0  0  0  0  0  0  0  0
    9.4601   -2.6590   25.6528 C   0  0  0  0  0  0  0  0  0  0  0  0
   10.1182   -1.5672   23.1165 C   0  0  0  0  0  0  0  0  0  0  0  0
    1.0552   -9.6360   17.0650 C   0  0  0  0  0  0  0  0  0  0  0  0
    3.6519   -9.1783   16.9039 C   0  0  0  0  0  0  0  0  0  0  0  0
    7.8675   -7.0096   15.9415 C   0  0  0  0  0  0  0  0  0  0  0  0
    5.9733   -9.6553   17.3832 N   0  0  0  0  0  0  0  0  0  0  0  0
   10.2411   -2.9363   23.4301 C   0  0  0  0  0  0  0  0  0  0  0  0
   10.7288   -3.8197   19.9525 C   0  0  0  0  0  0  0  0  0  0  0  0
   10.1189   -5.0054   19.6987 C   0  0  0  0  0  0  0  0  0  0  0  0
  1  3  4  0
  1  7  4  0
  2 21  4  0
  2 27  4  0
  3  9  4  0
  3 10  4  0
  4  8  4  0
  4 18  4  0
  4 25  1  0
  5  9  4  0
  5 12  4  0
  6 13  1  0
  6 27  1  0
  7 28  4  0
  8 11  4  0
  9 29  4  0
 10 12  4  0
 11 24  1  0
 11 26  4  0
 12 25  1  0
 13 28  1  0
 14 20  4  0
 14 23  4  0
 15 17  4  0
 15 21  4  0
 16 19  4  0
 16 23  4  0
 17 22  4  0
 18 26  4  0
 19 24  4  0
 20 24  4  0
 22 27  4  0
 28 29  4  0
M  END
$$$$

 Created by Python create_sdf_string function

 29 33  0  0  0  0  0  0  0  0999 V2000
   10.7215   -3.3326   17.6437 C   0  0  0  0  0  0  0  0  0  0  0  0
    9.9489   -3.4675   24.6487 N   0  0  0  0  0  0  0  0  0  0  0  0
   10.0172   -4.4740   17.4101 C   0  0  0  0  0  0  0  0  0  0  0  0
    6.9051   -7.9575   16.4222 C   0  0  0  0  0  0  0  0  0  0  0  0
    8.9969   -6.3552   17.9668 N   0  0  0  0  0  0  0  0  0  0  0  0
   10.6702   -3.9051   22.4070 C   0  0  0  0  0  0  0  0  0  0  0  0
   11.0625   -3.0028   18.8894 C   0  0  0  0  0  0  0  0  0  0  0  0
    5.6180   -7.9194   16.1754 O   0  0  0  0  0  0  0  0  0  0  0  0
    9.7259   -5.3080   18.4485 C   0  0  0  0  0  0  0  0  0  0  0  0
    9.4578   -5.0200   16.3036 N   0  0  0  0  0  0  0  0  0  0  0  0
    5.0287   -8.9365   16.8223 C   0  0  0  0  0  0  0  0  0  0  0  0
    8.7742   -6.1498   16.6764 C   0  0  0  0  0  0  0  0  0  0  0  0
   10.9418   -3.4032   21.2053 O   0  0  0  0  0  0  0  0  0  0  0  0
    1.4797   -8.6258   16.2950 C   0  0  0  0  0  0  0  0  0  0  0  0
    9.2861   -1.2743   25.3585 C   0  0  0  0  0  0  0  0  0  0  0  0
    1.8892  -10.3985   17.7511 N   0  0  0  0  0  0  0  0  0  0  0  0
    9.6210   -0.6952   24.0976 C   0  0  0  0  0  0  0  0  0  0  0  0
    7.0792   -9.0217   17.1429 C   0  0  0  0  0  0  0  0  0  0  0  0
    3.1713  -10.1816   17.6634 C   0  0  0  0  0  0  0  0  0  0  0  0
    2.7878   -8.3822   16.2137 C   0  0  0  0  0  0  0  0  0  0  0  0
    9.4601   -2.6590   25.6528 C   0  0  0  0  0  0  0  0  0  0  0  0
   10.1182   -1.5672   23.1165 C   0  0  0  0  0  0  0  0  0  0  0  0
    1.0552   -9.6360   17.0650 C   0  0  0  0  0  0  0  0  0  0  0  0
    3.6519   -9.1783   16.9039 C   0  0  0  0  0  0  0  0  0  0  0  0
    7.8675   -7.0096   15.9415 C   0  0  0  0  0  0  0  0  0  0  0  0
    5.9733   -9.6553   17.3832 N   0  0  0  0  0  0  0  0  0  0  0  0
   10.2411   -2.9363   23.4301 C   0  0  0  0  0  0  0  0  0  0  0  0
   10.7288   -3.8197   19.9525 C   0  0  0  0  0  0  0  0  0  0  0  0
   10.1189   -5.0054   19.6987 C   0  0  0  0  0  0  0  0  0  0  0  0
  1  3  4  0
  1  7  4  0
  2 21  4  0
  2 27  4  0
  3  9  4  0
  3 10  4  0
  4  8  4  0
  4 18  4  0
  4 25  1  0
  5  9  4  0
  5 12  4  0
  6 13  1  0
  6 27  1  0
  7 28  4  0
  8 11  4  0
  9 29  4  0
 10 12  4  0
 11 24  1  0
 11 26  4  0
 12 25  1  0
 13 28  1  0
 14 20  4  0
 14 23  4  0
 15 17  4  0
 15 21  4  0
 16 19  4  0
 16 23  4  0
 17 22  4  0
 18 26  4  0
 19 24  4  0
 20 24  4  0
 22 27  4  0
 28 29  4  0
M  END
$$$$

 Created by Python create_sdf_string function

 29 33  0  0  0  0  0  0  0  0999 V2000
   10.7215   -3.3326   17.6437 C   0  0  0  0  0  0  0  0  0  0  0  0
    9.9489   -3.4675   24.6487 N   0  0  0  0  0  0  0  0  0  0  0  0
   10.0172   -4.4740   17.4101 C   0  0  0  0  0  0  0  0  0  0  0  0
    6.9051   -7.9575   16.4222 C   0  0  0  0  0  0  0  0  0  0  0  0
    8.9969   -6.3552   17.9668 N   0  0  0  0  0  0  0  0  0  0  0  0
   10.6702   -3.9051   22.4070 C   0  0  0  0  0  0  0  0  0  0  0  0
   11.0625   -3.0028   18.8894 C   0  0  0  0  0  0  0  0  0  0  0  0
    5.6180   -7.9194   16.1754 O   0  0  0  0  0  0  0  0  0  0  0  0
    9.7259   -5.3080   18.4485 C   0  0  0  0  0  0  0  0  0  0  0  0
    9.4578   -5.0200   16.3036 N   0  0  0  0  0  0  0  0  0  0  0  0
    5.0287   -8.9365   16.8223 C   0  0  0  0  0  0  0  0  0  0  0  0
    8.7742   -6.1498   16.6764 C   0  0  0  0  0  0  0  0  0  0  0  0
   10.9418   -3.4032   21.2053 O   0  0  0  0  0  0  0  0  0  0  0  0
    1.4797   -8.6258   16.2950 C   0  0  0  0  0  0  0  0  0  0  0  0
    9.2861   -1.2743   25.3585 C   0  0  0  0  0  0  0  0  0  0  0  0
    1.8892  -10.3985   17.7511 N   0  0  0  0  0  0  0  0  0  0  0  0
    9.6210   -0.6952   24.0976 C   0  0  0  0  0  0  0  0  0  0  0  0
    7.0792   -9.0217   17.1429 C   0  0  0  0  0  0  0  0  0  0  0  0
    3.1713  -10.1816   17.6634 C   0  0  0  0  0  0  0  0  0  0  0  0
    2.7878   -8.3822   16.2137 C   0  0  0  0  0  0  0  0  0  0  0  0
    9.4601   -2.6590   25.6528 C   0  0  0  0  0  0  0  0  0  0  0  0
   10.1182   -1.5672   23.1165 C   0  0  0  0  0  0  0  0  0  0  0  0
    1.0552   -9.6360   17.0650 C   0  0  0  0  0  0  0  0  0  0  0  0
    3.6519   -9.1783   16.9039 C   0  0  0  0  0  0  0  0  0  0  0  0
    7.8675   -7.0096   15.9415 C   0  0  0  0  0  0  0  0  0  0  0  0
    5.9733   -9.6553   17.3832 N   0  0  0  0  0  0  0  0  0  0  0  0
   10.2411   -2.9363   23.4301 C   0  0  0  0  0  0  0  0  0  0  0  0
   10.7288   -3.8197   19.9525 C   0  0  0  0  0  0  0  0  0  0  0  0
   10.1189   -5.0054   19.6987 C   0  0  0  0  0  0  0  0  0  0  0  0
  1  3  4  0
  1  7  4  0
  2 21  4  0
  2 27  4  0
  3  9  4  0
  3 10  4  0
  4  8  4  0
  4 18  4  0
  4 25  1  0
  5  9  4  0
  5 12  4  0
  6 13  1  0
  6 27  1  0
  7 28  4  0
  8 11  4  0
  9 29  4  0
 10 12  4  0
 11 24  1  0
 11 26  4  0
 12 25  1  0
 13 28  1  0
 14 20  4  0
 14 23  4  0
 15 17  4  0
 15 21  4  0
 16 19  4  0
 16 23  4  0
 17 22  4  0
 18 26  4  0
 19 24  4  0
 20 24  4  0
 22 27  4  0
 28 29  4  0
M  END
$$$$

 Created by Python create_sdf_string function

 29 33  0  0  0  0  0  0  0  0999 V2000
   10.7215   -3.3326   17.6437 C   0  0  0  0  0  0  0  0  0  0  0  0
    9.9489   -3.4675   24.6487 N   0  0  0  0  0  0  0  0  0  0  0  0
   10.0172   -4.4740   17.4101 C   0  0  0  0  0  0  0  0  0  0  0  0
    6.9051   -7.9575   16.4222 C   0  0  0  0  0  0  0  0  0  0  0  0
    8.9969   -6.3552   17.9668 N   0  0  0  0  0  0  0  0  0  0  0  0
   10.6702   -3.9051   22.4070 C   0  0  0  0  0  0  0  0  0  0  0  0
   11.0625   -3.0028   18.8894 C   0  0  0  0  0  0  0  0  0  0  0  0
    5.6180   -7.9194   16.1754 O   0  0  0  0  0  0  0  0  0  0  0  0
    9.7259   -5.3080   18.4485 C   0  0  0  0  0  0  0  0  0  0  0  0
    9.4578   -5.0200   16.3036 N   0  0  0  0  0  0  0  0  0  0  0  0
    5.0287   -8.9365   16.8223 C   0  0  0  0  0  0  0  0  0  0  0  0
    8.7742   -6.1498   16.6764 C   0  0  0  0  0  0  0  0  0  0  0  0
   10.9418   -3.4032   21.2053 O   0  0  0  0  0  0  0  0  0  0  0  0
    1.4797   -8.6258   16.2950 C   0  0  0  0  0  0  0  0  0  0  0  0
    9.2861   -1.2743   25.3585 C   0  0  0  0  0  0  0  0  0  0  0  0
    1.8892  -10.3985   17.7511 N   0  0  0  0  0  0  0  0  0  0  0  0
    9.6210   -0.6952   24.0976 C   0  0  0  0  0  0  0  0  0  0  0  0
    7.0792   -9.0217   17.1429 C   0  0  0  0  0  0  0  0  0  0  0  0
    3.1713  -10.1816   17.6634 C   0  0  0  0  0  0  0  0  0  0  0  0
    2.7878   -8.3822   16.2137 C   0  0  0  0  0  0  0  0  0  0  0  0
    9.4601   -2.6590   25.6528 C   0  0  0  0  0  0  0  0  0  0  0  0
   10.1182   -1.5672   23.1165 C   0  0  0  0  0  0  0  0  0  0  0  0
    1.0552   -9.6360   17.0650 C   0  0  0  0  0  0  0  0  0  0  0  0
    3.6519   -9.1783   16.9039 C   0  0  0  0  0  0  0  0  0  0  0  0
    7.8675   -7.0096   15.9415 C   0  0  0  0  0  0  0  0  0  0  0  0
    5.9733   -9.6553   17.3832 N   0  0  0  0  0  0  0  0  0  0  0  0
   10.2411   -2.9363   23.4301 C   0  0  0  0  0  0  0  0  0  0  0  0
   10.7288   -3.8197   19.9525 C   0  0  0  0  0  0  0  0  0  0  0  0
   10.1189   -5.0054   19.6987 C   0  0  0  0  0  0  0  0  0  0  0  0
  1  3  4  0
  1  7  4  0
  2 21  4  0
  2 27  4  0
  3  9  4  0
  3 10  4  0
  4  8  4  0
  4 18  4  0
  4 25  1  0
  5  9  4  0
  5 12  4  0
  6 13  1  0
  6 27  1  0
  7 28  4  0
  8 11  4  0
  9 29  4  0
 10 12  4  0
 11 24  1  0
 11 26  4  0
 12 25  1  0
 13 28  1  0
 14 20  4  0
 14 23  4  0
 15 17  4  0
 15 21  4  0
 16 19  4  0
 16 23  4  0
 17 22  4  0
 18 26  4  0
 19 24  4  0
 20 24  4  0
 22 27  4  0
 28 29  4  0
M  END
$$$$

 Created by Python create_sdf_string function

 29 33  0  0  0  0  0  0  0  0999 V2000
   10.7215   -3.3326   17.6437 C   0  0  0  0  0  0  0  0  0  0  0  0
    9.9489   -3.4675   24.6487 N   0  0  0  0  0  0  0  0  0  0  0  0
   10.0172   -4.4740   17.4101 C   0  0  0  0  0  0  0  0  0  0  0  0
    6.9051   -7.9575   16.4222 C   0  0  0  0  0  0  0  0  0  0  0  0
    8.9969   -6.3552   17.9668 N   0  0  0  0  0  0  0  0  0  0  0  0
   10.6702   -3.9051   22.4070 C   0  0  0  0  0  0  0  0  0  0  0  0
   11.0625   -3.0028   18.8894 C   0  0  0  0  0  0  0  0  0  0  0  0
    5.6180   -7.9194   16.1754 O   0  0  0  0  0  0  0  0  0  0  0  0
    9.7259   -5.3080   18.4485 C   0  0  0  0  0  0  0  0  0  0  0  0
    9.4578   -5.0200   16.3036 N   0  0  0  0  0  0  0  0  0  0  0  0
    5.0287   -8.9365   16.8223 C   0  0  0  0  0  0  0  0  0  0  0  0
    8.7742   -6.1498   16.6764 C   0  0  0  0  0  0  0  0  0  0  0  0
   10.9418   -3.4032   21.2053 O   0  0  0  0  0  0  0  0  0  0  0  0
    1.4797   -8.6258   16.2950 C   0  0  0  0  0  0  0  0  0  0  0  0
    9.2861   -1.2743   25.3585 C   0  0  0  0  0  0  0  0  0  0  0  0
    1.8892  -10.3985   17.7511 N   0  0  0  0  0  0  0  0  0  0  0  0
    9.6210   -0.6952   24.0976 C   0  0  0  0  0  0  0  0  0  0  0  0
    7.0792   -9.0217   17.1429 C   0  0  0  0  0  0  0  0  0  0  0  0
    3.1713  -10.1816   17.6634 C   0  0  0  0  0  0  0  0  0  0  0  0
    2.7878   -8.3822   16.2137 C   0  0  0  0  0  0  0  0  0  0  0  0
    9.4601   -2.6590   25.6528 C   0  0  0  0  0  0  0  0  0  0  0  0
   10.1182   -1.5672   23.1165 C   0  0  0  0  0  0  0  0  0  0  0  0
    1.0552   -9.6360   17.0650 C   0  0  0  0  0  0  0  0  0  0  0  0
    3.6519   -9.1783   16.9039 C   0  0  0  0  0  0  0  0  0  0  0  0
    7.8675   -7.0096   15.9415 C   0  0  0  0  0  0  0  0  0  0  0  0
    5.9733   -9.6553   17.3832 N   0  0  0  0  0  0  0  0  0  0  0  0
   10.2411   -2.9363   23.4301 C   0  0  0  0  0  0  0  0  0  0  0  0
   10.7288   -3.8197   19.9525 C   0  0  0  0  0  0  0  0  0  0  0  0
   10.1189   -5.0054   19.6987 C   0  0  0  0  0  0  0  0  0  0  0  0
  1  3  4  0
  1  7  4  0
  2 21  4  0
  2 27  4  0
  3  9  4  0
  3 10  4  0
  4  8  4  0
  4 18  4  0
  4 25  1  0
  5  9  4  0
  5 12  4  0
  6 13  1  0
  6 27  1  0
  7 28  4  0
  8 11  4  0
  9 29  4  0
 10 12  4  0
 11 24  1  0
 11 26  4  0
 12 25  1  0
 13 28  1  0
 14 20  4  0
 14 23  4  0
 15 17  4  0
 15 21  4  0
 16 19  4  0
 16 23  4  0
 17 22  4  0
 18 26  4  0
 19 24  4  0
 20 24  4  0
 22 27  4  0
 28 29  4  0
M  END
$$$$

 Created by Python create_sdf_string function

 29 33  0  0  0  0  0  0  0  0999 V2000
   10.7215   -3.3326   17.6437 C   0  0  0  0  0  0  0  0  0  0  0  0
    9.9489   -3.4675   24.6487 N   0  0  0  0  0  0  0  0  0  0  0  0
   10.0172   -4.4740   17.4101 C   0  0  0  0  0  0  0  0  0  0  0  0
    6.9051   -7.9575   16.4222 C   0  0  0  0  0  0  0  0  0  0  0  0
    8.9969   -6.3552   17.9668 N   0  0  0  0  0  0  0  0  0  0  0  0
   10.6702   -3.9051   22.4070 C   0  0  0  0  0  0  0  0  0  0  0  0
   11.0625   -3.0028   18.8894 C   0  0  0  0  0  0  0  0  0  0  0  0
    5.6180   -7.9194   16.1754 O   0  0  0  0  0  0  0  0  0  0  0  0
    9.7259   -5.3080   18.4485 C   0  0  0  0  0  0  0  0  0  0  0  0
    9.4578   -5.0200   16.3036 N   0  0  0  0  0  0  0  0  0  0  0  0
    5.0287   -8.9365   16.8223 C   0  0  0  0  0  0  0  0  0  0  0  0
    8.7742   -6.1498   16.6764 C   0  0  0  0  0  0  0  0  0  0  0  0
   10.9418   -3.4032   21.2053 O   0  0  0  0  0  0  0  0  0  0  0  0
    1.4797   -8.6258   16.2950 C   0  0  0  0  0  0  0  0  0  0  0  0
    9.2861   -1.2743   25.3585 C   0  0  0  0  0  0  0  0  0  0  0  0
    1.8892  -10.3985   17.7511 N   0  0  0  0  0  0  0  0  0  0  0  0
    9.6210   -0.6952   24.0976 C   0  0  0  0  0  0  0  0  0  0  0  0
    7.0792   -9.0217   17.1429 C   0  0  0  0  0  0  0  0  0  0  0  0
    3.1713  -10.1816   17.6634 C   0  0  0  0  0  0  0  0  0  0  0  0
    2.7878   -8.3822   16.2137 C   0  0  0  0  0  0  0  0  0  0  0  0
    9.4601   -2.6590   25.6528 C   0  0  0  0  0  0  0  0  0  0  0  0
   10.1182   -1.5672   23.1165 C   0  0  0  0  0  0  0  0  0  0  0  0
    1.0552   -9.6360   17.0650 C   0  0  0  0  0  0  0  0  0  0  0  0
    3.6519   -9.1783   16.9039 C   0  0  0  0  0  0  0  0  0  0  0  0
    7.8675   -7.0096   15.9415 C   0  0  0  0  0  0  0  0  0  0  0  0
    5.9733   -9.6553   17.3832 N   0  0  0  0  0  0  0  0  0  0  0  0
   10.2411   -2.9363   23.4301 C   0  0  0  0  0  0  0  0  0  0  0  0
   10.7288   -3.8197   19.9525 C   0  0  0  0  0  0  0  0  0  0  0  0
   10.1189   -5.0054   19.6987 C   0  0  0  0  0  0  0  0  0  0  0  0
  1  3  4  0
  1  7  4  0
  2 21  4  0
  2 27  4  0
  3  9  4  0
  3 10  4  0
  4  8  4  0
  4 18  4  0
  4 25  1  0
  5  9  4  0
  5 12  4  0
  6 13  1  0
  6 27  1  0
  7 28  4  0
  8 11  4  0
  9 29  4  0
 10 12  4  0
 11 24  1  0
 11 26  4  0
 12 25  1  0
 13 28  1  0
 14 20  4  0
 14 23  4  0
 15 17  4  0
 15 21  4  0
 16 19  4  0
 16 23  4  0
 17 22  4  0
 18 26  4  0
 19 24  4  0
 20 24  4  0
 22 27  4  0
 28 29  4  0
M  END
$$$$

 Created by Python create_sdf_string function

 29 33  0  0  0  0  0  0  0  0999 V2000
   10.7215   -3.3326   17.6437 C   0  0  0  0  0  0  0  0  0  0  0  0
    9.9489   -3.4675   24.6487 N   0  0  0  0  0  0  0  0  0  0  0  0
   10.0172   -4.4740   17.4101 C   0  0  0  0  0  0  0  0  0  0  0  0
    6.9051   -7.9575   16.4222 C   0  0  0  0  0  0  0  0  0  0  0  0
    8.9969   -6.3552   17.9668 N   0  0  0  0  0  0  0  0  0  0  0  0
   10.6702   -3.9051   22.4070 C   0  0  0  0  0  0  0  0  0  0  0  0
   11.0625   -3.0028   18.8894 C   0  0  0  0  0  0  0  0  0  0  0  0
    5.6180   -7.9194   16.1754 O   0  0  0  0  0  0  0  0  0  0  0  0
    9.7259   -5.3080   18.4485 C   0  0  0  0  0  0  0  0  0  0  0  0
    9.4578   -5.0200   16.3036 N   0  0  0  0  0  0  0  0  0  0  0  0
    5.0287   -8.9365   16.8223 C   0  0  0  0  0  0  0  0  0  0  0  0
    8.7742   -6.1498   16.6764 C   0  0  0  0  0  0  0  0  0  0  0  0
   10.9418   -3.4032   21.2053 O   0  0  0  0  0  0  0  0  0  0  0  0
    1.4797   -8.6258   16.2950 C   0  0  0  0  0  0  0  0  0  0  0  0
    9.2861   -1.2743   25.3585 C   0  0  0  0  0  0  0  0  0  0  0  0
    1.8892  -10.3985   17.7511 N   0  0  0  0  0  0  0  0  0  0  0  0
    9.6210   -0.6952   24.0976 C   0  0  0  0  0  0  0  0  0  0  0  0
    7.0792   -9.0217   17.1429 C   0  0  0  0  0  0  0  0  0  0  0  0
    3.1713  -10.1816   17.6634 C   0  0  0  0  0  0  0  0  0  0  0  0
    2.7878   -8.3822   16.2137 C   0  0  0  0  0  0  0  0  0  0  0  0
    9.4601   -2.6590   25.6528 C   0  0  0  0  0  0  0  0  0  0  0  0
   10.1182   -1.5672   23.1165 C   0  0  0  0  0  0  0  0  0  0  0  0
    1.0552   -9.6360   17.0650 C   0  0  0  0  0  0  0  0  0  0  0  0
    3.6519   -9.1783   16.9039 C   0  0  0  0  0  0  0  0  0  0  0  0
    7.8675   -7.0096   15.9415 C   0  0  0  0  0  0  0  0  0  0  0  0
    5.9733   -9.6553   17.3832 N   0  0  0  0  0  0  0  0  0  0  0  0
   10.2411   -2.9363   23.4301 C   0  0  0  0  0  0  0  0  0  0  0  0
   10.7288   -3.8197   19.9525 C   0  0  0  0  0  0  0  0  0  0  0  0
   10.1189   -5.0054   19.6987 C   0  0  0  0  0  0  0  0  0  0  0  0
  1  3  4  0
  1  7  4  0
  2 21  4  0
  2 27  4  0
  3  9  4  0
  3 10  4  0
  4  8  4  0
  4 18  4  0
  4 25  1  0
  5  9  4  0
  5 12  4  0
  6 13  1  0
  6 27  1  0
  7 28  4  0
  8 11  4  0
  9 29  4  0
 10 12  4  0
 11 24  1  0
 11 26  4  0
 12 25  1  0
 13 28  1  0
 14 20  4  0
 14 23  4  0
 15 17  4  0
 15 21  4  0
 16 19  4  0
 16 23  4  0
 17 22  4  0
 18 26  4  0
 19 24  4  0
 20 24  4  0
 22 27  4  0
 28 29  4  0
M  END
$$$$

 Created by Python create_sdf_string function

 29 33  0  0  0  0  0  0  0  0999 V2000
   10.7215   -3.3326   17.6437 C   0  0  0  0  0  0  0  0  0  0  0  0
    9.9489   -3.4675   24.6487 N   0  0  0  0  0  0  0  0  0  0  0  0
   10.0172   -4.4740   17.4101 C   0  0  0  0  0  0  0  0  0  0  0  0
    6.9051   -7.9575   16.4222 C   0  0  0  0  0  0  0  0  0  0  0  0
    8.9969   -6.3552   17.9668 N   0  0  0  0  0  0  0  0  0  0  0  0
   10.6702   -3.9051   22.4070 C   0  0  0  0  0  0  0  0  0  0  0  0
   11.0625   -3.0028   18.8894 C   0  0  0  0  0  0  0  0  0  0  0  0
    5.6180   -7.9194   16.1754 O   0  0  0  0  0  0  0  0  0  0  0  0
    9.7259   -5.3080   18.4485 C   0  0  0  0  0  0  0  0  0  0  0  0
    9.4578   -5.0200   16.3036 N   0  0  0  0  0  0  0  0  0  0  0  0
    5.0287   -8.9365   16.8223 C   0  0  0  0  0  0  0  0  0  0  0  0
    8.7742   -6.1498   16.6764 C   0  0  0  0  0  0  0  0  0  0  0  0
   10.9418   -3.4032   21.2053 O   0  0  0  0  0  0  0  0  0  0  0  0
    1.4797   -8.6258   16.2950 C   0  0  0  0  0  0  0  0  0  0  0  0
    9.2861   -1.2743   25.3585 C   0  0  0  0  0  0  0  0  0  0  0  0
    1.8892  -10.3985   17.7511 N   0  0  0  0  0  0  0  0  0  0  0  0
    9.6210   -0.6952   24.0976 C   0  0  0  0  0  0  0  0  0  0  0  0
    7.0792   -9.0217   17.1429 C   0  0  0  0  0  0  0  0  0  0  0  0
    3.1713  -10.1816   17.6634 C   0  0  0  0  0  0  0  0  0  0  0  0
    2.7878   -8.3822   16.2137 C   0  0  0  0  0  0  0  0  0  0  0  0
    9.4601   -2.6590   25.6528 C   0  0  0  0  0  0  0  0  0  0  0  0
   10.1182   -1.5672   23.1165 C   0  0  0  0  0  0  0  0  0  0  0  0
    1.0552   -9.6360   17.0650 C   0  0  0  0  0  0  0  0  0  0  0  0
    3.6519   -9.1783   16.9039 C   0  0  0  0  0  0  0  0  0  0  0  0
    7.8675   -7.0096   15.9415 C   0  0  0  0  0  0  0  0  0  0  0  0
    5.9733   -9.6553   17.3832 N   0  0  0  0  0  0  0  0  0  0  0  0
   10.2411   -2.9363   23.4301 C   0  0  0  0  0  0  0  0  0  0  0  0
   10.7288   -3.8197   19.9525 C   0  0  0  0  0  0  0  0  0  0  0  0
   10.1189   -5.0054   19.6987 C   0  0  0  0  0  0  0  0  0  0  0  0
  1  3  4  0
  1  7  4  0
  2 21  4  0
  2 27  4  0
  3  9  4  0
  3 10  4  0
  4  8  4  0
  4 18  4  0
  4 25  1  0
  5  9  4  0
  5 12  4  0
  6 13  1  0
  6 27  1  0
  7 28  4  0
  8 11  4  0
  9 29  4  0
 10 12  4  0
 11 24  1  0
 11 26  4  0
 12 25  1  0
 13 28  1  0
 14 20  4  0
 14 23  4  0
 15 17  4  0
 15 21  4  0
 16 19  4  0
 16 23  4  0
 17 22  4  0
 18 26  4  0
 19 24  4  0
 20 24  4  0
 22 27  4  0
 28 29  4  0
M  END
$$$$

 Created by Python create_sdf_string function

 29 33  0  0  0  0  0  0  0  0999 V2000
   10.7215   -3.3326   17.6437 C   0  0  0  0  0  0  0  0  0  0  0  0
    9.9489   -3.4675   24.6487 N   0  0  0  0  0  0  0  0  0  0  0  0
   10.0172   -4.4740   17.4101 C   0  0  0  0  0  0  0  0  0  0  0  0
    6.9051   -7.9575   16.4222 C   0  0  0  0  0  0  0  0  0  0  0  0
    8.9969   -6.3552   17.9668 N   0  0  0  0  0  0  0  0  0  0  0  0
   10.6702   -3.9051   22.4070 C   0  0  0  0  0  0  0  0  0  0  0  0
   11.0625   -3.0028   18.8894 C   0  0  0  0  0  0  0  0  0  0  0  0
    5.6180   -7.9194   16.1754 O   0  0  0  0  0  0  0  0  0  0  0  0
    9.7259   -5.3080   18.4485 C   0  0  0  0  0  0  0  0  0  0  0  0
    9.4578   -5.0200   16.3036 N   0  0  0  0  0  0  0  0  0  0  0  0
    5.0287   -8.9365   16.8223 C   0  0  0  0  0  0  0  0  0  0  0  0
    8.7742   -6.1498   16.6764 C   0  0  0  0  0  0  0  0  0  0  0  0
   10.9418   -3.4032   21.2053 O   0  0  0  0  0  0  0  0  0  0  0  0
    1.4797   -8.6258   16.2950 C   0  0  0  0  0  0  0  0  0  0  0  0
    9.2861   -1.2743   25.3585 C   0  0  0  0  0  0  0  0  0  0  0  0
    1.8892  -10.3985   17.7511 N   0  0  0  0  0  0  0  0  0  0  0  0
    9.6210   -0.6952   24.0976 C   0  0  0  0  0  0  0  0  0  0  0  0
    7.0792   -9.0217   17.1429 C   0  0  0  0  0  0  0  0  0  0  0  0
    3.1713  -10.1816   17.6634 C   0  0  0  0  0  0  0  0  0  0  0  0
    2.7878   -8.3822   16.2137 C   0  0  0  0  0  0  0  0  0  0  0  0
    9.4601   -2.6590   25.6528 C   0  0  0  0  0  0  0  0  0  0  0  0
   10.1182   -1.5672   23.1165 C   0  0  0  0  0  0  0  0  0  0  0  0
    1.0552   -9.6360   17.0650 C   0  0  0  0  0  0  0  0  0  0  0  0
    3.6519   -9.1783   16.9039 C   0  0  0  0  0  0  0  0  0  0  0  0
    7.8675   -7.0096   15.9415 C   0  0  0  0  0  0  0  0  0  0  0  0
    5.9733   -9.6553   17.3832 N   0  0  0  0  0  0  0  0  0  0  0  0
   10.2411   -2.9363   23.4301 C   0  0  0  0  0  0  0  0  0  0  0  0
   10.7288   -3.8197   19.9525 C   0  0  0  0  0  0  0  0  0  0  0  0
   10.1189   -5.0054   19.6987 C   0  0  0  0  0  0  0  0  0  0  0  0
  1  3  4  0
  1  7  4  0
  2 21  4  0
  2 27  4  0
  3  9  4  0
  3 10  4  0
  4  8  4  0
  4 18  4  0
  4 25  1  0
  5  9  4  0
  5 12  4  0
  6 13  1  0
  6 27  1  0
  7 28  4  0
  8 11  4  0
  9 29  4  0
 10 12  4  0
 11 24  1  0
 11 26  4  0
 12 25  1  0
 13 28  1  0
 14 20  4  0
 14 23  4  0
 15 17  4  0
 15 21  4  0
 16 19  4  0
 16 23  4  0
 17 22  4  0
 18 26  4  0
 19 24  4  0
 20 24  4  0
 22 27  4  0
 28 29  4  0
M  END
$$$$

 Created by Python create_sdf_string function

 29 33  0  0  0  0  0  0  0  0999 V2000
   10.7215   -3.3326   17.6437 C   0  0  0  0  0  0  0  0  0  0  0  0
    9.9489   -3.4675   24.6487 N   0  0  0  0  0  0  0  0  0  0  0  0
   10.0172   -4.4740   17.4101 C   0  0  0  0  0  0  0  0  0  0  0  0
    6.9051   -7.9575   16.4222 C   0  0  0  0  0  0  0  0  0  0  0  0
    8.9969   -6.3552   17.9668 N   0  0  0  0  0  0  0  0  0  0  0  0
   10.6702   -3.9051   22.4070 C   0  0  0  0  0  0  0  0  0  0  0  0
   11.0625   -3.0028   18.8894 C   0  0  0  0  0  0  0  0  0  0  0  0
    5.6180   -7.9194   16.1754 O   0  0  0  0  0  0  0  0  0  0  0  0
    9.7259   -5.3080   18.4485 C   0  0  0  0  0  0  0  0  0  0  0  0
    9.4578   -5.0200   16.3036 N   0  0  0  0  0  0  0  0  0  0  0  0
    5.0287   -8.9365   16.8223 C   0  0  0  0  0  0  0  0  0  0  0  0
    8.7742   -6.1498   16.6764 C   0  0  0  0  0  0  0  0  0  0  0  0
   10.9418   -3.4032   21.2053 O   0  0  0  0  0  0  0  0  0  0  0  0
    1.4797   -8.6258   16.2950 C   0  0  0  0  0  0  0  0  0  0  0  0
    9.2861   -1.2743   25.3585 C   0  0  0  0  0  0  0  0  0  0  0  0
    1.8892  -10.3985   17.7511 N   0  0  0  0  0  0  0  0  0  0  0  0
    9.6210   -0.6952   24.0976 C   0  0  0  0  0  0  0  0  0  0  0  0
    7.0792   -9.0217   17.1429 C   0  0  0  0  0  0  0  0  0  0  0  0
    3.1713  -10.1816   17.6634 C   0  0  0  0  0  0  0  0  0  0  0  0
    2.7878   -8.3822   16.2137 C   0  0  0  0  0  0  0  0  0  0  0  0
    9.4601   -2.6590   25.6528 C   0  0  0  0  0  0  0  0  0  0  0  0
   10.1182   -1.5672   23.1165 C   0  0  0  0  0  0  0  0  0  0  0  0
    1.0552   -9.6360   17.0650 C   0  0  0  0  0  0  0  0  0  0  0  0
    3.6519   -9.1783   16.9039 C   0  0  0  0  0  0  0  0  0  0  0  0
    7.8675   -7.0096   15.9415 C   0  0  0  0  0  0  0  0  0  0  0  0
    5.9733   -9.6553   17.3832 N   0  0  0  0  0  0  0  0  0  0  0  0
   10.2411   -2.9363   23.4301 C   0  0  0  0  0  0  0  0  0  0  0  0
   10.7288   -3.8197   19.9525 C   0  0  0  0  0  0  0  0  0  0  0  0
   10.1189   -5.0054   19.6987 C   0  0  0  0  0  0  0  0  0  0  0  0
  1  3  4  0
  1  7  4  0
  2 21  4  0
  2 27  4  0
  3  9  4  0
  3 10  4  0
  4  8  4  0
  4 18  4  0
  4 25  1  0
  5  9  4  0
  5 12  4  0
  6 13  1  0
  6 27  1  0
  7 28  4  0
  8 11  4  0
  9 29  4  0
 10 12  4  0
 11 24  1  0
 11 26  4  0
 12 25  1  0
 13 28  1  0
 14 20  4  0
 14 23  4  0
 15 17  4  0
 15 21  4  0
 16 19  4  0
 16 23  4  0
 17 22  4  0
 18 26  4  0
 19 24  4  0
 20 24  4  0
 22 27  4  0
 28 29  4  0
M  END
$$$$

 Created by Python create_sdf_string function

 29 33  0  0  0  0  0  0  0  0999 V2000
   10.7215   -3.3326   17.6437 C   0  0  0  0  0  0  0  0  0  0  0  0
    9.9489   -3.4675   24.6487 N   0  0  0  0  0  0  0  0  0  0  0  0
   10.0172   -4.4740   17.4101 C   0  0  0  0  0  0  0  0  0  0  0  0
    6.9051   -7.9575   16.4222 C   0  0  0  0  0  0  0  0  0  0  0  0
    8.9969   -6.3552   17.9668 N   0  0  0  0  0  0  0  0  0  0  0  0
   10.6702   -3.9051   22.4070 C   0  0  0  0  0  0  0  0  0  0  0  0
   11.0625   -3.0028   18.8894 C   0  0  0  0  0  0  0  0  0  0  0  0
    5.6180   -7.9194   16.1754 O   0  0  0  0  0  0  0  0  0  0  0  0
    9.7259   -5.3080   18.4485 C   0  0  0  0  0  0  0  0  0  0  0  0
    9.4578   -5.0200   16.3036 N   0  0  0  0  0  0  0  0  0  0  0  0
    5.0287   -8.9365   16.8223 C   0  0  0  0  0  0  0  0  0  0  0  0
    8.7742   -6.1498   16.6764 C   0  0  0  0  0  0  0  0  0  0  0  0
   10.9418   -3.4032   21.2053 O   0  0  0  0  0  0  0  0  0  0  0  0
    1.4797   -8.6258   16.2950 C   0  0  0  0  0  0  0  0  0  0  0  0
    9.2861   -1.2743   25.3585 C   0  0  0  0  0  0  0  0  0  0  0  0
    1.8892  -10.3985   17.7511 N   0  0  0  0  0  0  0  0  0  0  0  0
    9.6210   -0.6952   24.0976 C   0  0  0  0  0  0  0  0  0  0  0  0
    7.0792   -9.0217   17.1429 C   0  0  0  0  0  0  0  0  0  0  0  0
    3.1713  -10.1816   17.6634 C   0  0  0  0  0  0  0  0  0  0  0  0
    2.7878   -8.3822   16.2137 C   0  0  0  0  0  0  0  0  0  0  0  0
    9.4601   -2.6590   25.6528 C   0  0  0  0  0  0  0  0  0  0  0  0
   10.1182   -1.5672   23.1165 C   0  0  0  0  0  0  0  0  0  0  0  0
    1.0552   -9.6360   17.0650 C   0  0  0  0  0  0  0  0  0  0  0  0
    3.6519   -9.1783   16.9039 C   0  0  0  0  0  0  0  0  0  0  0  0
    7.8675   -7.0096   15.9415 C   0  0  0  0  0  0  0  0  0  0  0  0
    5.9733   -9.6553   17.3832 N   0  0  0  0  0  0  0  0  0  0  0  0
   10.2411   -2.9363   23.4301 C   0  0  0  0  0  0  0  0  0  0  0  0
   10.7288   -3.8197   19.9525 C   0  0  0  0  0  0  0  0  0  0  0  0
   10.1189   -5.0054   19.6987 C   0  0  0  0  0  0  0  0  0  0  0  0
  1  3  4  0
  1  7  4  0
  2 21  4  0
  2 27  4  0
  3  9  4  0
  3 10  4  0
  4  8  4  0
  4 18  4  0
  4 25  1  0
  5  9  4  0
  5 12  4  0
  6 13  1  0
  6 27  1  0
  7 28  4  0
  8 11  4  0
  9 29  4  0
 10 12  4  0
 11 24  1  0
 11 26  4  0
 12 25  1  0
 13 28  1  0
 14 20  4  0
 14 23  4  0
 15 17  4  0
 15 21  4  0
 16 19  4  0
 16 23  4  0
 17 22  4  0
 18 26  4  0
 19 24  4  0
 20 24  4  0
 22 27  4  0
 28 29  4  0
M  END
$$$$

 Created by Python create_sdf_string function

 29 33  0  0  0  0  0  0  0  0999 V2000
   10.7215   -3.3326   17.6437 C   0  0  0  0  0  0  0  0  0  0  0  0
    9.9489   -3.4675   24.6487 N   0  0  0  0  0  0  0  0  0  0  0  0
   10.0172   -4.4740   17.4101 C   0  0  0  0  0  0  0  0  0  0  0  0
    6.9051   -7.9575   16.4222 C   0  0  0  0  0  0  0  0  0  0  0  0
    8.9969   -6.3552   17.9668 N   0  0  0  0  0  0  0  0  0  0  0  0
   10.6702   -3.9051   22.4070 C   0  0  0  0  0  0  0  0  0  0  0  0
   11.0625   -3.0028   18.8894 C   0  0  0  0  0  0  0  0  0  0  0  0
    5.6180   -7.9194   16.1754 O   0  0  0  0  0  0  0  0  0  0  0  0
    9.7259   -5.3080   18.4485 C   0  0  0  0  0  0  0  0  0  0  0  0
    9.4578   -5.0200   16.3036 N   0  0  0  0  0  0  0  0  0  0  0  0
    5.0287   -8.9365   16.8223 C   0  0  0  0  0  0  0  0  0  0  0  0
    8.7742   -6.1498   16.6764 C   0  0  0  0  0  0  0  0  0  0  0  0
   10.9418   -3.4032   21.2053 O   0  0  0  0  0  0  0  0  0  0  0  0
    1.4797   -8.6258   16.2950 C   0  0  0  0  0  0  0  0  0  0  0  0
    9.2861   -1.2743   25.3585 C   0  0  0  0  0  0  0  0  0  0  0  0
    1.8892  -10.3985   17.7511 N   0  0  0  0  0  0  0  0  0  0  0  0
    9.6210   -0.6952   24.0976 C   0  0  0  0  0  0  0  0  0  0  0  0
    7.0792   -9.0217   17.1429 C   0  0  0  0  0  0  0  0  0  0  0  0
    3.1713  -10.1816   17.6634 C   0  0  0  0  0  0  0  0  0  0  0  0
    2.7878   -8.3822   16.2137 C   0  0  0  0  0  0  0  0  0  0  0  0
    9.4601   -2.6590   25.6528 C   0  0  0  0  0  0  0  0  0  0  0  0
   10.1182   -1.5672   23.1165 C   0  0  0  0  0  0  0  0  0  0  0  0
    1.0552   -9.6360   17.0650 C   0  0  0  0  0  0  0  0  0  0  0  0
    3.6519   -9.1783   16.9039 C   0  0  0  0  0  0  0  0  0  0  0  0
    7.8675   -7.0096   15.9415 C   0  0  0  0  0  0  0  0  0  0  0  0
    5.9733   -9.6553   17.3832 N   0  0  0  0  0  0  0  0  0  0  0  0
   10.2411   -2.9363   23.4301 C   0  0  0  0  0  0  0  0  0  0  0  0
   10.7288   -3.8197   19.9525 C   0  0  0  0  0  0  0  0  0  0  0  0
   10.1189   -5.0054   19.6987 C   0  0  0  0  0  0  0  0  0  0  0  0
  1  3  4  0
  1  7  4  0
  2 21  4  0
  2 27  4  0
  3  9  4  0
  3 10  4  0
  4  8  4  0
  4 18  4  0
  4 25  1  0
  5  9  4  0
  5 12  4  0
  6 13  1  0
  6 27  1  0
  7 28  4  0
  8 11  4  0
  9 29  4  0
 10 12  4  0
 11 24  1  0
 11 26  4  0
 12 25  1  0
 13 28  1  0
 14 20  4  0
 14 23  4  0
 15 17  4  0
 15 21  4  0
 16 19  4  0
 16 23  4  0
 17 22  4  0
 18 26  4  0
 19 24  4  0
 20 24  4  0
 22 27  4  0
 28 29  4  0
M  END
$$$$

 Created by Python create_sdf_string function

 29 33  0  0  0  0  0  0  0  0999 V2000
   10.7215   -3.3326   17.6437 C   0  0  0  0  0  0  0  0  0  0  0  0
    9.9489   -3.4675   24.6487 N   0  0  0  0  0  0  0  0  0  0  0  0
   10.0172   -4.4740   17.4101 C   0  0  0  0  0  0  0  0  0  0  0  0
    6.9051   -7.9575   16.4222 C   0  0  0  0  0  0  0  0  0  0  0  0
    8.9969   -6.3552   17.9668 N   0  0  0  0  0  0  0  0  0  0  0  0
   10.6702   -3.9051   22.4070 C   0  0  0  0  0  0  0  0  0  0  0  0
   11.0625   -3.0028   18.8894 C   0  0  0  0  0  0  0  0  0  0  0  0
    5.6180   -7.9194   16.1754 O   0  0  0  0  0  0  0  0  0  0  0  0
    9.7259   -5.3080   18.4485 C   0  0  0  0  0  0  0  0  0  0  0  0
    9.4578   -5.0200   16.3036 N   0  0  0  0  0  0  0  0  0  0  0  0
    5.0287   -8.9365   16.8223 C   0  0  0  0  0  0  0  0  0  0  0  0
    8.7742   -6.1498   16.6764 C   0  0  0  0  0  0  0  0  0  0  0  0
   10.9418   -3.4032   21.2053 O   0  0  0  0  0  0  0  0  0  0  0  0
    1.4797   -8.6258   16.2950 C   0  0  0  0  0  0  0  0  0  0  0  0
    9.2861   -1.2743   25.3585 C   0  0  0  0  0  0  0  0  0  0  0  0
    1.8892  -10.3985   17.7511 N   0  0  0  0  0  0  0  0  0  0  0  0
    9.6210   -0.6952   24.0976 C   0  0  0  0  0  0  0  0  0  0  0  0
    7.0792   -9.0217   17.1429 C   0  0  0  0  0  0  0  0  0  0  0  0
    3.1713  -10.1816   17.6634 C   0  0  0  0  0  0  0  0  0  0  0  0
    2.7878   -8.3822   16.2137 C   0  0  0  0  0  0  0  0  0  0  0  0
    9.4601   -2.6590   25.6528 C   0  0  0  0  0  0  0  0  0  0  0  0
   10.1182   -1.5672   23.1165 C   0  0  0  0  0  0  0  0  0  0  0  0
    1.0552   -9.6360   17.0650 C   0  0  0  0  0  0  0  0  0  0  0  0
    3.6519   -9.1783   16.9039 C   0  0  0  0  0  0  0  0  0  0  0  0
    7.8675   -7.0096   15.9415 C   0  0  0  0  0  0  0  0  0  0  0  0
    5.9733   -9.6553   17.3832 N   0  0  0  0  0  0  0  0  0  0  0  0
   10.2411   -2.9363   23.4301 C   0  0  0  0  0  0  0  0  0  0  0  0
   10.7288   -3.8197   19.9525 C   0  0  0  0  0  0  0  0  0  0  0  0
   10.1189   -5.0054   19.6987 C   0  0  0  0  0  0  0  0  0  0  0  0
  1  3  4  0
  1  7  4  0
  2 21  4  0
  2 27  4  0
  3  9  4  0
  3 10  4  0
  4  8  4  0
  4 18  4  0
  4 25  1  0
  5  9  4  0
  5 12  4  0
  6 13  1  0
  6 27  1  0
  7 28  4  0
  8 11  4  0
  9 29  4  0
 10 12  4  0
 11 24  1  0
 11 26  4  0
 12 25  1  0
 13 28  1  0
 14 20  4  0
 14 23  4  0
 15 17  4  0
 15 21  4  0
 16 19  4  0
 16 23  4  0
 17 22  4  0
 18 26  4  0
 19 24  4  0
 20 24  4  0
 22 27  4  0
 28 29  4  0
M  END
$$$$

 Created by Python create_sdf_string function

 29 33  0  0  0  0  0  0  0  0999 V2000
   10.7215   -3.3326   17.6437 C   0  0  0  0  0  0  0  0  0  0  0  0
    9.9489   -3.4675   24.6487 N   0  0  0  0  0  0  0  0  0  0  0  0
   10.0172   -4.4740   17.4101 C   0  0  0  0  0  0  0  0  0  0  0  0
    6.9051   -7.9575   16.4222 C   0  0  0  0  0  0  0  0  0  0  0  0
    8.9969   -6.3552   17.9668 N   0  0  0  0  0  0  0  0  0  0  0  0
   10.6702   -3.9051   22.4070 C   0  0  0  0  0  0  0  0  0  0  0  0
   11.0625   -3.0028   18.8894 C   0  0  0  0  0  0  0  0  0  0  0  0
    5.6180   -7.9194   16.1754 O   0  0  0  0  0  0  0  0  0  0  0  0
    9.7259   -5.3080   18.4485 C   0  0  0  0  0  0  0  0  0  0  0  0
    9.4578   -5.0200   16.3036 N   0  0  0  0  0  0  0  0  0  0  0  0
    5.0287   -8.9365   16.8223 C   0  0  0  0  0  0  0  0  0  0  0  0
    8.7742   -6.1498   16.6764 C   0  0  0  0  0  0  0  0  0  0  0  0
   10.9418   -3.4032   21.2053 O   0  0  0  0  0  0  0  0  0  0  0  0
    1.4797   -8.6258   16.2950 C   0  0  0  0  0  0  0  0  0  0  0  0
    9.2861   -1.2743   25.3585 C   0  0  0  0  0  0  0  0  0  0  0  0
    1.8892  -10.3985   17.7511 N   0  0  0  0  0  0  0  0  0  0  0  0
    9.6210   -0.6952   24.0976 C   0  0  0  0  0  0  0  0  0  0  0  0
    7.0792   -9.0217   17.1429 C   0  0  0  0  0  0  0  0  0  0  0  0
    3.1713  -10.1816   17.6634 C   0  0  0  0  0  0  0  0  0  0  0  0
    2.7878   -8.3822   16.2137 C   0  0  0  0  0  0  0  0  0  0  0  0
    9.4601   -2.6590   25.6528 C   0  0  0  0  0  0  0  0  0  0  0  0
   10.1182   -1.5672   23.1165 C   0  0  0  0  0  0  0  0  0  0  0  0
    1.0552   -9.6360   17.0650 C   0  0  0  0  0  0  0  0  0  0  0  0
    3.6519   -9.1783   16.9039 C   0  0  0  0  0  0  0  0  0  0  0  0
    7.8675   -7.0096   15.9415 C   0  0  0  0  0  0  0  0  0  0  0  0
    5.9733   -9.6553   17.3832 N   0  0  0  0  0  0  0  0  0  0  0  0
   10.2411   -2.9363   23.4301 C   0  0  0  0  0  0  0  0  0  0  0  0
   10.7288   -3.8197   19.9525 C   0  0  0  0  0  0  0  0  0  0  0  0
   10.1189   -5.0054   19.6987 C   0  0  0  0  0  0  0  0  0  0  0  0
  1  3  4  0
  1  7  4  0
  2 21  4  0
  2 27  4  0
  3  9  4  0
  3 10  4  0
  4  8  4  0
  4 18  4  0
  4 25  1  0
  5  9  4  0
  5 12  4  0
  6 13  1  0
  6 27  1  0
  7 28  4  0
  8 11  4  0
  9 29  4  0
 10 12  4  0
 11 24  1  0
 11 26  4  0
 12 25  1  0
 13 28  1  0
 14 20  4  0
 14 23  4  0
 15 17  4  0
 15 21  4  0
 16 19  4  0
 16 23  4  0
 17 22  4  0
 18 26  4  0
 19 24  4  0
 20 24  4  0
 22 27  4  0
 28 29  4  0
M  END
$$$$

 Created by Python create_sdf_string function

 29 33  0  0  0  0  0  0  0  0999 V2000
   10.7215   -3.3326   17.6437 C   0  0  0  0  0  0  0  0  0  0  0  0
    9.9489   -3.4675   24.6487 N   0  0  0  0  0  0  0  0  0  0  0  0
   10.0172   -4.4740   17.4101 C   0  0  0  0  0  0  0  0  0  0  0  0
    6.9051   -7.9575   16.4222 C   0  0  0  0  0  0  0  0  0  0  0  0
    8.9969   -6.3552   17.9668 N   0  0  0  0  0  0  0  0  0  0  0  0
   10.6702   -3.9051   22.4070 C   0  0  0  0  0  0  0  0  0  0  0  0
   11.0625   -3.0028   18.8894 C   0  0  0  0  0  0  0  0  0  0  0  0
    5.6180   -7.9194   16.1754 O   0  0  0  0  0  0  0  0  0  0  0  0
    9.7259   -5.3080   18.4485 C   0  0  0  0  0  0  0  0  0  0  0  0
    9.4578   -5.0200   16.3036 N   0  0  0  0  0  0  0  0  0  0  0  0
    5.0287   -8.9365   16.8223 C   0  0  0  0  0  0  0  0  0  0  0  0
    8.7742   -6.1498   16.6764 C   0  0  0  0  0  0  0  0  0  0  0  0
   10.9418   -3.4032   21.2053 O   0  0  0  0  0  0  0  0  0  0  0  0
    1.4797   -8.6258   16.2950 C   0  0  0  0  0  0  0  0  0  0  0  0
    9.2861   -1.2743   25.3585 C   0  0  0  0  0  0  0  0  0  0  0  0
    1.8892  -10.3985   17.7511 N   0  0  0  0  0  0  0  0  0  0  0  0
    9.6210   -0.6952   24.0976 C   0  0  0  0  0  0  0  0  0  0  0  0
    7.0792   -9.0217   17.1429 C   0  0  0  0  0  0  0  0  0  0  0  0
    3.1713  -10.1816   17.6634 C   0  0  0  0  0  0  0  0  0  0  0  0
    2.7878   -8.3822   16.2137 C   0  0  0  0  0  0  0  0  0  0  0  0
    9.4601   -2.6590   25.6528 C   0  0  0  0  0  0  0  0  0  0  0  0
   10.1182   -1.5672   23.1165 C   0  0  0  0  0  0  0  0  0  0  0  0
    1.0552   -9.6360   17.0650 C   0  0  0  0  0  0  0  0  0  0  0  0
    3.6519   -9.1783   16.9039 C   0  0  0  0  0  0  0  0  0  0  0  0
    7.8675   -7.0096   15.9415 C   0  0  0  0  0  0  0  0  0  0  0  0
    5.9733   -9.6553   17.3832 N   0  0  0  0  0  0  0  0  0  0  0  0
   10.2411   -2.9363   23.4301 C   0  0  0  0  0  0  0  0  0  0  0  0
   10.7288   -3.8197   19.9525 C   0  0  0  0  0  0  0  0  0  0  0  0
   10.1189   -5.0054   19.6987 C   0  0  0  0  0  0  0  0  0  0  0  0
  1  3  4  0
  1  7  4  0
  2 21  4  0
  2 27  4  0
  3  9  4  0
  3 10  4  0
  4  8  4  0
  4 18  4  0
  4 25  1  0
  5  9  4  0
  5 12  4  0
  6 13  1  0
  6 27  1  0
  7 28  4  0
  8 11  4  0
  9 29  4  0
 10 12  4  0
 11 24  1  0
 11 26  4  0
 12 25  1  0
 13 28  1  0
 14 20  4  0
 14 23  4  0
 15 17  4  0
 15 21  4  0
 16 19  4  0
 16 23  4  0
 17 22  4  0
 18 26  4  0
 19 24  4  0
 20 24  4  0
 22 27  4  0
 28 29  4  0
M  END
$$$$

 Created by Python create_sdf_string function

 29 33  0  0  0  0  0  0  0  0999 V2000
   10.7215   -3.3326   17.6437 C   0  0  0  0  0  0  0  0  0  0  0  0
    9.9489   -3.4675   24.6487 N   0  0  0  0  0  0  0  0  0  0  0  0
   10.0172   -4.4740   17.4101 C   0  0  0  0  0  0  0  0  0  0  0  0
    6.9051   -7.9575   16.4222 C   0  0  0  0  0  0  0  0  0  0  0  0
    8.9969   -6.3552   17.9668 N   0  0  0  0  0  0  0  0  0  0  0  0
   10.6702   -3.9051   22.4070 C   0  0  0  0  0  0  0  0  0  0  0  0
   11.0625   -3.0028   18.8894 C   0  0  0  0  0  0  0  0  0  0  0  0
    5.6180   -7.9194   16.1754 O   0  0  0  0  0  0  0  0  0  0  0  0
    9.7259   -5.3080   18.4485 C   0  0  0  0  0  0  0  0  0  0  0  0
    9.4578   -5.0200   16.3036 N   0  0  0  0  0  0  0  0  0  0  0  0
    5.0287   -8.9365   16.8223 C   0  0  0  0  0  0  0  0  0  0  0  0
    8.7742   -6.1498   16.6764 C   0  0  0  0  0  0  0  0  0  0  0  0
   10.9418   -3.4032   21.2053 O   0  0  0  0  0  0  0  0  0  0  0  0
    1.4797   -8.6258   16.2950 C   0  0  0  0  0  0  0  0  0  0  0  0
    9.2861   -1.2743   25.3585 C   0  0  0  0  0  0  0  0  0  0  0  0
    1.8892  -10.3985   17.7511 N   0  0  0  0  0  0  0  0  0  0  0  0
    9.6210   -0.6952   24.0976 C   0  0  0  0  0  0  0  0  0  0  0  0
    7.0792   -9.0217   17.1429 C   0  0  0  0  0  0  0  0  0  0  0  0
    3.1713  -10.1816   17.6634 C   0  0  0  0  0  0  0  0  0  0  0  0
    2.7878   -8.3822   16.2137 C   0  0  0  0  0  0  0  0  0  0  0  0
    9.4601   -2.6590   25.6528 C   0  0  0  0  0  0  0  0  0  0  0  0
   10.1182   -1.5672   23.1165 C   0  0  0  0  0  0  0  0  0  0  0  0
    1.0552   -9.6360   17.0650 C   0  0  0  0  0  0  0  0  0  0  0  0
    3.6519   -9.1783   16.9039 C   0  0  0  0  0  0  0  0  0  0  0  0
    7.8675   -7.0096   15.9415 C   0  0  0  0  0  0  0  0  0  0  0  0
    5.9733   -9.6553   17.3832 N   0  0  0  0  0  0  0  0  0  0  0  0
   10.2411   -2.9363   23.4301 C   0  0  0  0  0  0  0  0  0  0  0  0
   10.7288   -3.8197   19.9525 C   0  0  0  0  0  0  0  0  0  0  0  0
   10.1189   -5.0054   19.6987 C   0  0  0  0  0  0  0  0  0  0  0  0
  1  3  4  0
  1  7  4  0
  2 21  4  0
  2 27  4  0
  3  9  4  0
  3 10  4  0
  4  8  4  0
  4 18  4  0
  4 25  1  0
  5  9  4  0
  5 12  4  0
  6 13  1  0
  6 27  1  0
  7 28  4  0
  8 11  4  0
  9 29  4  0
 10 12  4  0
 11 24  1  0
 11 26  4  0
 12 25  1  0
 13 28  1  0
 14 20  4  0
 14 23  4  0
 15 17  4  0
 15 21  4  0
 16 19  4  0
 16 23  4  0
 17 22  4  0
 18 26  4  0
 19 24  4  0
 20 24  4  0
 22 27  4  0
 28 29  4  0
M  END
$$$$

 Created by Python create_sdf_string function

 29 33  0  0  0  0  0  0  0  0999 V2000
   10.7215   -3.3326   17.6437 C   0  0  0  0  0  0  0  0  0  0  0  0
    9.9489   -3.4675   24.6487 N   0  0  0  0  0  0  0  0  0  0  0  0
   10.0172   -4.4740   17.4101 C   0  0  0  0  0  0  0  0  0  0  0  0
    6.9051   -7.9575   16.4222 C   0  0  0  0  0  0  0  0  0  0  0  0
    8.9969   -6.3552   17.9668 N   0  0  0  0  0  0  0  0  0  0  0  0
   10.6702   -3.9051   22.4070 C   0  0  0  0  0  0  0  0  0  0  0  0
   11.0625   -3.0028   18.8894 C   0  0  0  0  0  0  0  0  0  0  0  0
    5.6180   -7.9194   16.1754 O   0  0  0  0  0  0  0  0  0  0  0  0
    9.7259   -5.3080   18.4485 C   0  0  0  0  0  0  0  0  0  0  0  0
    9.4578   -5.0200   16.3036 N   0  0  0  0  0  0  0  0  0  0  0  0
    5.0287   -8.9365   16.8223 C   0  0  0  0  0  0  0  0  0  0  0  0
    8.7742   -6.1498   16.6764 C   0  0  0  0  0  0  0  0  0  0  0  0
   10.9418   -3.4032   21.2053 O   0  0  0  0  0  0  0  0  0  0  0  0
    1.4797   -8.6258   16.2950 C   0  0  0  0  0  0  0  0  0  0  0  0
    9.2861   -1.2743   25.3585 C   0  0  0  0  0  0  0  0  0  0  0  0
    1.8892  -10.3985   17.7511 N   0  0  0  0  0  0  0  0  0  0  0  0
    9.6210   -0.6952   24.0976 C   0  0  0  0  0  0  0  0  0  0  0  0
    7.0792   -9.0217   17.1429 C   0  0  0  0  0  0  0  0  0  0  0  0
    3.1713  -10.1816   17.6634 C   0  0  0  0  0  0  0  0  0  0  0  0
    2.7878   -8.3822   16.2137 C   0  0  0  0  0  0  0  0  0  0  0  0
    9.4601   -2.6590   25.6528 C   0  0  0  0  0  0  0  0  0  0  0  0
   10.1182   -1.5672   23.1165 C   0  0  0  0  0  0  0  0  0  0  0  0
    1.0552   -9.6360   17.0650 C   0  0  0  0  0  0  0  0  0  0  0  0
    3.6519   -9.1783   16.9039 C   0  0  0  0  0  0  0  0  0  0  0  0
    7.8675   -7.0096   15.9415 C   0  0  0  0  0  0  0  0  0  0  0  0
    5.9733   -9.6553   17.3832 N   0  0  0  0  0  0  0  0  0  0  0  0
   10.2411   -2.9363   23.4301 C   0  0  0  0  0  0  0  0  0  0  0  0
   10.7288   -3.8197   19.9525 C   0  0  0  0  0  0  0  0  0  0  0  0
   10.1189   -5.0054   19.6987 C   0  0  0  0  0  0  0  0  0  0  0  0
  1  3  4  0
  1  7  4  0
  2 21  4  0
  2 27  4  0
  3  9  4  0
  3 10  4  0
  4  8  4  0
  4 18  4  0
  4 25  1  0
  5  9  4  0
  5 12  4  0
  6 13  1  0
  6 27  1  0
  7 28  4  0
  8 11  4  0
  9 29  4  0
 10 12  4  0
 11 24  1  0
 11 26  4  0
 12 25  1  0
 13 28  1  0
 14 20  4  0
 14 23  4  0
 15 17  4  0
 15 21  4  0
 16 19  4  0
 16 23  4  0
 17 22  4  0
 18 26  4  0
 19 24  4  0
 20 24  4  0
 22 27  4  0
 28 29  4  0
M  END
$$$$

 Created by Python create_sdf_string function

 29 33  0  0  0  0  0  0  0  0999 V2000
   10.7215   -3.3326   17.6437 C   0  0  0  0  0  0  0  0  0  0  0  0
    9.9489   -3.4675   24.6487 N   0  0  0  0  0  0  0  0  0  0  0  0
   10.0172   -4.4740   17.4101 C   0  0  0  0  0  0  0  0  0  0  0  0
    6.9051   -7.9575   16.4222 C   0  0  0  0  0  0  0  0  0  0  0  0
    8.9969   -6.3552   17.9668 N   0  0  0  0  0  0  0  0  0  0  0  0
   10.6702   -3.9051   22.4070 C   0  0  0  0  0  0  0  0  0  0  0  0
   11.0625   -3.0028   18.8894 C   0  0  0  0  0  0  0  0  0  0  0  0
    5.6180   -7.9194   16.1754 O   0  0  0  0  0  0  0  0  0  0  0  0
    9.7259   -5.3080   18.4485 C   0  0  0  0  0  0  0  0  0  0  0  0
    9.4578   -5.0200   16.3036 N   0  0  0  0  0  0  0  0  0  0  0  0
    5.0287   -8.9365   16.8223 C   0  0  0  0  0  0  0  0  0  0  0  0
    8.7742   -6.1498   16.6764 C   0  0  0  0  0  0  0  0  0  0  0  0
   10.9418   -3.4032   21.2053 O   0  0  0  0  0  0  0  0  0  0  0  0
    1.4797   -8.6258   16.2950 C   0  0  0  0  0  0  0  0  0  0  0  0
    9.2861   -1.2743   25.3585 C   0  0  0  0  0  0  0  0  0  0  0  0
    1.8892  -10.3985   17.7511 N   0  0  0  0  0  0  0  0  0  0  0  0
    9.6210   -0.6952   24.0976 C   0  0  0  0  0  0  0  0  0  0  0  0
    7.0792   -9.0217   17.1429 C   0  0  0  0  0  0  0  0  0  0  0  0
    3.1713  -10.1816   17.6634 C   0  0  0  0  0  0  0  0  0  0  0  0
    2.7878   -8.3822   16.2137 C   0  0  0  0  0  0  0  0  0  0  0  0
    9.4601   -2.6590   25.6528 C   0  0  0  0  0  0  0  0  0  0  0  0
   10.1182   -1.5672   23.1165 C   0  0  0  0  0  0  0  0  0  0  0  0
    1.0552   -9.6360   17.0650 C   0  0  0  0  0  0  0  0  0  0  0  0
    3.6519   -9.1783   16.9039 C   0  0  0  0  0  0  0  0  0  0  0  0
    7.8675   -7.0096   15.9415 C   0  0  0  0  0  0  0  0  0  0  0  0
    5.9733   -9.6553   17.3832 N   0  0  0  0  0  0  0  0  0  0  0  0
   10.2411   -2.9363   23.4301 C   0  0  0  0  0  0  0  0  0  0  0  0
   10.7288   -3.8197   19.9525 C   0  0  0  0  0  0  0  0  0  0  0  0
   10.1189   -5.0054   19.6987 C   0  0  0  0  0  0  0  0  0  0  0  0
  1  3  4  0
  1  7  4  0
  2 21  4  0
  2 27  4  0
  3  9  4  0
  3 10  4  0
  4  8  4  0
  4 18  4  0
  4 25  1  0
  5  9  4  0
  5 12  4  0
  6 13  1  0
  6 27  1  0
  7 28  4  0
  8 11  4  0
  9 29  4  0
 10 12  4  0
 11 24  1  0
 11 26  4  0
 12 25  1  0
 13 28  1  0
 14 20  4  0
 14 23  4  0
 15 17  4  0
 15 21  4  0
 16 19  4  0
 16 23  4  0
 17 22  4  0
 18 26  4  0
 19 24  4  0
 20 24  4  0
 22 27  4  0
 28 29  4  0
M  END
$$$$

 Created by Python create_sdf_string function

 29 33  0  0  0  0  0  0  0  0999 V2000
   10.7215   -3.3326   17.6437 C   0  0  0  0  0  0  0  0  0  0  0  0
    9.9489   -3.4675   24.6487 N   0  0  0  0  0  0  0  0  0  0  0  0
   10.0172   -4.4740   17.4101 C   0  0  0  0  0  0  0  0  0  0  0  0
    6.9051   -7.9575   16.4222 C   0  0  0  0  0  0  0  0  0  0  0  0
    8.9969   -6.3552   17.9668 N   0  0  0  0  0  0  0  0  0  0  0  0
   10.6702   -3.9051   22.4070 C   0  0  0  0  0  0  0  0  0  0  0  0
   11.0625   -3.0028   18.8894 C   0  0  0  0  0  0  0  0  0  0  0  0
    5.6180   -7.9194   16.1754 O   0  0  0  0  0  0  0  0  0  0  0  0
    9.7259   -5.3080   18.4485 C   0  0  0  0  0  0  0  0  0  0  0  0
    9.4578   -5.0200   16.3036 N   0  0  0  0  0  0  0  0  0  0  0  0
    5.0287   -8.9365   16.8223 C   0  0  0  0  0  0  0  0  0  0  0  0
    8.7742   -6.1498   16.6764 C   0  0  0  0  0  0  0  0  0  0  0  0
   10.9418   -3.4032   21.2053 O   0  0  0  0  0  0  0  0  0  0  0  0
    1.4797   -8.6258   16.2950 C   0  0  0  0  0  0  0  0  0  0  0  0
    9.2861   -1.2743   25.3585 C   0  0  0  0  0  0  0  0  0  0  0  0
    1.8892  -10.3985   17.7511 N   0  0  0  0  0  0  0  0  0  0  0  0
    9.6210   -0.6952   24.0976 C   0  0  0  0  0  0  0  0  0  0  0  0
    7.0792   -9.0217   17.1429 C   0  0  0  0  0  0  0  0  0  0  0  0
    3.1713  -10.1816   17.6634 C   0  0  0  0  0  0  0  0  0  0  0  0
    2.7878   -8.3822   16.2137 C   0  0  0  0  0  0  0  0  0  0  0  0
    9.4601   -2.6590   25.6528 C   0  0  0  0  0  0  0  0  0  0  0  0
   10.1182   -1.5672   23.1165 C   0  0  0  0  0  0  0  0  0  0  0  0
    1.0552   -9.6360   17.0650 C   0  0  0  0  0  0  0  0  0  0  0  0
    3.6519   -9.1783   16.9039 C   0  0  0  0  0  0  0  0  0  0  0  0
    7.8675   -7.0096   15.9415 C   0  0  0  0  0  0  0  0  0  0  0  0
    5.9733   -9.6553   17.3832 N   0  0  0  0  0  0  0  0  0  0  0  0
   10.2411   -2.9363   23.4301 C   0  0  0  0  0  0  0  0  0  0  0  0
   10.7288   -3.8197   19.9525 C   0  0  0  0  0  0  0  0  0  0  0  0
   10.1189   -5.0054   19.6987 C   0  0  0  0  0  0  0  0  0  0  0  0
  1  3  4  0
  1  7  4  0
  2 21  4  0
  2 27  4  0
  3  9  4  0
  3 10  4  0
  4  8  4  0
  4 18  4  0
  4 25  1  0
  5  9  4  0
  5 12  4  0
  6 13  1  0
  6 27  1  0
  7 28  4  0
  8 11  4  0
  9 29  4  0
 10 12  4  0
 11 24  1  0
 11 26  4  0
 12 25  1  0
 13 28  1  0
 14 20  4  0
 14 23  4  0
 15 17  4  0
 15 21  4  0
 16 19  4  0
 16 23  4  0
 17 22  4  0
 18 26  4  0
 19 24  4  0
 20 24  4  0
 22 27  4  0
 28 29  4  0
M  END
$$$$

 Created by Python create_sdf_string function

 29 33  0  0  0  0  0  0  0  0999 V2000
   10.7215   -3.3326   17.6437 C   0  0  0  0  0  0  0  0  0  0  0  0
    9.9489   -3.4675   24.6487 N   0  0  0  0  0  0  0  0  0  0  0  0
   10.0172   -4.4740   17.4101 C   0  0  0  0  0  0  0  0  0  0  0  0
    6.9051   -7.9575   16.4222 C   0  0  0  0  0  0  0  0  0  0  0  0
    8.9969   -6.3552   17.9668 N   0  0  0  0  0  0  0  0  0  0  0  0
   10.6702   -3.9051   22.4070 C   0  0  0  0  0  0  0  0  0  0  0  0
   11.0625   -3.0028   18.8894 C   0  0  0  0  0  0  0  0  0  0  0  0
    5.6180   -7.9194   16.1754 O   0  0  0  0  0  0  0  0  0  0  0  0
    9.7259   -5.3080   18.4485 C   0  0  0  0  0  0  0  0  0  0  0  0
    9.4578   -5.0200   16.3036 N   0  0  0  0  0  0  0  0  0  0  0  0
    5.0287   -8.9365   16.8223 C   0  0  0  0  0  0  0  0  0  0  0  0
    8.7742   -6.1498   16.6764 C   0  0  0  0  0  0  0  0  0  0  0  0
   10.9418   -3.4032   21.2053 O   0  0  0  0  0  0  0  0  0  0  0  0
    1.4797   -8.6258   16.2950 C   0  0  0  0  0  0  0  0  0  0  0  0
    9.2861   -1.2743   25.3585 C   0  0  0  0  0  0  0  0  0  0  0  0
    1.8892  -10.3985   17.7511 N   0  0  0  0  0  0  0  0  0  0  0  0
    9.6210   -0.6952   24.0976 C   0  0  0  0  0  0  0  0  0  0  0  0
    7.0792   -9.0217   17.1429 C   0  0  0  0  0  0  0  0  0  0  0  0
    3.1713  -10.1816   17.6634 C   0  0  0  0  0  0  0  0  0  0  0  0
    2.7878   -8.3822   16.2137 C   0  0  0  0  0  0  0  0  0  0  0  0
    9.4601   -2.6590   25.6528 C   0  0  0  0  0  0  0  0  0  0  0  0
   10.1182   -1.5672   23.1165 C   0  0  0  0  0  0  0  0  0  0  0  0
    1.0552   -9.6360   17.0650 C   0  0  0  0  0  0  0  0  0  0  0  0
    3.6519   -9.1783   16.9039 C   0  0  0  0  0  0  0  0  0  0  0  0
    7.8675   -7.0096   15.9415 C   0  0  0  0  0  0  0  0  0  0  0  0
    5.9733   -9.6553   17.3832 N   0  0  0  0  0  0  0  0  0  0  0  0
   10.2411   -2.9363   23.4301 C   0  0  0  0  0  0  0  0  0  0  0  0
   10.7288   -3.8197   19.9525 C   0  0  0  0  0  0  0  0  0  0  0  0
   10.1189   -5.0054   19.6987 C   0  0  0  0  0  0  0  0  0  0  0  0
  1  3  4  0
  1  7  4  0
  2 21  4  0
  2 27  4  0
  3  9  4  0
  3 10  4  0
  4  8  4  0
  4 18  4  0
  4 25  1  0
  5  9  4  0
  5 12  4  0
  6 13  1  0
  6 27  1  0
  7 28  4  0
  8 11  4  0
  9 29  4  0
 10 12  4  0
 11 24  1  0
 11 26  4  0
 12 25  1  0
 13 28  1  0
 14 20  4  0
 14 23  4  0
 15 17  4  0
 15 21  4  0
 16 19  4  0
 16 23  4  0
 17 22  4  0
 18 26  4  0
 19 24  4  0
 20 24  4  0
 22 27  4  0
 28 29  4  0
M  END
$$$$

 Created by Python create_sdf_string function

 29 33  0  0  0  0  0  0  0  0999 V2000
   10.7215   -3.3326   17.6437 C   0  0  0  0  0  0  0  0  0  0  0  0
    9.9489   -3.4675   24.6487 N   0  0  0  0  0  0  0  0  0  0  0  0
   10.0172   -4.4740   17.4101 C   0  0  0  0  0  0  0  0  0  0  0  0
    6.9051   -7.9575   16.4222 C   0  0  0  0  0  0  0  0  0  0  0  0
    8.9969   -6.3552   17.9668 N   0  0  0  0  0  0  0  0  0  0  0  0
   10.6702   -3.9051   22.4070 C   0  0  0  0  0  0  0  0  0  0  0  0
   11.0625   -3.0028   18.8894 C   0  0  0  0  0  0  0  0  0  0  0  0
    5.6180   -7.9194   16.1754 O   0  0  0  0  0  0  0  0  0  0  0  0
    9.7259   -5.3080   18.4485 C   0  0  0  0  0  0  0  0  0  0  0  0
    9.4578   -5.0200   16.3036 N   0  0  0  0  0  0  0  0  0  0  0  0
    5.0287   -8.9365   16.8223 C   0  0  0  0  0  0  0  0  0  0  0  0
    8.7742   -6.1498   16.6764 C   0  0  0  0  0  0  0  0  0  0  0  0
   10.9418   -3.4032   21.2053 O   0  0  0  0  0  0  0  0  0  0  0  0
    1.4797   -8.6258   16.2950 C   0  0  0  0  0  0  0  0  0  0  0  0
    9.2861   -1.2743   25.3585 C   0  0  0  0  0  0  0  0  0  0  0  0
    1.8892  -10.3985   17.7511 N   0  0  0  0  0  0  0  0  0  0  0  0
    9.6210   -0.6952   24.0976 C   0  0  0  0  0  0  0  0  0  0  0  0
    7.0792   -9.0217   17.1429 C   0  0  0  0  0  0  0  0  0  0  0  0
    3.1713  -10.1816   17.6634 C   0  0  0  0  0  0  0  0  0  0  0  0
    2.7878   -8.3822   16.2137 C   0  0  0  0  0  0  0  0  0  0  0  0
    9.4601   -2.6590   25.6528 C   0  0  0  0  0  0  0  0  0  0  0  0
   10.1182   -1.5672   23.1165 C   0  0  0  0  0  0  0  0  0  0  0  0
    1.0552   -9.6360   17.0650 C   0  0  0  0  0  0  0  0  0  0  0  0
    3.6519   -9.1783   16.9039 C   0  0  0  0  0  0  0  0  0  0  0  0
    7.8675   -7.0096   15.9415 C   0  0  0  0  0  0  0  0  0  0  0  0
    5.9733   -9.6553   17.3832 N   0  0  0  0  0  0  0  0  0  0  0  0
   10.2411   -2.9363   23.4301 C   0  0  0  0  0  0  0  0  0  0  0  0
   10.7288   -3.8197   19.9525 C   0  0  0  0  0  0  0  0  0  0  0  0
   10.1189   -5.0054   19.6987 C   0  0  0  0  0  0  0  0  0  0  0  0
  1  3  4  0
  1  7  4  0
  2 21  4  0
  2 27  4  0
  3  9  4  0
  3 10  4  0
  4  8  4  0
  4 18  4  0
  4 25  1  0
  5  9  4  0
  5 12  4  0
  6 13  1  0
  6 27  1  0
  7 28  4  0
  8 11  4  0
  9 29  4  0
 10 12  4  0
 11 24  1  0
 11 26  4  0
 12 25  1  0
 13 28  1  0
 14 20  4  0
 14 23  4  0
 15 17  4  0
 15 21  4  0
 16 19  4  0
 16 23  4  0
 17 22  4  0
 18 26  4  0
 19 24  4  0
 20 24  4  0
 22 27  4  0
 28 29  4  0
M  END
$$$$

 Created by Python create_sdf_string function

 29 33  0  0  0  0  0  0  0  0999 V2000
   10.7215   -3.3326   17.6437 C   0  0  0  0  0  0  0  0  0  0  0  0
    9.9489   -3.4675   24.6487 N   0  0  0  0  0  0  0  0  0  0  0  0
   10.0172   -4.4740   17.4101 C   0  0  0  0  0  0  0  0  0  0  0  0
    6.9051   -7.9575   16.4222 C   0  0  0  0  0  0  0  0  0  0  0  0
    8.9969   -6.3552   17.9668 N   0  0  0  0  0  0  0  0  0  0  0  0
   10.6702   -3.9051   22.4070 C   0  0  0  0  0  0  0  0  0  0  0  0
   11.0625   -3.0028   18.8894 C   0  0  0  0  0  0  0  0  0  0  0  0
    5.6180   -7.9194   16.1754 O   0  0  0  0  0  0  0  0  0  0  0  0
    9.7259   -5.3080   18.4485 C   0  0  0  0  0  0  0  0  0  0  0  0
    9.4578   -5.0200   16.3036 N   0  0  0  0  0  0  0  0  0  0  0  0
    5.0287   -8.9365   16.8223 C   0  0  0  0  0  0  0  0  0  0  0  0
    8.7742   -6.1498   16.6764 C   0  0  0  0  0  0  0  0  0  0  0  0
   10.9418   -3.4032   21.2053 O   0  0  0  0  0  0  0  0  0  0  0  0
    1.4797   -8.6258   16.2950 C   0  0  0  0  0  0  0  0  0  0  0  0
    9.2861   -1.2743   25.3585 C   0  0  0  0  0  0  0  0  0  0  0  0
    1.8892  -10.3985   17.7511 N   0  0  0  0  0  0  0  0  0  0  0  0
    9.6210   -0.6952   24.0976 C   0  0  0  0  0  0  0  0  0  0  0  0
    7.0792   -9.0217   17.1429 C   0  0  0  0  0  0  0  0  0  0  0  0
    3.1713  -10.1816   17.6634 C   0  0  0  0  0  0  0  0  0  0  0  0
    2.7878   -8.3822   16.2137 C   0  0  0  0  0  0  0  0  0  0  0  0
    9.4601   -2.6590   25.6528 C   0  0  0  0  0  0  0  0  0  0  0  0
   10.1182   -1.5672   23.1165 C   0  0  0  0  0  0  0  0  0  0  0  0
    1.0552   -9.6360   17.0650 C   0  0  0  0  0  0  0  0  0  0  0  0
    3.6519   -9.1783   16.9039 C   0  0  0  0  0  0  0  0  0  0  0  0
    7.8675   -7.0096   15.9415 C   0  0  0  0  0  0  0  0  0  0  0  0
    5.9733   -9.6553   17.3832 N   0  0  0  0  0  0  0  0  0  0  0  0
   10.2411   -2.9363   23.4301 C   0  0  0  0  0  0  0  0  0  0  0  0
   10.7288   -3.8197   19.9525 C   0  0  0  0  0  0  0  0  0  0  0  0
   10.1189   -5.0054   19.6987 C   0  0  0  0  0  0  0  0  0  0  0  0
  1  3  4  0
  1  7  4  0
  2 21  4  0
  2 27  4  0
  3  9  4  0
  3 10  4  0
  4  8  4  0
  4 18  4  0
  4 25  1  0
  5  9  4  0
  5 12  4  0
  6 13  1  0
  6 27  1  0
  7 28  4  0
  8 11  4  0
  9 29  4  0
 10 12  4  0
 11 24  1  0
 11 26  4  0
 12 25  1  0
 13 28  1  0
 14 20  4  0
 14 23  4  0
 15 17  4  0
 15 21  4  0
 16 19  4  0
 16 23  4  0
 17 22  4  0
 18 26  4  0
 19 24  4  0
 20 24  4  0
 22 27  4  0
 28 29  4  0
M  END
$$$$

 Created by Python create_sdf_string function

 29 33  0  0  0  0  0  0  0  0999 V2000
   10.7215   -3.3326   17.6437 C   0  0  0  0  0  0  0  0  0  0  0  0
    9.9489   -3.4675   24.6487 N   0  0  0  0  0  0  0  0  0  0  0  0
   10.0172   -4.4740   17.4101 C   0  0  0  0  0  0  0  0  0  0  0  0
    6.9051   -7.9575   16.4222 C   0  0  0  0  0  0  0  0  0  0  0  0
    8.9969   -6.3552   17.9668 N   0  0  0  0  0  0  0  0  0  0  0  0
   10.6702   -3.9051   22.4070 C   0  0  0  0  0  0  0  0  0  0  0  0
   11.0625   -3.0028   18.8894 C   0  0  0  0  0  0  0  0  0  0  0  0
    5.6180   -7.9194   16.1754 O   0  0  0  0  0  0  0  0  0  0  0  0
    9.7259   -5.3080   18.4485 C   0  0  0  0  0  0  0  0  0  0  0  0
    9.4578   -5.0200   16.3036 N   0  0  0  0  0  0  0  0  0  0  0  0
    5.0287   -8.9365   16.8223 C   0  0  0  0  0  0  0  0  0  0  0  0
    8.7742   -6.1498   16.6764 C   0  0  0  0  0  0  0  0  0  0  0  0
   10.9418   -3.4032   21.2053 O   0  0  0  0  0  0  0  0  0  0  0  0
    1.4797   -8.6258   16.2950 C   0  0  0  0  0  0  0  0  0  0  0  0
    9.2861   -1.2743   25.3585 C   0  0  0  0  0  0  0  0  0  0  0  0
    1.8892  -10.3985   17.7511 N   0  0  0  0  0  0  0  0  0  0  0  0
    9.6210   -0.6952   24.0976 C   0  0  0  0  0  0  0  0  0  0  0  0
    7.0792   -9.0217   17.1429 C   0  0  0  0  0  0  0  0  0  0  0  0
    3.1713  -10.1816   17.6634 C   0  0  0  0  0  0  0  0  0  0  0  0
    2.7878   -8.3822   16.2137 C   0  0  0  0  0  0  0  0  0  0  0  0
    9.4601   -2.6590   25.6528 C   0  0  0  0  0  0  0  0  0  0  0  0
   10.1182   -1.5672   23.1165 C   0  0  0  0  0  0  0  0  0  0  0  0
    1.0552   -9.6360   17.0650 C   0  0  0  0  0  0  0  0  0  0  0  0
    3.6519   -9.1783   16.9039 C   0  0  0  0  0  0  0  0  0  0  0  0
    7.8675   -7.0096   15.9415 C   0  0  0  0  0  0  0  0  0  0  0  0
    5.9733   -9.6553   17.3832 N   0  0  0  0  0  0  0  0  0  0  0  0
   10.2411   -2.9363   23.4301 C   0  0  0  0  0  0  0  0  0  0  0  0
   10.7288   -3.8197   19.9525 C   0  0  0  0  0  0  0  0  0  0  0  0
   10.1189   -5.0054   19.6987 C   0  0  0  0  0  0  0  0  0  0  0  0
  1  3  4  0
  1  7  4  0
  2 21  4  0
  2 27  4  0
  3  9  4  0
  3 10  4  0
  4  8  4  0
  4 18  4  0
  4 25  1  0
  5  9  4  0
  5 12  4  0
  6 13  1  0
  6 27  1  0
  7 28  4  0
  8 11  4  0
  9 29  4  0
 10 12  4  0
 11 24  1  0
 11 26  4  0
 12 25  1  0
 13 28  1  0
 14 20  4  0
 14 23  4  0
 15 17  4  0
 15 21  4  0
 16 19  4  0
 16 23  4  0
 17 22  4  0
 18 26  4  0
 19 24  4  0
 20 24  4  0
 22 27  4  0
 28 29  4  0
M  END
$$$$

 Created by Python create_sdf_string function

 29 33  0  0  0  0  0  0  0  0999 V2000
   10.7215   -3.3326   17.6437 C   0  0  0  0  0  0  0  0  0  0  0  0
    9.9489   -3.4675   24.6487 N   0  0  0  0  0  0  0  0  0  0  0  0
   10.0172   -4.4740   17.4101 C   0  0  0  0  0  0  0  0  0  0  0  0
    6.9051   -7.9575   16.4222 C   0  0  0  0  0  0  0  0  0  0  0  0
    8.9969   -6.3552   17.9668 N   0  0  0  0  0  0  0  0  0  0  0  0
   10.6702   -3.9051   22.4070 C   0  0  0  0  0  0  0  0  0  0  0  0
   11.0625   -3.0028   18.8894 C   0  0  0  0  0  0  0  0  0  0  0  0
    5.6180   -7.9194   16.1754 O   0  0  0  0  0  0  0  0  0  0  0  0
    9.7259   -5.3080   18.4485 C   0  0  0  0  0  0  0  0  0  0  0  0
    9.4578   -5.0200   16.3036 N   0  0  0  0  0  0  0  0  0  0  0  0
    5.0287   -8.9365   16.8223 C   0  0  0  0  0  0  0  0  0  0  0  0
    8.7742   -6.1498   16.6764 C   0  0  0  0  0  0  0  0  0  0  0  0
   10.9418   -3.4032   21.2053 O   0  0  0  0  0  0  0  0  0  0  0  0
    1.4797   -8.6258   16.2950 C   0  0  0  0  0  0  0  0  0  0  0  0
    9.2861   -1.2743   25.3585 C   0  0  0  0  0  0  0  0  0  0  0  0
    1.8892  -10.3985   17.7511 N   0  0  0  0  0  0  0  0  0  0  0  0
    9.6210   -0.6952   24.0976 C   0  0  0  0  0  0  0  0  0  0  0  0
    7.0792   -9.0217   17.1429 C   0  0  0  0  0  0  0  0  0  0  0  0
    3.1713  -10.1816   17.6634 C   0  0  0  0  0  0  0  0  0  0  0  0
    2.7878   -8.3822   16.2137 C   0  0  0  0  0  0  0  0  0  0  0  0
    9.4601   -2.6590   25.6528 C   0  0  0  0  0  0  0  0  0  0  0  0
   10.1182   -1.5672   23.1165 C   0  0  0  0  0  0  0  0  0  0  0  0
    1.0552   -9.6360   17.0650 C   0  0  0  0  0  0  0  0  0  0  0  0
    3.6519   -9.1783   16.9039 C   0  0  0  0  0  0  0  0  0  0  0  0
    7.8675   -7.0096   15.9415 C   0  0  0  0  0  0  0  0  0  0  0  0
    5.9733   -9.6553   17.3832 N   0  0  0  0  0  0  0  0  0  0  0  0
   10.2411   -2.9363   23.4301 C   0  0  0  0  0  0  0  0  0  0  0  0
   10.7288   -3.8197   19.9525 C   0  0  0  0  0  0  0  0  0  0  0  0
   10.1189   -5.0054   19.6987 C   0  0  0  0  0  0  0  0  0  0  0  0
  1  3  4  0
  1  7  4  0
  2 21  4  0
  2 27  4  0
  3  9  4  0
  3 10  4  0
  4  8  4  0
  4 18  4  0
  4 25  1  0
  5  9  4  0
  5 12  4  0
  6 13  1  0
  6 27  1  0
  7 28  4  0
  8 11  4  0
  9 29  4  0
 10 12  4  0
 11 24  1  0
 11 26  4  0
 12 25  1  0
 13 28  1  0
 14 20  4  0
 14 23  4  0
 15 17  4  0
 15 21  4  0
 16 19  4  0
 16 23  4  0
 17 22  4  0
 18 26  4  0
 19 24  4  0
 20 24  4  0
 22 27  4  0
 28 29  4  0
M  END
$$$$

 Created by Python create_sdf_string function

 29 33  0  0  0  0  0  0  0  0999 V2000
   10.7215   -3.3326   17.6437 C   0  0  0  0  0  0  0  0  0  0  0  0
    9.9489   -3.4675   24.6487 N   0  0  0  0  0  0  0  0  0  0  0  0
   10.0172   -4.4740   17.4101 C   0  0  0  0  0  0  0  0  0  0  0  0
    6.9051   -7.9575   16.4222 C   0  0  0  0  0  0  0  0  0  0  0  0
    8.9969   -6.3552   17.9668 N   0  0  0  0  0  0  0  0  0  0  0  0
   10.6702   -3.9051   22.4070 C   0  0  0  0  0  0  0  0  0  0  0  0
   11.0625   -3.0028   18.8894 C   0  0  0  0  0  0  0  0  0  0  0  0
    5.6180   -7.9194   16.1754 O   0  0  0  0  0  0  0  0  0  0  0  0
    9.7259   -5.3080   18.4485 C   0  0  0  0  0  0  0  0  0  0  0  0
    9.4578   -5.0200   16.3036 N   0  0  0  0  0  0  0  0  0  0  0  0
    5.0287   -8.9365   16.8223 C   0  0  0  0  0  0  0  0  0  0  0  0
    8.7742   -6.1498   16.6764 C   0  0  0  0  0  0  0  0  0  0  0  0
   10.9418   -3.4032   21.2053 O   0  0  0  0  0  0  0  0  0  0  0  0
    1.4797   -8.6258   16.2950 C   0  0  0  0  0  0  0  0  0  0  0  0
    9.2861   -1.2743   25.3585 C   0  0  0  0  0  0  0  0  0  0  0  0
    1.8892  -10.3985   17.7511 N   0  0  0  0  0  0  0  0  0  0  0  0
    9.6210   -0.6952   24.0976 C   0  0  0  0  0  0  0  0  0  0  0  0
    7.0792   -9.0217   17.1429 C   0  0  0  0  0  0  0  0  0  0  0  0
    3.1713  -10.1816   17.6634 C   0  0  0  0  0  0  0  0  0  0  0  0
    2.7878   -8.3822   16.2137 C   0  0  0  0  0  0  0  0  0  0  0  0
    9.4601   -2.6590   25.6528 C   0  0  0  0  0  0  0  0  0  0  0  0
   10.1182   -1.5672   23.1165 C   0  0  0  0  0  0  0  0  0  0  0  0
    1.0552   -9.6360   17.0650 C   0  0  0  0  0  0  0  0  0  0  0  0
    3.6519   -9.1783   16.9039 C   0  0  0  0  0  0  0  0  0  0  0  0
    7.8675   -7.0096   15.9415 C   0  0  0  0  0  0  0  0  0  0  0  0
    5.9733   -9.6553   17.3832 N   0  0  0  0  0  0  0  0  0  0  0  0
   10.2411   -2.9363   23.4301 C   0  0  0  0  0  0  0  0  0  0  0  0
   10.7288   -3.8197   19.9525 C   0  0  0  0  0  0  0  0  0  0  0  0
   10.1189   -5.0054   19.6987 C   0  0  0  0  0  0  0  0  0  0  0  0
  1  3  4  0
  1  7  4  0
  2 21  4  0
  2 27  4  0
  3  9  4  0
  3 10  4  0
  4  8  4  0
  4 18  4  0
  4 25  1  0
  5  9  4  0
  5 12  4  0
  6 13  1  0
  6 27  1  0
  7 28  4  0
  8 11  4  0
  9 29  4  0
 10 12  4  0
 11 24  1  0
 11 26  4  0
 12 25  1  0
 13 28  1  0
 14 20  4  0
 14 23  4  0
 15 17  4  0
 15 21  4  0
 16 19  4  0
 16 23  4  0
 17 22  4  0
 18 26  4  0
 19 24  4  0
 20 24  4  0
 22 27  4  0
 28 29  4  0
M  END
$$$$

 Created by Python create_sdf_string function

 29 33  0  0  0  0  0  0  0  0999 V2000
   10.7215   -3.3326   17.6437 C   0  0  0  0  0  0  0  0  0  0  0  0
    9.9489   -3.4675   24.6487 N   0  0  0  0  0  0  0  0  0  0  0  0
   10.0172   -4.4740   17.4101 C   0  0  0  0  0  0  0  0  0  0  0  0
    6.9051   -7.9575   16.4222 C   0  0  0  0  0  0  0  0  0  0  0  0
    8.9969   -6.3552   17.9668 N   0  0  0  0  0  0  0  0  0  0  0  0
   10.6702   -3.9051   22.4070 C   0  0  0  0  0  0  0  0  0  0  0  0
   11.0625   -3.0028   18.8894 C   0  0  0  0  0  0  0  0  0  0  0  0
    5.6180   -7.9194   16.1754 O   0  0  0  0  0  0  0  0  0  0  0  0
    9.7259   -5.3080   18.4485 C   0  0  0  0  0  0  0  0  0  0  0  0
    9.4578   -5.0200   16.3036 N   0  0  0  0  0  0  0  0  0  0  0  0
    5.0287   -8.9365   16.8223 C   0  0  0  0  0  0  0  0  0  0  0  0
    8.7742   -6.1498   16.6764 C   0  0  0  0  0  0  0  0  0  0  0  0
   10.9418   -3.4032   21.2053 O   0  0  0  0  0  0  0  0  0  0  0  0
    1.4797   -8.6258   16.2950 C   0  0  0  0  0  0  0  0  0  0  0  0
    9.2861   -1.2743   25.3585 C   0  0  0  0  0  0  0  0  0  0  0  0
    1.8892  -10.3985   17.7511 N   0  0  0  0  0  0  0  0  0  0  0  0
    9.6210   -0.6952   24.0976 C   0  0  0  0  0  0  0  0  0  0  0  0
    7.0792   -9.0217   17.1429 C   0  0  0  0  0  0  0  0  0  0  0  0
    3.1713  -10.1816   17.6634 C   0  0  0  0  0  0  0  0  0  0  0  0
    2.7878   -8.3822   16.2137 C   0  0  0  0  0  0  0  0  0  0  0  0
    9.4601   -2.6590   25.6528 C   0  0  0  0  0  0  0  0  0  0  0  0
   10.1182   -1.5672   23.1165 C   0  0  0  0  0  0  0  0  0  0  0  0
    1.0552   -9.6360   17.0650 C   0  0  0  0  0  0  0  0  0  0  0  0
    3.6519   -9.1783   16.9039 C   0  0  0  0  0  0  0  0  0  0  0  0
    7.8675   -7.0096   15.9415 C   0  0  0  0  0  0  0  0  0  0  0  0
    5.9733   -9.6553   17.3832 N   0  0  0  0  0  0  0  0  0  0  0  0
   10.2411   -2.9363   23.4301 C   0  0  0  0  0  0  0  0  0  0  0  0
   10.7288   -3.8197   19.9525 C   0  0  0  0  0  0  0  0  0  0  0  0
   10.1189   -5.0054   19.6987 C   0  0  0  0  0  0  0  0  0  0  0  0
  1  3  4  0
  1  7  4  0
  2 21  4  0
  2 27  4  0
  3  9  4  0
  3 10  4  0
  4  8  4  0
  4 18  4  0
  4 25  1  0
  5  9  4  0
  5 12  4  0
  6 13  1  0
  6 27  1  0
  7 28  4  0
  8 11  4  0
  9 29  4  0
 10 12  4  0
 11 24  1  0
 11 26  4  0
 12 25  1  0
 13 28  1  0
 14 20  4  0
 14 23  4  0
 15 17  4  0
 15 21  4  0
 16 19  4  0
 16 23  4  0
 17 22  4  0
 18 26  4  0
 19 24  4  0
 20 24  4  0
 22 27  4  0
 28 29  4  0
M  END
$$$$

 Created by Python create_sdf_string function

 29 33  0  0  0  0  0  0  0  0999 V2000
   10.7215   -3.3326   17.6437 C   0  0  0  0  0  0  0  0  0  0  0  0
    9.9489   -3.4675   24.6487 N   0  0  0  0  0  0  0  0  0  0  0  0
   10.0172   -4.4740   17.4101 C   0  0  0  0  0  0  0  0  0  0  0  0
    6.9051   -7.9575   16.4222 C   0  0  0  0  0  0  0  0  0  0  0  0
    8.9969   -6.3552   17.9668 N   0  0  0  0  0  0  0  0  0  0  0  0
   10.6702   -3.9051   22.4070 C   0  0  0  0  0  0  0  0  0  0  0  0
   11.0625   -3.0028   18.8894 C   0  0  0  0  0  0  0  0  0  0  0  0
    5.6180   -7.9194   16.1754 O   0  0  0  0  0  0  0  0  0  0  0  0
    9.7259   -5.3080   18.4485 C   0  0  0  0  0  0  0  0  0  0  0  0
    9.4578   -5.0200   16.3036 N   0  0  0  0  0  0  0  0  0  0  0  0
    5.0287   -8.9365   16.8223 C   0  0  0  0  0  0  0  0  0  0  0  0
    8.7742   -6.1498   16.6764 C   0  0  0  0  0  0  0  0  0  0  0  0
   10.9418   -3.4032   21.2053 O   0  0  0  0  0  0  0  0  0  0  0  0
    1.4797   -8.6258   16.2950 C   0  0  0  0  0  0  0  0  0  0  0  0
    9.2861   -1.2743   25.3585 C   0  0  0  0  0  0  0  0  0  0  0  0
    1.8892  -10.3985   17.7511 N   0  0  0  0  0  0  0  0  0  0  0  0
    9.6210   -0.6952   24.0976 C   0  0  0  0  0  0  0  0  0  0  0  0
    7.0792   -9.0217   17.1429 C   0  0  0  0  0  0  0  0  0  0  0  0
    3.1713  -10.1816   17.6634 C   0  0  0  0  0  0  0  0  0  0  0  0
    2.7878   -8.3822   16.2137 C   0  0  0  0  0  0  0  0  0  0  0  0
    9.4601   -2.6590   25.6528 C   0  0  0  0  0  0  0  0  0  0  0  0
   10.1182   -1.5672   23.1165 C   0  0  0  0  0  0  0  0  0  0  0  0
    1.0552   -9.6360   17.0650 C   0  0  0  0  0  0  0  0  0  0  0  0
    3.6519   -9.1783   16.9039 C   0  0  0  0  0  0  0  0  0  0  0  0
    7.8675   -7.0096   15.9415 C   0  0  0  0  0  0  0  0  0  0  0  0
    5.9733   -9.6553   17.3832 N   0  0  0  0  0  0  0  0  0  0  0  0
   10.2411   -2.9363   23.4301 C   0  0  0  0  0  0  0  0  0  0  0  0
   10.7288   -3.8197   19.9525 C   0  0  0  0  0  0  0  0  0  0  0  0
   10.1189   -5.0054   19.6987 C   0  0  0  0  0  0  0  0  0  0  0  0
  1  3  4  0
  1  7  4  0
  2 21  4  0
  2 27  4  0
  3  9  4  0
  3 10  4  0
  4  8  4  0
  4 18  4  0
  4 25  1  0
  5  9  4  0
  5 12  4  0
  6 13  1  0
  6 27  1  0
  7 28  4  0
  8 11  4  0
  9 29  4  0
 10 12  4  0
 11 24  1  0
 11 26  4  0
 12 25  1  0
 13 28  1  0
 14 20  4  0
 14 23  4  0
 15 17  4  0
 15 21  4  0
 16 19  4  0
 16 23  4  0
 17 22  4  0
 18 26  4  0
 19 24  4  0
 20 24  4  0
 22 27  4  0
 28 29  4  0
M  END
$$$$

 Created by Python create_sdf_string function

 29 33  0  0  0  0  0  0  0  0999 V2000
   10.7215   -3.3326   17.6437 C   0  0  0  0  0  0  0  0  0  0  0  0
    9.9489   -3.4675   24.6487 N   0  0  0  0  0  0  0  0  0  0  0  0
   10.0172   -4.4740   17.4101 C   0  0  0  0  0  0  0  0  0  0  0  0
    6.9051   -7.9575   16.4222 C   0  0  0  0  0  0  0  0  0  0  0  0
    8.9969   -6.3552   17.9668 N   0  0  0  0  0  0  0  0  0  0  0  0
   10.6702   -3.9051   22.4070 C   0  0  0  0  0  0  0  0  0  0  0  0
   11.0625   -3.0028   18.8894 C   0  0  0  0  0  0  0  0  0  0  0  0
    5.6180   -7.9194   16.1754 O   0  0  0  0  0  0  0  0  0  0  0  0
    9.7259   -5.3080   18.4485 C   0  0  0  0  0  0  0  0  0  0  0  0
    9.4578   -5.0200   16.3036 N   0  0  0  0  0  0  0  0  0  0  0  0
    5.0287   -8.9365   16.8223 C   0  0  0  0  0  0  0  0  0  0  0  0
    8.7742   -6.1498   16.6764 C   0  0  0  0  0  0  0  0  0  0  0  0
   10.9418   -3.4032   21.2053 O   0  0  0  0  0  0  0  0  0  0  0  0
    1.4797   -8.6258   16.2950 C   0  0  0  0  0  0  0  0  0  0  0  0
    9.2861   -1.2743   25.3585 C   0  0  0  0  0  0  0  0  0  0  0  0
    1.8892  -10.3985   17.7511 N   0  0  0  0  0  0  0  0  0  0  0  0
    9.6210   -0.6952   24.0976 C   0  0  0  0  0  0  0  0  0  0  0  0
    7.0792   -9.0217   17.1429 C   0  0  0  0  0  0  0  0  0  0  0  0
    3.1713  -10.1816   17.6634 C   0  0  0  0  0  0  0  0  0  0  0  0
    2.7878   -8.3822   16.2137 C   0  0  0  0  0  0  0  0  0  0  0  0
    9.4601   -2.6590   25.6528 C   0  0  0  0  0  0  0  0  0  0  0  0
   10.1182   -1.5672   23.1165 C   0  0  0  0  0  0  0  0  0  0  0  0
    1.0552   -9.6360   17.0650 C   0  0  0  0  0  0  0  0  0  0  0  0
    3.6519   -9.1783   16.9039 C   0  0  0  0  0  0  0  0  0  0  0  0
    7.8675   -7.0096   15.9415 C   0  0  0  0  0  0  0  0  0  0  0  0
    5.9733   -9.6553   17.3832 N   0  0  0  0  0  0  0  0  0  0  0  0
   10.2411   -2.9363   23.4301 C   0  0  0  0  0  0  0  0  0  0  0  0
   10.7288   -3.8197   19.9525 C   0  0  0  0  0  0  0  0  0  0  0  0
   10.1189   -5.0054   19.6987 C   0  0  0  0  0  0  0  0  0  0  0  0
  1  3  4  0
  1  7  4  0
  2 21  4  0
  2 27  4  0
  3  9  4  0
  3 10  4  0
  4  8  4  0
  4 18  4  0
  4 25  1  0
  5  9  4  0
  5 12  4  0
  6 13  1  0
  6 27  1  0
  7 28  4  0
  8 11  4  0
  9 29  4  0
 10 12  4  0
 11 24  1  0
 11 26  4  0
 12 25  1  0
 13 28  1  0
 14 20  4  0
 14 23  4  0
 15 17  4  0
 15 21  4  0
 16 19  4  0
 16 23  4  0
 17 22  4  0
 18 26  4  0
 19 24  4  0
 20 24  4  0
 22 27  4  0
 28 29  4  0
M  END
$$$$

 Created by Python create_sdf_string function

 29 33  0  0  0  0  0  0  0  0999 V2000
   10.7215   -3.3326   17.6437 C   0  0  0  0  0  0  0  0  0  0  0  0
    9.9489   -3.4675   24.6487 N   0  0  0  0  0  0  0  0  0  0  0  0
   10.0172   -4.4740   17.4101 C   0  0  0  0  0  0  0  0  0  0  0  0
    6.9051   -7.9575   16.4222 C   0  0  0  0  0  0  0  0  0  0  0  0
    8.9969   -6.3552   17.9668 N   0  0  0  0  0  0  0  0  0  0  0  0
   10.6702   -3.9051   22.4070 C   0  0  0  0  0  0  0  0  0  0  0  0
   11.0625   -3.0028   18.8894 C   0  0  0  0  0  0  0  0  0  0  0  0
    5.6180   -7.9194   16.1754 O   0  0  0  0  0  0  0  0  0  0  0  0
    9.7259   -5.3080   18.4485 C   0  0  0  0  0  0  0  0  0  0  0  0
    9.4578   -5.0200   16.3036 N   0  0  0  0  0  0  0  0  0  0  0  0
    5.0287   -8.9365   16.8223 C   0  0  0  0  0  0  0  0  0  0  0  0
    8.7742   -6.1498   16.6764 C   0  0  0  0  0  0  0  0  0  0  0  0
   10.9418   -3.4032   21.2053 O   0  0  0  0  0  0  0  0  0  0  0  0
    1.4797   -8.6258   16.2950 C   0  0  0  0  0  0  0  0  0  0  0  0
    9.2861   -1.2743   25.3585 C   0  0  0  0  0  0  0  0  0  0  0  0
    1.8892  -10.3985   17.7511 N   0  0  0  0  0  0  0  0  0  0  0  0
    9.6210   -0.6952   24.0976 C   0  0  0  0  0  0  0  0  0  0  0  0
    7.0792   -9.0217   17.1429 C   0  0  0  0  0  0  0  0  0  0  0  0
    3.1713  -10.1816   17.6634 C   0  0  0  0  0  0  0  0  0  0  0  0
    2.7878   -8.3822   16.2137 C   0  0  0  0  0  0  0  0  0  0  0  0
    9.4601   -2.6590   25.6528 C   0  0  0  0  0  0  0  0  0  0  0  0
   10.1182   -1.5672   23.1165 C   0  0  0  0  0  0  0  0  0  0  0  0
    1.0552   -9.6360   17.0650 C   0  0  0  0  0  0  0  0  0  0  0  0
    3.6519   -9.1783   16.9039 C   0  0  0  0  0  0  0  0  0  0  0  0
    7.8675   -7.0096   15.9415 C   0  0  0  0  0  0  0  0  0  0  0  0
    5.9733   -9.6553   17.3832 N   0  0  0  0  0  0  0  0  0  0  0  0
   10.2411   -2.9363   23.4301 C   0  0  0  0  0  0  0  0  0  0  0  0
   10.7288   -3.8197   19.9525 C   0  0  0  0  0  0  0  0  0  0  0  0
   10.1189   -5.0054   19.6987 C   0  0  0  0  0  0  0  0  0  0  0  0
  1  3  4  0
  1  7  4  0
  2 21  4  0
  2 27  4  0
  3  9  4  0
  3 10  4  0
  4  8  4  0
  4 18  4  0
  4 25  1  0
  5  9  4  0
  5 12  4  0
  6 13  1  0
  6 27  1  0
  7 28  4  0
  8 11  4  0
  9 29  4  0
 10 12  4  0
 11 24  1  0
 11 26  4  0
 12 25  1  0
 13 28  1  0
 14 20  4  0
 14 23  4  0
 15 17  4  0
 15 21  4  0
 16 19  4  0
 16 23  4  0
 17 22  4  0
 18 26  4  0
 19 24  4  0
 20 24  4  0
 22 27  4  0
 28 29  4  0
M  END
$$$$

 Created by Python create_sdf_string function

 29 33  0  0  0  0  0  0  0  0999 V2000
   10.7215   -3.3326   17.6437 C   0  0  0  0  0  0  0  0  0  0  0  0
    9.9489   -3.4675   24.6487 N   0  0  0  0  0  0  0  0  0  0  0  0
   10.0172   -4.4740   17.4101 C   0  0  0  0  0  0  0  0  0  0  0  0
    6.9051   -7.9575   16.4222 C   0  0  0  0  0  0  0  0  0  0  0  0
    8.9969   -6.3552   17.9668 N   0  0  0  0  0  0  0  0  0  0  0  0
   10.6702   -3.9051   22.4070 C   0  0  0  0  0  0  0  0  0  0  0  0
   11.0625   -3.0028   18.8894 C   0  0  0  0  0  0  0  0  0  0  0  0
    5.6180   -7.9194   16.1754 O   0  0  0  0  0  0  0  0  0  0  0  0
    9.7259   -5.3080   18.4485 C   0  0  0  0  0  0  0  0  0  0  0  0
    9.4578   -5.0200   16.3036 N   0  0  0  0  0  0  0  0  0  0  0  0
    5.0287   -8.9365   16.8223 C   0  0  0  0  0  0  0  0  0  0  0  0
    8.7742   -6.1498   16.6764 C   0  0  0  0  0  0  0  0  0  0  0  0
   10.9418   -3.4032   21.2053 O   0  0  0  0  0  0  0  0  0  0  0  0
    1.4797   -8.6258   16.2950 C   0  0  0  0  0  0  0  0  0  0  0  0
    9.2861   -1.2743   25.3585 C   0  0  0  0  0  0  0  0  0  0  0  0
    1.8892  -10.3985   17.7511 N   0  0  0  0  0  0  0  0  0  0  0  0
    9.6210   -0.6952   24.0976 C   0  0  0  0  0  0  0  0  0  0  0  0
    7.0792   -9.0217   17.1429 C   0  0  0  0  0  0  0  0  0  0  0  0
    3.1713  -10.1816   17.6634 C   0  0  0  0  0  0  0  0  0  0  0  0
    2.7878   -8.3822   16.2137 C   0  0  0  0  0  0  0  0  0  0  0  0
    9.4601   -2.6590   25.6528 C   0  0  0  0  0  0  0  0  0  0  0  0
   10.1182   -1.5672   23.1165 C   0  0  0  0  0  0  0  0  0  0  0  0
    1.0552   -9.6360   17.0650 C   0  0  0  0  0  0  0  0  0  0  0  0
    3.6519   -9.1783   16.9039 C   0  0  0  0  0  0  0  0  0  0  0  0
    7.8675   -7.0096   15.9415 C   0  0  0  0  0  0  0  0  0  0  0  0
    5.9733   -9.6553   17.3832 N   0  0  0  0  0  0  0  0  0  0  0  0
   10.2411   -2.9363   23.4301 C   0  0  0  0  0  0  0  0  0  0  0  0
   10.7288   -3.8197   19.9525 C   0  0  0  0  0  0  0  0  0  0  0  0
   10.1189   -5.0054   19.6987 C   0  0  0  0  0  0  0  0  0  0  0  0
  1  3  4  0
  1  7  4  0
  2 21  4  0
  2 27  4  0
  3  9  4  0
  3 10  4  0
  4  8  4  0
  4 18  4  0
  4 25  1  0
  5  9  4  0
  5 12  4  0
  6 13  1  0
  6 27  1  0
  7 28  4  0
  8 11  4  0
  9 29  4  0
 10 12  4  0
 11 24  1  0
 11 26  4  0
 12 25  1  0
 13 28  1  0
 14 20  4  0
 14 23  4  0
 15 17  4  0
 15 21  4  0
 16 19  4  0
 16 23  4  0
 17 22  4  0
 18 26  4  0
 19 24  4  0
 20 24  4  0
 22 27  4  0
 28 29  4  0
M  END
$$$$

 Created by Python create_sdf_string function

 29 33  0  0  0  0  0  0  0  0999 V2000
   10.7215   -3.3326   17.6437 C   0  0  0  0  0  0  0  0  0  0  0  0
    9.9489   -3.4675   24.6487 N   0  0  0  0  0  0  0  0  0  0  0  0
   10.0172   -4.4740   17.4101 C   0  0  0  0  0  0  0  0  0  0  0  0
    6.9051   -7.9575   16.4222 C   0  0  0  0  0  0  0  0  0  0  0  0
    8.9969   -6.3552   17.9668 N   0  0  0  0  0  0  0  0  0  0  0  0
   10.6702   -3.9051   22.4070 C   0  0  0  0  0  0  0  0  0  0  0  0
   11.0625   -3.0028   18.8894 C   0  0  0  0  0  0  0  0  0  0  0  0
    5.6180   -7.9194   16.1754 O   0  0  0  0  0  0  0  0  0  0  0  0
    9.7259   -5.3080   18.4485 C   0  0  0  0  0  0  0  0  0  0  0  0
    9.4578   -5.0200   16.3036 N   0  0  0  0  0  0  0  0  0  0  0  0
    5.0287   -8.9365   16.8223 C   0  0  0  0  0  0  0  0  0  0  0  0
    8.7742   -6.1498   16.6764 C   0  0  0  0  0  0  0  0  0  0  0  0
   10.9418   -3.4032   21.2053 O   0  0  0  0  0  0  0  0  0  0  0  0
    1.4797   -8.6258   16.2950 C   0  0  0  0  0  0  0  0  0  0  0  0
    9.2861   -1.2743   25.3585 C   0  0  0  0  0  0  0  0  0  0  0  0
    1.8892  -10.3985   17.7511 N   0  0  0  0  0  0  0  0  0  0  0  0
    9.6210   -0.6952   24.0976 C   0  0  0  0  0  0  0  0  0  0  0  0
    7.0792   -9.0217   17.1429 C   0  0  0  0  0  0  0  0  0  0  0  0
    3.1713  -10.1816   17.6634 C   0  0  0  0  0  0  0  0  0  0  0  0
    2.7878   -8.3822   16.2137 C   0  0  0  0  0  0  0  0  0  0  0  0
    9.4601   -2.6590   25.6528 C   0  0  0  0  0  0  0  0  0  0  0  0
   10.1182   -1.5672   23.1165 C   0  0  0  0  0  0  0  0  0  0  0  0
    1.0552   -9.6360   17.0650 C   0  0  0  0  0  0  0  0  0  0  0  0
    3.6519   -9.1783   16.9039 C   0  0  0  0  0  0  0  0  0  0  0  0
    7.8675   -7.0096   15.9415 C   0  0  0  0  0  0  0  0  0  0  0  0
    5.9733   -9.6553   17.3832 N   0  0  0  0  0  0  0  0  0  0  0  0
   10.2411   -2.9363   23.4301 C   0  0  0  0  0  0  0  0  0  0  0  0
   10.7288   -3.8197   19.9525 C   0  0  0  0  0  0  0  0  0  0  0  0
   10.1189   -5.0054   19.6987 C   0  0  0  0  0  0  0  0  0  0  0  0
  1  3  4  0
  1  7  4  0
  2 21  4  0
  2 27  4  0
  3  9  4  0
  3 10  4  0
  4  8  4  0
  4 18  4  0
  4 25  1  0
  5  9  4  0
  5 12  4  0
  6 13  1  0
  6 27  1  0
  7 28  4  0
  8 11  4  0
  9 29  4  0
 10 12  4  0
 11 24  1  0
 11 26  4  0
 12 25  1  0
 13 28  1  0
 14 20  4  0
 14 23  4  0
 15 17  4  0
 15 21  4  0
 16 19  4  0
 16 23  4  0
 17 22  4  0
 18 26  4  0
 19 24  4  0
 20 24  4  0
 22 27  4  0
 28 29  4  0
M  END
$$$$

 Created by Python create_sdf_string function

 29 33  0  0  0  0  0  0  0  0999 V2000
   10.7215   -3.3326   17.6437 C   0  0  0  0  0  0  0  0  0  0  0  0
    9.9489   -3.4675   24.6487 N   0  0  0  0  0  0  0  0  0  0  0  0
   10.0172   -4.4740   17.4101 C   0  0  0  0  0  0  0  0  0  0  0  0
    6.9051   -7.9575   16.4222 C   0  0  0  0  0  0  0  0  0  0  0  0
    8.9969   -6.3552   17.9668 N   0  0  0  0  0  0  0  0  0  0  0  0
   10.6702   -3.9051   22.4070 C   0  0  0  0  0  0  0  0  0  0  0  0
   11.0625   -3.0028   18.8894 C   0  0  0  0  0  0  0  0  0  0  0  0
    5.6180   -7.9194   16.1754 O   0  0  0  0  0  0  0  0  0  0  0  0
    9.7259   -5.3080   18.4485 C   0  0  0  0  0  0  0  0  0  0  0  0
    9.4578   -5.0200   16.3036 N   0  0  0  0  0  0  0  0  0  0  0  0
    5.0287   -8.9365   16.8223 C   0  0  0  0  0  0  0  0  0  0  0  0
    8.7742   -6.1498   16.6764 C   0  0  0  0  0  0  0  0  0  0  0  0
   10.9418   -3.4032   21.2053 O   0  0  0  0  0  0  0  0  0  0  0  0
    1.4797   -8.6258   16.2950 C   0  0  0  0  0  0  0  0  0  0  0  0
    9.2861   -1.2743   25.3585 C   0  0  0  0  0  0  0  0  0  0  0  0
    1.8892  -10.3985   17.7511 N   0  0  0  0  0  0  0  0  0  0  0  0
    9.6210   -0.6952   24.0976 C   0  0  0  0  0  0  0  0  0  0  0  0
    7.0792   -9.0217   17.1429 C   0  0  0  0  0  0  0  0  0  0  0  0
    3.1713  -10.1816   17.6634 C   0  0  0  0  0  0  0  0  0  0  0  0
    2.7878   -8.3822   16.2137 C   0  0  0  0  0  0  0  0  0  0  0  0
    9.4601   -2.6590   25.6528 C   0  0  0  0  0  0  0  0  0  0  0  0
   10.1182   -1.5672   23.1165 C   0  0  0  0  0  0  0  0  0  0  0  0
    1.0552   -9.6360   17.0650 C   0  0  0  0  0  0  0  0  0  0  0  0
    3.6519   -9.1783   16.9039 C   0  0  0  0  0  0  0  0  0  0  0  0
    7.8675   -7.0096   15.9415 C   0  0  0  0  0  0  0  0  0  0  0  0
    5.9733   -9.6553   17.3832 N   0  0  0  0  0  0  0  0  0  0  0  0
   10.2411   -2.9363   23.4301 C   0  0  0  0  0  0  0  0  0  0  0  0
   10.7288   -3.8197   19.9525 C   0  0  0  0  0  0  0  0  0  0  0  0
   10.1189   -5.0054   19.6987 C   0  0  0  0  0  0  0  0  0  0  0  0
  1  3  4  0
  1  7  4  0
  2 21  4  0
  2 27  4  0
  3  9  4  0
  3 10  4  0
  4  8  4  0
  4 18  4  0
  4 25  1  0
  5  9  4  0
  5 12  4  0
  6 13  1  0
  6 27  1  0
  7 28  4  0
  8 11  4  0
  9 29  4  0
 10 12  4  0
 11 24  1  0
 11 26  4  0
 12 25  1  0
 13 28  1  0
 14 20  4  0
 14 23  4  0
 15 17  4  0
 15 21  4  0
 16 19  4  0
 16 23  4  0
 17 22  4  0
 18 26  4  0
 19 24  4  0
 20 24  4  0
 22 27  4  0
 28 29  4  0
M  END
$$$$

 Created by Python create_sdf_string function

 29 33  0  0  0  0  0  0  0  0999 V2000
   10.7215   -3.3326   17.6437 C   0  0  0  0  0  0  0  0  0  0  0  0
    9.9489   -3.4675   24.6487 N   0  0  0  0  0  0  0  0  0  0  0  0
   10.0172   -4.4740   17.4101 C   0  0  0  0  0  0  0  0  0  0  0  0
    6.9051   -7.9575   16.4222 C   0  0  0  0  0  0  0  0  0  0  0  0
    8.9969   -6.3552   17.9668 N   0  0  0  0  0  0  0  0  0  0  0  0
   10.6702   -3.9051   22.4070 C   0  0  0  0  0  0  0  0  0  0  0  0
   11.0625   -3.0028   18.8894 C   0  0  0  0  0  0  0  0  0  0  0  0
    5.6180   -7.9194   16.1754 O   0  0  0  0  0  0  0  0  0  0  0  0
    9.7259   -5.3080   18.4485 C   0  0  0  0  0  0  0  0  0  0  0  0
    9.4578   -5.0200   16.3036 N   0  0  0  0  0  0  0  0  0  0  0  0
    5.0287   -8.9365   16.8223 C   0  0  0  0  0  0  0  0  0  0  0  0
    8.7742   -6.1498   16.6764 C   0  0  0  0  0  0  0  0  0  0  0  0
   10.9418   -3.4032   21.2053 O   0  0  0  0  0  0  0  0  0  0  0  0
    1.4797   -8.6258   16.2950 C   0  0  0  0  0  0  0  0  0  0  0  0
    9.2861   -1.2743   25.3585 C   0  0  0  0  0  0  0  0  0  0  0  0
    1.8892  -10.3985   17.7511 N   0  0  0  0  0  0  0  0  0  0  0  0
    9.6210   -0.6952   24.0976 C   0  0  0  0  0  0  0  0  0  0  0  0
    7.0792   -9.0217   17.1429 C   0  0  0  0  0  0  0  0  0  0  0  0
    3.1713  -10.1816   17.6634 C   0  0  0  0  0  0  0  0  0  0  0  0
    2.7878   -8.3822   16.2137 C   0  0  0  0  0  0  0  0  0  0  0  0
    9.4601   -2.6590   25.6528 C   0  0  0  0  0  0  0  0  0  0  0  0
   10.1182   -1.5672   23.1165 C   0  0  0  0  0  0  0  0  0  0  0  0
    1.0552   -9.6360   17.0650 C   0  0  0  0  0  0  0  0  0  0  0  0
    3.6519   -9.1783   16.9039 C   0  0  0  0  0  0  0  0  0  0  0  0
    7.8675   -7.0096   15.9415 C   0  0  0  0  0  0  0  0  0  0  0  0
    5.9733   -9.6553   17.3832 N   0  0  0  0  0  0  0  0  0  0  0  0
   10.2411   -2.9363   23.4301 C   0  0  0  0  0  0  0  0  0  0  0  0
   10.7288   -3.8197   19.9525 C   0  0  0  0  0  0  0  0  0  0  0  0
   10.1189   -5.0054   19.6987 C   0  0  0  0  0  0  0  0  0  0  0  0
  1  3  4  0
  1  7  4  0
  2 21  4  0
  2 27  4  0
  3  9  4  0
  3 10  4  0
  4  8  4  0
  4 18  4  0
  4 25  1  0
  5  9  4  0
  5 12  4  0
  6 13  1  0
  6 27  1  0
  7 28  4  0
  8 11  4  0
  9 29  4  0
 10 12  4  0
 11 24  1  0
 11 26  4  0
 12 25  1  0
 13 28  1  0
 14 20  4  0
 14 23  4  0
 15 17  4  0
 15 21  4  0
 16 19  4  0
 16 23  4  0
 17 22  4  0
 18 26  4  0
 19 24  4  0
 20 24  4  0
 22 27  4  0
 28 29  4  0
M  END
$$$$

 Created by Python create_sdf_string function

 29 33  0  0  0  0  0  0  0  0999 V2000
   10.7215   -3.3326   17.6437 C   0  0  0  0  0  0  0  0  0  0  0  0
    9.9489   -3.4675   24.6487 N   0  0  0  0  0  0  0  0  0  0  0  0
   10.0172   -4.4740   17.4101 C   0  0  0  0  0  0  0  0  0  0  0  0
    6.9051   -7.9575   16.4222 C   0  0  0  0  0  0  0  0  0  0  0  0
    8.9969   -6.3552   17.9668 N   0  0  0  0  0  0  0  0  0  0  0  0
   10.6702   -3.9051   22.4070 C   0  0  0  0  0  0  0  0  0  0  0  0
   11.0625   -3.0028   18.8894 C   0  0  0  0  0  0  0  0  0  0  0  0
    5.6180   -7.9194   16.1754 O   0  0  0  0  0  0  0  0  0  0  0  0
    9.7259   -5.3080   18.4485 C   0  0  0  0  0  0  0  0  0  0  0  0
    9.4578   -5.0200   16.3036 N   0  0  0  0  0  0  0  0  0  0  0  0
    5.0287   -8.9365   16.8223 C   0  0  0  0  0  0  0  0  0  0  0  0
    8.7742   -6.1498   16.6764 C   0  0  0  0  0  0  0  0  0  0  0  0
   10.9418   -3.4032   21.2053 O   0  0  0  0  0  0  0  0  0  0  0  0
    1.4797   -8.6258   16.2950 C   0  0  0  0  0  0  0  0  0  0  0  0
    9.2861   -1.2743   25.3585 C   0  0  0  0  0  0  0  0  0  0  0  0
    1.8892  -10.3985   17.7511 N   0  0  0  0  0  0  0  0  0  0  0  0
    9.6210   -0.6952   24.0976 C   0  0  0  0  0  0  0  0  0  0  0  0
    7.0792   -9.0217   17.1429 C   0  0  0  0  0  0  0  0  0  0  0  0
    3.1713  -10.1816   17.6634 C   0  0  0  0  0  0  0  0  0  0  0  0
    2.7878   -8.3822   16.2137 C   0  0  0  0  0  0  0  0  0  0  0  0
    9.4601   -2.6590   25.6528 C   0  0  0  0  0  0  0  0  0  0  0  0
   10.1182   -1.5672   23.1165 C   0  0  0  0  0  0  0  0  0  0  0  0
    1.0552   -9.6360   17.0650 C   0  0  0  0  0  0  0  0  0  0  0  0
    3.6519   -9.1783   16.9039 C   0  0  0  0  0  0  0  0  0  0  0  0
    7.8675   -7.0096   15.9415 C   0  0  0  0  0  0  0  0  0  0  0  0
    5.9733   -9.6553   17.3832 N   0  0  0  0  0  0  0  0  0  0  0  0
   10.2411   -2.9363   23.4301 C   0  0  0  0  0  0  0  0  0  0  0  0
   10.7288   -3.8197   19.9525 C   0  0  0  0  0  0  0  0  0  0  0  0
   10.1189   -5.0054   19.6987 C   0  0  0  0  0  0  0  0  0  0  0  0
  1  3  4  0
  1  7  4  0
  2 21  4  0
  2 27  4  0
  3  9  4  0
  3 10  4  0
  4  8  4  0
  4 18  4  0
  4 25  1  0
  5  9  4  0
  5 12  4  0
  6 13  1  0
  6 27  1  0
  7 28  4  0
  8 11  4  0
  9 29  4  0
 10 12  4  0
 11 24  1  0
 11 26  4  0
 12 25  1  0
 13 28  1  0
 14 20  4  0
 14 23  4  0
 15 17  4  0
 15 21  4  0
 16 19  4  0
 16 23  4  0
 17 22  4  0
 18 26  4  0
 19 24  4  0
 20 24  4  0
 22 27  4  0
 28 29  4  0
M  END
$$$$

 Created by Python create_sdf_string function

 29 33  0  0  0  0  0  0  0  0999 V2000
   10.7215   -3.3326   17.6437 C   0  0  0  0  0  0  0  0  0  0  0  0
    9.9489   -3.4675   24.6487 N   0  0  0  0  0  0  0  0  0  0  0  0
   10.0172   -4.4740   17.4101 C   0  0  0  0  0  0  0  0  0  0  0  0
    6.9051   -7.9575   16.4222 C   0  0  0  0  0  0  0  0  0  0  0  0
    8.9969   -6.3552   17.9668 N   0  0  0  0  0  0  0  0  0  0  0  0
   10.6702   -3.9051   22.4070 C   0  0  0  0  0  0  0  0  0  0  0  0
   11.0625   -3.0028   18.8894 C   0  0  0  0  0  0  0  0  0  0  0  0
    5.6180   -7.9194   16.1754 O   0  0  0  0  0  0  0  0  0  0  0  0
    9.7259   -5.3080   18.4485 C   0  0  0  0  0  0  0  0  0  0  0  0
    9.4578   -5.0200   16.3036 N   0  0  0  0  0  0  0  0  0  0  0  0
    5.0287   -8.9365   16.8223 C   0  0  0  0  0  0  0  0  0  0  0  0
    8.7742   -6.1498   16.6764 C   0  0  0  0  0  0  0  0  0  0  0  0
   10.9418   -3.4032   21.2053 O   0  0  0  0  0  0  0  0  0  0  0  0
    1.4797   -8.6258   16.2950 C   0  0  0  0  0  0  0  0  0  0  0  0
    9.2861   -1.2743   25.3585 C   0  0  0  0  0  0  0  0  0  0  0  0
    1.8892  -10.3985   17.7511 N   0  0  0  0  0  0  0  0  0  0  0  0
    9.6210   -0.6952   24.0976 C   0  0  0  0  0  0  0  0  0  0  0  0
    7.0792   -9.0217   17.1429 C   0  0  0  0  0  0  0  0  0  0  0  0
    3.1713  -10.1816   17.6634 C   0  0  0  0  0  0  0  0  0  0  0  0
    2.7878   -8.3822   16.2137 C   0  0  0  0  0  0  0  0  0  0  0  0
    9.4601   -2.6590   25.6528 C   0  0  0  0  0  0  0  0  0  0  0  0
   10.1182   -1.5672   23.1165 C   0  0  0  0  0  0  0  0  0  0  0  0
    1.0552   -9.6360   17.0650 C   0  0  0  0  0  0  0  0  0  0  0  0
    3.6519   -9.1783   16.9039 C   0  0  0  0  0  0  0  0  0  0  0  0
    7.8675   -7.0096   15.9415 C   0  0  0  0  0  0  0  0  0  0  0  0
    5.9733   -9.6553   17.3832 N   0  0  0  0  0  0  0  0  0  0  0  0
   10.2411   -2.9363   23.4301 C   0  0  0  0  0  0  0  0  0  0  0  0
   10.7288   -3.8197   19.9525 C   0  0  0  0  0  0  0  0  0  0  0  0
   10.1189   -5.0054   19.6987 C   0  0  0  0  0  0  0  0  0  0  0  0
  1  3  4  0
  1  7  4  0
  2 21  4  0
  2 27  4  0
  3  9  4  0
  3 10  4  0
  4  8  4  0
  4 18  4  0
  4 25  1  0
  5  9  4  0
  5 12  4  0
  6 13  1  0
  6 27  1  0
  7 28  4  0
  8 11  4  0
  9 29  4  0
 10 12  4  0
 11 24  1  0
 11 26  4  0
 12 25  1  0
 13 28  1  0
 14 20  4  0
 14 23  4  0
 15 17  4  0
 15 21  4  0
 16 19  4  0
 16 23  4  0
 17 22  4  0
 18 26  4  0
 19 24  4  0
 20 24  4  0
 22 27  4  0
 28 29  4  0
M  END
$$$$

 Created by Python create_sdf_string function

 29 33  0  0  0  0  0  0  0  0999 V2000
   10.7215   -3.3326   17.6437 C   0  0  0  0  0  0  0  0  0  0  0  0
    9.9489   -3.4675   24.6487 N   0  0  0  0  0  0  0  0  0  0  0  0
   10.0172   -4.4740   17.4101 C   0  0  0  0  0  0  0  0  0  0  0  0
    6.9051   -7.9575   16.4222 C   0  0  0  0  0  0  0  0  0  0  0  0
    8.9969   -6.3552   17.9668 N   0  0  0  0  0  0  0  0  0  0  0  0
   10.6702   -3.9051   22.4070 C   0  0  0  0  0  0  0  0  0  0  0  0
   11.0625   -3.0028   18.8894 C   0  0  0  0  0  0  0  0  0  0  0  0
    5.6180   -7.9194   16.1754 O   0  0  0  0  0  0  0  0  0  0  0  0
    9.7259   -5.3080   18.4485 C   0  0  0  0  0  0  0  0  0  0  0  0
    9.4578   -5.0200   16.3036 N   0  0  0  0  0  0  0  0  0  0  0  0
    5.0287   -8.9365   16.8223 C   0  0  0  0  0  0  0  0  0  0  0  0
    8.7742   -6.1498   16.6764 C   0  0  0  0  0  0  0  0  0  0  0  0
   10.9418   -3.4032   21.2053 O   0  0  0  0  0  0  0  0  0  0  0  0
    1.4797   -8.6258   16.2950 C   0  0  0  0  0  0  0  0  0  0  0  0
    9.2861   -1.2743   25.3585 C   0  0  0  0  0  0  0  0  0  0  0  0
    1.8892  -10.3985   17.7511 N   0  0  0  0  0  0  0  0  0  0  0  0
    9.6210   -0.6952   24.0976 C   0  0  0  0  0  0  0  0  0  0  0  0
    7.0792   -9.0217   17.1429 C   0  0  0  0  0  0  0  0  0  0  0  0
    3.1713  -10.1816   17.6634 C   0  0  0  0  0  0  0  0  0  0  0  0
    2.7878   -8.3822   16.2137 C   0  0  0  0  0  0  0  0  0  0  0  0
    9.4601   -2.6590   25.6528 C   0  0  0  0  0  0  0  0  0  0  0  0
   10.1182   -1.5672   23.1165 C   0  0  0  0  0  0  0  0  0  0  0  0
    1.0552   -9.6360   17.0650 C   0  0  0  0  0  0  0  0  0  0  0  0
    3.6519   -9.1783   16.9039 C   0  0  0  0  0  0  0  0  0  0  0  0
    7.8675   -7.0096   15.9415 C   0  0  0  0  0  0  0  0  0  0  0  0
    5.9733   -9.6553   17.3832 N   0  0  0  0  0  0  0  0  0  0  0  0
   10.2411   -2.9363   23.4301 C   0  0  0  0  0  0  0  0  0  0  0  0
   10.7288   -3.8197   19.9525 C   0  0  0  0  0  0  0  0  0  0  0  0
   10.1189   -5.0054   19.6987 C   0  0  0  0  0  0  0  0  0  0  0  0
  1  3  4  0
  1  7  4  0
  2 21  4  0
  2 27  4  0
  3  9  4  0
  3 10  4  0
  4  8  4  0
  4 18  4  0
  4 25  1  0
  5  9  4  0
  5 12  4  0
  6 13  1  0
  6 27  1  0
  7 28  4  0
  8 11  4  0
  9 29  4  0
 10 12  4  0
 11 24  1  0
 11 26  4  0
 12 25  1  0
 13 28  1  0
 14 20  4  0
 14 23  4  0
 15 17  4  0
 15 21  4  0
 16 19  4  0
 16 23  4  0
 17 22  4  0
 18 26  4  0
 19 24  4  0
 20 24  4  0
 22 27  4  0
 28 29  4  0
M  END
$$$$

 Created by Python create_sdf_string function

 29 33  0  0  0  0  0  0  0  0999 V2000
   10.7215   -3.3326   17.6437 C   0  0  0  0  0  0  0  0  0  0  0  0
    9.9489   -3.4675   24.6487 N   0  0  0  0  0  0  0  0  0  0  0  0
   10.0172   -4.4740   17.4101 C   0  0  0  0  0  0  0  0  0  0  0  0
    6.9051   -7.9575   16.4222 C   0  0  0  0  0  0  0  0  0  0  0  0
    8.9969   -6.3552   17.9668 N   0  0  0  0  0  0  0  0  0  0  0  0
   10.6702   -3.9051   22.4070 C   0  0  0  0  0  0  0  0  0  0  0  0
   11.0625   -3.0028   18.8894 C   0  0  0  0  0  0  0  0  0  0  0  0
    5.6180   -7.9194   16.1754 O   0  0  0  0  0  0  0  0  0  0  0  0
    9.7259   -5.3080   18.4485 C   0  0  0  0  0  0  0  0  0  0  0  0
    9.4578   -5.0200   16.3036 N   0  0  0  0  0  0  0  0  0  0  0  0
    5.0287   -8.9365   16.8223 C   0  0  0  0  0  0  0  0  0  0  0  0
    8.7742   -6.1498   16.6764 C   0  0  0  0  0  0  0  0  0  0  0  0
   10.9418   -3.4032   21.2053 O   0  0  0  0  0  0  0  0  0  0  0  0
    1.4797   -8.6258   16.2950 C   0  0  0  0  0  0  0  0  0  0  0  0
    9.2861   -1.2743   25.3585 C   0  0  0  0  0  0  0  0  0  0  0  0
    1.8892  -10.3985   17.7511 N   0  0  0  0  0  0  0  0  0  0  0  0
    9.6210   -0.6952   24.0976 C   0  0  0  0  0  0  0  0  0  0  0  0
    7.0792   -9.0217   17.1429 C   0  0  0  0  0  0  0  0  0  0  0  0
    3.1713  -10.1816   17.6634 C   0  0  0  0  0  0  0  0  0  0  0  0
    2.7878   -8.3822   16.2137 C   0  0  0  0  0  0  0  0  0  0  0  0
    9.4601   -2.6590   25.6528 C   0  0  0  0  0  0  0  0  0  0  0  0
   10.1182   -1.5672   23.1165 C   0  0  0  0  0  0  0  0  0  0  0  0
    1.0552   -9.6360   17.0650 C   0  0  0  0  0  0  0  0  0  0  0  0
    3.6519   -9.1783   16.9039 C   0  0  0  0  0  0  0  0  0  0  0  0
    7.8675   -7.0096   15.9415 C   0  0  0  0  0  0  0  0  0  0  0  0
    5.9733   -9.6553   17.3832 N   0  0  0  0  0  0  0  0  0  0  0  0
   10.2411   -2.9363   23.4301 C   0  0  0  0  0  0  0  0  0  0  0  0
   10.7288   -3.8197   19.9525 C   0  0  0  0  0  0  0  0  0  0  0  0
   10.1189   -5.0054   19.6987 C   0  0  0  0  0  0  0  0  0  0  0  0
  1  3  4  0
  1  7  4  0
  2 21  4  0
  2 27  4  0
  3  9  4  0
  3 10  4  0
  4  8  4  0
  4 18  4  0
  4 25  1  0
  5  9  4  0
  5 12  4  0
  6 13  1  0
  6 27  1  0
  7 28  4  0
  8 11  4  0
  9 29  4  0
 10 12  4  0
 11 24  1  0
 11 26  4  0
 12 25  1  0
 13 28  1  0
 14 20  4  0
 14 23  4  0
 15 17  4  0
 15 21  4  0
 16 19  4  0
 16 23  4  0
 17 22  4  0
 18 26  4  0
 19 24  4  0
 20 24  4  0
 22 27  4  0
 28 29  4  0
M  END
$$$$

 Created by Python create_sdf_string function

 29 33  0  0  0  0  0  0  0  0999 V2000
   10.7215   -3.3326   17.6437 C   0  0  0  0  0  0  0  0  0  0  0  0
    9.9489   -3.4675   24.6487 N   0  0  0  0  0  0  0  0  0  0  0  0
   10.0172   -4.4740   17.4101 C   0  0  0  0  0  0  0  0  0  0  0  0
    6.9051   -7.9575   16.4222 C   0  0  0  0  0  0  0  0  0  0  0  0
    8.9969   -6.3552   17.9668 N   0  0  0  0  0  0  0  0  0  0  0  0
   10.6702   -3.9051   22.4070 C   0  0  0  0  0  0  0  0  0  0  0  0
   11.0625   -3.0028   18.8894 C   0  0  0  0  0  0  0  0  0  0  0  0
    5.6180   -7.9194   16.1754 O   0  0  0  0  0  0  0  0  0  0  0  0
    9.7259   -5.3080   18.4485 C   0  0  0  0  0  0  0  0  0  0  0  0
    9.4578   -5.0200   16.3036 N   0  0  0  0  0  0  0  0  0  0  0  0
    5.0287   -8.9365   16.8223 C   0  0  0  0  0  0  0  0  0  0  0  0
    8.7742   -6.1498   16.6764 C   0  0  0  0  0  0  0  0  0  0  0  0
   10.9418   -3.4032   21.2053 O   0  0  0  0  0  0  0  0  0  0  0  0
    1.4797   -8.6258   16.2950 C   0  0  0  0  0  0  0  0  0  0  0  0
    9.2861   -1.2743   25.3585 C   0  0  0  0  0  0  0  0  0  0  0  0
    1.8892  -10.3985   17.7511 N   0  0  0  0  0  0  0  0  0  0  0  0
    9.6210   -0.6952   24.0976 C   0  0  0  0  0  0  0  0  0  0  0  0
    7.0792   -9.0217   17.1429 C   0  0  0  0  0  0  0  0  0  0  0  0
    3.1713  -10.1816   17.6634 C   0  0  0  0  0  0  0  0  0  0  0  0
    2.7878   -8.3822   16.2137 C   0  0  0  0  0  0  0  0  0  0  0  0
    9.4601   -2.6590   25.6528 C   0  0  0  0  0  0  0  0  0  0  0  0
   10.1182   -1.5672   23.1165 C   0  0  0  0  0  0  0  0  0  0  0  0
    1.0552   -9.6360   17.0650 C   0  0  0  0  0  0  0  0  0  0  0  0
    3.6519   -9.1783   16.9039 C   0  0  0  0  0  0  0  0  0  0  0  0
    7.8675   -7.0096   15.9415 C   0  0  0  0  0  0  0  0  0  0  0  0
    5.9733   -9.6553   17.3832 N   0  0  0  0  0  0  0  0  0  0  0  0
   10.2411   -2.9363   23.4301 C   0  0  0  0  0  0  0  0  0  0  0  0
   10.7288   -3.8197   19.9525 C   0  0  0  0  0  0  0  0  0  0  0  0
   10.1189   -5.0054   19.6987 C   0  0  0  0  0  0  0  0  0  0  0  0
  1  3  4  0
  1  7  4  0
  2 21  4  0
  2 27  4  0
  3  9  4  0
  3 10  4  0
  4  8  4  0
  4 18  4  0
  4 25  1  0
  5  9  4  0
  5 12  4  0
  6 13  1  0
  6 27  1  0
  7 28  4  0
  8 11  4  0
  9 29  4  0
 10 12  4  0
 11 24  1  0
 11 26  4  0
 12 25  1  0
 13 28  1  0
 14 20  4  0
 14 23  4  0
 15 17  4  0
 15 21  4  0
 16 19  4  0
 16 23  4  0
 17 22  4  0
 18 26  4  0
 19 24  4  0
 20 24  4  0
 22 27  4  0
 28 29  4  0
M  END
$$$$

 Created by Python create_sdf_string function

 29 33  0  0  0  0  0  0  0  0999 V2000
   10.7215   -3.3326   17.6437 C   0  0  0  0  0  0  0  0  0  0  0  0
    9.9489   -3.4675   24.6487 N   0  0  0  0  0  0  0  0  0  0  0  0
   10.0172   -4.4740   17.4101 C   0  0  0  0  0  0  0  0  0  0  0  0
    6.9051   -7.9575   16.4222 C   0  0  0  0  0  0  0  0  0  0  0  0
    8.9969   -6.3552   17.9668 N   0  0  0  0  0  0  0  0  0  0  0  0
   10.6702   -3.9051   22.4070 C   0  0  0  0  0  0  0  0  0  0  0  0
   11.0625   -3.0028   18.8894 C   0  0  0  0  0  0  0  0  0  0  0  0
    5.6180   -7.9194   16.1754 O   0  0  0  0  0  0  0  0  0  0  0  0
    9.7259   -5.3080   18.4485 C   0  0  0  0  0  0  0  0  0  0  0  0
    9.4578   -5.0200   16.3036 N   0  0  0  0  0  0  0  0  0  0  0  0
    5.0287   -8.9365   16.8223 C   0  0  0  0  0  0  0  0  0  0  0  0
    8.7742   -6.1498   16.6764 C   0  0  0  0  0  0  0  0  0  0  0  0
   10.9418   -3.4032   21.2053 O   0  0  0  0  0  0  0  0  0  0  0  0
    1.4797   -8.6258   16.2950 C   0  0  0  0  0  0  0  0  0  0  0  0
    9.2861   -1.2743   25.3585 C   0  0  0  0  0  0  0  0  0  0  0  0
    1.8892  -10.3985   17.7511 N   0  0  0  0  0  0  0  0  0  0  0  0
    9.6210   -0.6952   24.0976 C   0  0  0  0  0  0  0  0  0  0  0  0
    7.0792   -9.0217   17.1429 C   0  0  0  0  0  0  0  0  0  0  0  0
    3.1713  -10.1816   17.6634 C   0  0  0  0  0  0  0  0  0  0  0  0
    2.7878   -8.3822   16.2137 C   0  0  0  0  0  0  0  0  0  0  0  0
    9.4601   -2.6590   25.6528 C   0  0  0  0  0  0  0  0  0  0  0  0
   10.1182   -1.5672   23.1165 C   0  0  0  0  0  0  0  0  0  0  0  0
    1.0552   -9.6360   17.0650 C   0  0  0  0  0  0  0  0  0  0  0  0
    3.6519   -9.1783   16.9039 C   0  0  0  0  0  0  0  0  0  0  0  0
    7.8675   -7.0096   15.9415 C   0  0  0  0  0  0  0  0  0  0  0  0
    5.9733   -9.6553   17.3832 N   0  0  0  0  0  0  0  0  0  0  0  0
   10.2411   -2.9363   23.4301 C   0  0  0  0  0  0  0  0  0  0  0  0
   10.7288   -3.8197   19.9525 C   0  0  0  0  0  0  0  0  0  0  0  0
   10.1189   -5.0054   19.6987 C   0  0  0  0  0  0  0  0  0  0  0  0
  1  3  4  0
  1  7  4  0
  2 21  4  0
  2 27  4  0
  3  9  4  0
  3 10  4  0
  4  8  4  0
  4 18  4  0
  4 25  1  0
  5  9  4  0
  5 12  4  0
  6 13  1  0
  6 27  1  0
  7 28  4  0
  8 11  4  0
  9 29  4  0
 10 12  4  0
 11 24  1  0
 11 26  4  0
 12 25  1  0
 13 28  1  0
 14 20  4  0
 14 23  4  0
 15 17  4  0
 15 21  4  0
 16 19  4  0
 16 23  4  0
 17 22  4  0
 18 26  4  0
 19 24  4  0
 20 24  4  0
 22 27  4  0
 28 29  4  0
M  END
$$$$

 Created by Python create_sdf_string function

 29 33  0  0  0  0  0  0  0  0999 V2000
   10.7215   -3.3326   17.6437 C   0  0  0  0  0  0  0  0  0  0  0  0
    9.9489   -3.4675   24.6487 N   0  0  0  0  0  0  0  0  0  0  0  0
   10.0172   -4.4740   17.4101 C   0  0  0  0  0  0  0  0  0  0  0  0
    6.9051   -7.9575   16.4222 C   0  0  0  0  0  0  0  0  0  0  0  0
    8.9969   -6.3552   17.9668 N   0  0  0  0  0  0  0  0  0  0  0  0
   10.6702   -3.9051   22.4070 C   0  0  0  0  0  0  0  0  0  0  0  0
   11.0625   -3.0028   18.8894 C   0  0  0  0  0  0  0  0  0  0  0  0
    5.6180   -7.9194   16.1754 O   0  0  0  0  0  0  0  0  0  0  0  0
    9.7259   -5.3080   18.4485 C   0  0  0  0  0  0  0  0  0  0  0  0
    9.4578   -5.0200   16.3036 N   0  0  0  0  0  0  0  0  0  0  0  0
    5.0287   -8.9365   16.8223 C   0  0  0  0  0  0  0  0  0  0  0  0
    8.7742   -6.1498   16.6764 C   0  0  0  0  0  0  0  0  0  0  0  0
   10.9418   -3.4032   21.2053 O   0  0  0  0  0  0  0  0  0  0  0  0
    1.4797   -8.6258   16.2950 C   0  0  0  0  0  0  0  0  0  0  0  0
    9.2861   -1.2743   25.3585 C   0  0  0  0  0  0  0  0  0  0  0  0
    1.8892  -10.3985   17.7511 N   0  0  0  0  0  0  0  0  0  0  0  0
    9.6210   -0.6952   24.0976 C   0  0  0  0  0  0  0  0  0  0  0  0
    7.0792   -9.0217   17.1429 C   0  0  0  0  0  0  0  0  0  0  0  0
    3.1713  -10.1816   17.6634 C   0  0  0  0  0  0  0  0  0  0  0  0
    2.7878   -8.3822   16.2137 C   0  0  0  0  0  0  0  0  0  0  0  0
    9.4601   -2.6590   25.6528 C   0  0  0  0  0  0  0  0  0  0  0  0
   10.1182   -1.5672   23.1165 C   0  0  0  0  0  0  0  0  0  0  0  0
    1.0552   -9.6360   17.0650 C   0  0  0  0  0  0  0  0  0  0  0  0
    3.6519   -9.1783   16.9039 C   0  0  0  0  0  0  0  0  0  0  0  0
    7.8675   -7.0096   15.9415 C   0  0  0  0  0  0  0  0  0  0  0  0
    5.9733   -9.6553   17.3832 N   0  0  0  0  0  0  0  0  0  0  0  0
   10.2411   -2.9363   23.4301 C   0  0  0  0  0  0  0  0  0  0  0  0
   10.7288   -3.8197   19.9525 C   0  0  0  0  0  0  0  0  0  0  0  0
   10.1189   -5.0054   19.6987 C   0  0  0  0  0  0  0  0  0  0  0  0
  1  3  4  0
  1  7  4  0
  2 21  4  0
  2 27  4  0
  3  9  4  0
  3 10  4  0
  4  8  4  0
  4 18  4  0
  4 25  1  0
  5  9  4  0
  5 12  4  0
  6 13  1  0
  6 27  1  0
  7 28  4  0
  8 11  4  0
  9 29  4  0
 10 12  4  0
 11 24  1  0
 11 26  4  0
 12 25  1  0
 13 28  1  0
 14 20  4  0
 14 23  4  0
 15 17  4  0
 15 21  4  0
 16 19  4  0
 16 23  4  0
 17 22  4  0
 18 26  4  0
 19 24  4  0
 20 24  4  0
 22 27  4  0
 28 29  4  0
M  END
$$$$

 Created by Python create_sdf_string function

 29 33  0  0  0  0  0  0  0  0999 V2000
   10.7215   -3.3326   17.6437 C   0  0  0  0  0  0  0  0  0  0  0  0
    9.9489   -3.4675   24.6487 N   0  0  0  0  0  0  0  0  0  0  0  0
   10.0172   -4.4740   17.4101 C   0  0  0  0  0  0  0  0  0  0  0  0
    6.9051   -7.9575   16.4222 C   0  0  0  0  0  0  0  0  0  0  0  0
    8.9969   -6.3552   17.9668 N   0  0  0  0  0  0  0  0  0  0  0  0
   10.6702   -3.9051   22.4070 C   0  0  0  0  0  0  0  0  0  0  0  0
   11.0625   -3.0028   18.8894 C   0  0  0  0  0  0  0  0  0  0  0  0
    5.6180   -7.9194   16.1754 O   0  0  0  0  0  0  0  0  0  0  0  0
    9.7259   -5.3080   18.4485 C   0  0  0  0  0  0  0  0  0  0  0  0
    9.4578   -5.0200   16.3036 N   0  0  0  0  0  0  0  0  0  0  0  0
    5.0287   -8.9365   16.8223 C   0  0  0  0  0  0  0  0  0  0  0  0
    8.7742   -6.1498   16.6764 C   0  0  0  0  0  0  0  0  0  0  0  0
   10.9418   -3.4032   21.2053 O   0  0  0  0  0  0  0  0  0  0  0  0
    1.4797   -8.6258   16.2950 C   0  0  0  0  0  0  0  0  0  0  0  0
    9.2861   -1.2743   25.3585 C   0  0  0  0  0  0  0  0  0  0  0  0
    1.8892  -10.3985   17.7511 N   0  0  0  0  0  0  0  0  0  0  0  0
    9.6210   -0.6952   24.0976 C   0  0  0  0  0  0  0  0  0  0  0  0
    7.0792   -9.0217   17.1429 C   0  0  0  0  0  0  0  0  0  0  0  0
    3.1713  -10.1816   17.6634 C   0  0  0  0  0  0  0  0  0  0  0  0
    2.7878   -8.3822   16.2137 C   0  0  0  0  0  0  0  0  0  0  0  0
    9.4601   -2.6590   25.6528 C   0  0  0  0  0  0  0  0  0  0  0  0
   10.1182   -1.5672   23.1165 C   0  0  0  0  0  0  0  0  0  0  0  0
    1.0552   -9.6360   17.0650 C   0  0  0  0  0  0  0  0  0  0  0  0
    3.6519   -9.1783   16.9039 C   0  0  0  0  0  0  0  0  0  0  0  0
    7.8675   -7.0096   15.9415 C   0  0  0  0  0  0  0  0  0  0  0  0
    5.9733   -9.6553   17.3832 N   0  0  0  0  0  0  0  0  0  0  0  0
   10.2411   -2.9363   23.4301 C   0  0  0  0  0  0  0  0  0  0  0  0
   10.7288   -3.8197   19.9525 C   0  0  0  0  0  0  0  0  0  0  0  0
   10.1189   -5.0054   19.6987 C   0  0  0  0  0  0  0  0  0  0  0  0
  1  3  4  0
  1  7  4  0
  2 21  4  0
  2 27  4  0
  3  9  4  0
  3 10  4  0
  4  8  4  0
  4 18  4  0
  4 25  1  0
  5  9  4  0
  5 12  4  0
  6 13  1  0
  6 27  1  0
  7 28  4  0
  8 11  4  0
  9 29  4  0
 10 12  4  0
 11 24  1  0
 11 26  4  0
 12 25  1  0
 13 28  1  0
 14 20  4  0
 14 23  4  0
 15 17  4  0
 15 21  4  0
 16 19  4  0
 16 23  4  0
 17 22  4  0
 18 26  4  0
 19 24  4  0
 20 24  4  0
 22 27  4  0
 28 29  4  0
M  END
$$$$

 Created by Python create_sdf_string function

 29 33  0  0  0  0  0  0  0  0999 V2000
   10.7215   -3.3326   17.6437 C   0  0  0  0  0  0  0  0  0  0  0  0
    9.9489   -3.4675   24.6487 N   0  0  0  0  0  0  0  0  0  0  0  0
   10.0172   -4.4740   17.4101 C   0  0  0  0  0  0  0  0  0  0  0  0
    6.9051   -7.9575   16.4222 C   0  0  0  0  0  0  0  0  0  0  0  0
    8.9969   -6.3552   17.9668 N   0  0  0  0  0  0  0  0  0  0  0  0
   10.6702   -3.9051   22.4070 C   0  0  0  0  0  0  0  0  0  0  0  0
   11.0625   -3.0028   18.8894 C   0  0  0  0  0  0  0  0  0  0  0  0
    5.6180   -7.9194   16.1754 O   0  0  0  0  0  0  0  0  0  0  0  0
    9.7259   -5.3080   18.4485 C   0  0  0  0  0  0  0  0  0  0  0  0
    9.4578   -5.0200   16.3036 N   0  0  0  0  0  0  0  0  0  0  0  0
    5.0287   -8.9365   16.8223 C   0  0  0  0  0  0  0  0  0  0  0  0
    8.7742   -6.1498   16.6764 C   0  0  0  0  0  0  0  0  0  0  0  0
   10.9418   -3.4032   21.2053 O   0  0  0  0  0  0  0  0  0  0  0  0
    1.4797   -8.6258   16.2950 C   0  0  0  0  0  0  0  0  0  0  0  0
    9.2861   -1.2743   25.3585 C   0  0  0  0  0  0  0  0  0  0  0  0
    1.8892  -10.3985   17.7511 N   0  0  0  0  0  0  0  0  0  0  0  0
    9.6210   -0.6952   24.0976 C   0  0  0  0  0  0  0  0  0  0  0  0
    7.0792   -9.0217   17.1429 C   0  0  0  0  0  0  0  0  0  0  0  0
    3.1713  -10.1816   17.6634 C   0  0  0  0  0  0  0  0  0  0  0  0
    2.7878   -8.3822   16.2137 C   0  0  0  0  0  0  0  0  0  0  0  0
    9.4601   -2.6590   25.6528 C   0  0  0  0  0  0  0  0  0  0  0  0
   10.1182   -1.5672   23.1165 C   0  0  0  0  0  0  0  0  0  0  0  0
    1.0552   -9.6360   17.0650 C   0  0  0  0  0  0  0  0  0  0  0  0
    3.6519   -9.1783   16.9039 C   0  0  0  0  0  0  0  0  0  0  0  0
    7.8675   -7.0096   15.9415 C   0  0  0  0  0  0  0  0  0  0  0  0
    5.9733   -9.6553   17.3832 N   0  0  0  0  0  0  0  0  0  0  0  0
   10.2411   -2.9363   23.4301 C   0  0  0  0  0  0  0  0  0  0  0  0
   10.7288   -3.8197   19.9525 C   0  0  0  0  0  0  0  0  0  0  0  0
   10.1189   -5.0054   19.6987 C   0  0  0  0  0  0  0  0  0  0  0  0
  1  3  4  0
  1  7  4  0
  2 21  4  0
  2 27  4  0
  3  9  4  0
  3 10  4  0
  4  8  4  0
  4 18  4  0
  4 25  1  0
  5  9  4  0
  5 12  4  0
  6 13  1  0
  6 27  1  0
  7 28  4  0
  8 11  4  0
  9 29  4  0
 10 12  4  0
 11 24  1  0
 11 26  4  0
 12 25  1  0
 13 28  1  0
 14 20  4  0
 14 23  4  0
 15 17  4  0
 15 21  4  0
 16 19  4  0
 16 23  4  0
 17 22  4  0
 18 26  4  0
 19 24  4  0
 20 24  4  0
 22 27  4  0
 28 29  4  0
M  END
$$$$

 Created by Python create_sdf_string function

 29 33  0  0  0  0  0  0  0  0999 V2000
   10.7215   -3.3326   17.6437 C   0  0  0  0  0  0  0  0  0  0  0  0
    9.9489   -3.4675   24.6487 N   0  0  0  0  0  0  0  0  0  0  0  0
   10.0172   -4.4740   17.4101 C   0  0  0  0  0  0  0  0  0  0  0  0
    6.9051   -7.9575   16.4222 C   0  0  0  0  0  0  0  0  0  0  0  0
    8.9969   -6.3552   17.9668 N   0  0  0  0  0  0  0  0  0  0  0  0
   10.6702   -3.9051   22.4070 C   0  0  0  0  0  0  0  0  0  0  0  0
   11.0625   -3.0028   18.8894 C   0  0  0  0  0  0  0  0  0  0  0  0
    5.6180   -7.9194   16.1754 O   0  0  0  0  0  0  0  0  0  0  0  0
    9.7259   -5.3080   18.4485 C   0  0  0  0  0  0  0  0  0  0  0  0
    9.4578   -5.0200   16.3036 N   0  0  0  0  0  0  0  0  0  0  0  0
    5.0287   -8.9365   16.8223 C   0  0  0  0  0  0  0  0  0  0  0  0
    8.7742   -6.1498   16.6764 C   0  0  0  0  0  0  0  0  0  0  0  0
   10.9418   -3.4032   21.2053 O   0  0  0  0  0  0  0  0  0  0  0  0
    1.4797   -8.6258   16.2950 C   0  0  0  0  0  0  0  0  0  0  0  0
    9.2861   -1.2743   25.3585 C   0  0  0  0  0  0  0  0  0  0  0  0
    1.8892  -10.3985   17.7511 N   0  0  0  0  0  0  0  0  0  0  0  0
    9.6210   -0.6952   24.0976 C   0  0  0  0  0  0  0  0  0  0  0  0
    7.0792   -9.0217   17.1429 C   0  0  0  0  0  0  0  0  0  0  0  0
    3.1713  -10.1816   17.6634 C   0  0  0  0  0  0  0  0  0  0  0  0
    2.7878   -8.3822   16.2137 C   0  0  0  0  0  0  0  0  0  0  0  0
    9.4601   -2.6590   25.6528 C   0  0  0  0  0  0  0  0  0  0  0  0
   10.1182   -1.5672   23.1165 C   0  0  0  0  0  0  0  0  0  0  0  0
    1.0552   -9.6360   17.0650 C   0  0  0  0  0  0  0  0  0  0  0  0
    3.6519   -9.1783   16.9039 C   0  0  0  0  0  0  0  0  0  0  0  0
    7.8675   -7.0096   15.9415 C   0  0  0  0  0  0  0  0  0  0  0  0
    5.9733   -9.6553   17.3832 N   0  0  0  0  0  0  0  0  0  0  0  0
   10.2411   -2.9363   23.4301 C   0  0  0  0  0  0  0  0  0  0  0  0
   10.7288   -3.8197   19.9525 C   0  0  0  0  0  0  0  0  0  0  0  0
   10.1189   -5.0054   19.6987 C   0  0  0  0  0  0  0  0  0  0  0  0
  1  3  4  0
  1  7  4  0
  2 21  4  0
  2 27  4  0
  3  9  4  0
  3 10  4  0
  4  8  4  0
  4 18  4  0
  4 25  1  0
  5  9  4  0
  5 12  4  0
  6 13  1  0
  6 27  1  0
  7 28  4  0
  8 11  4  0
  9 29  4  0
 10 12  4  0
 11 24  1  0
 11 26  4  0
 12 25  1  0
 13 28  1  0
 14 20  4  0
 14 23  4  0
 15 17  4  0
 15 21  4  0
 16 19  4  0
 16 23  4  0
 17 22  4  0
 18 26  4  0
 19 24  4  0
 20 24  4  0
 22 27  4  0
 28 29  4  0
M  END
$$$$

 Created by Python create_sdf_string function

 29 33  0  0  0  0  0  0  0  0999 V2000
   10.7215   -3.3326   17.6437 C   0  0  0  0  0  0  0  0  0  0  0  0
    9.9489   -3.4675   24.6487 N   0  0  0  0  0  0  0  0  0  0  0  0
   10.0172   -4.4740   17.4101 C   0  0  0  0  0  0  0  0  0  0  0  0
    6.9051   -7.9575   16.4222 C   0  0  0  0  0  0  0  0  0  0  0  0
    8.9969   -6.3552   17.9668 N   0  0  0  0  0  0  0  0  0  0  0  0
   10.6702   -3.9051   22.4070 C   0  0  0  0  0  0  0  0  0  0  0  0
   11.0625   -3.0028   18.8894 C   0  0  0  0  0  0  0  0  0  0  0  0
    5.6180   -7.9194   16.1754 O   0  0  0  0  0  0  0  0  0  0  0  0
    9.7259   -5.3080   18.4485 C   0  0  0  0  0  0  0  0  0  0  0  0
    9.4578   -5.0200   16.3036 N   0  0  0  0  0  0  0  0  0  0  0  0
    5.0287   -8.9365   16.8223 C   0  0  0  0  0  0  0  0  0  0  0  0
    8.7742   -6.1498   16.6764 C   0  0  0  0  0  0  0  0  0  0  0  0
   10.9418   -3.4032   21.2053 O   0  0  0  0  0  0  0  0  0  0  0  0
    1.4797   -8.6258   16.2950 C   0  0  0  0  0  0  0  0  0  0  0  0
    9.2861   -1.2743   25.3585 C   0  0  0  0  0  0  0  0  0  0  0  0
    1.8892  -10.3985   17.7511 N   0  0  0  0  0  0  0  0  0  0  0  0
    9.6210   -0.6952   24.0976 C   0  0  0  0  0  0  0  0  0  0  0  0
    7.0792   -9.0217   17.1429 C   0  0  0  0  0  0  0  0  0  0  0  0
    3.1713  -10.1816   17.6634 C   0  0  0  0  0  0  0  0  0  0  0  0
    2.7878   -8.3822   16.2137 C   0  0  0  0  0  0  0  0  0  0  0  0
    9.4601   -2.6590   25.6528 C   0  0  0  0  0  0  0  0  0  0  0  0
   10.1182   -1.5672   23.1165 C   0  0  0  0  0  0  0  0  0  0  0  0
    1.0552   -9.6360   17.0650 C   0  0  0  0  0  0  0  0  0  0  0  0
    3.6519   -9.1783   16.9039 C   0  0  0  0  0  0  0  0  0  0  0  0
    7.8675   -7.0096   15.9415 C   0  0  0  0  0  0  0  0  0  0  0  0
    5.9733   -9.6553   17.3832 N   0  0  0  0  0  0  0  0  0  0  0  0
   10.2411   -2.9363   23.4301 C   0  0  0  0  0  0  0  0  0  0  0  0
   10.7288   -3.8197   19.9525 C   0  0  0  0  0  0  0  0  0  0  0  0
   10.1189   -5.0054   19.6987 C   0  0  0  0  0  0  0  0  0  0  0  0
  1  3  4  0
  1  7  4  0
  2 21  4  0
  2 27  4  0
  3  9  4  0
  3 10  4  0
  4  8  4  0
  4 18  4  0
  4 25  1  0
  5  9  4  0
  5 12  4  0
  6 13  1  0
  6 27  1  0
  7 28  4  0
  8 11  4  0
  9 29  4  0
 10 12  4  0
 11 24  1  0
 11 26  4  0
 12 25  1  0
 13 28  1  0
 14 20  4  0
 14 23  4  0
 15 17  4  0
 15 21  4  0
 16 19  4  0
 16 23  4  0
 17 22  4  0
 18 26  4  0
 19 24  4  0
 20 24  4  0
 22 27  4  0
 28 29  4  0
M  END
$$$$

 Created by Python create_sdf_string function

 29 33  0  0  0  0  0  0  0  0999 V2000
   10.7215   -3.3326   17.6437 C   0  0  0  0  0  0  0  0  0  0  0  0
    9.9489   -3.4675   24.6487 N   0  0  0  0  0  0  0  0  0  0  0  0
   10.0172   -4.4740   17.4101 C   0  0  0  0  0  0  0  0  0  0  0  0
    6.9051   -7.9575   16.4222 C   0  0  0  0  0  0  0  0  0  0  0  0
    8.9969   -6.3552   17.9668 N   0  0  0  0  0  0  0  0  0  0  0  0
   10.6702   -3.9051   22.4070 C   0  0  0  0  0  0  0  0  0  0  0  0
   11.0625   -3.0028   18.8894 C   0  0  0  0  0  0  0  0  0  0  0  0
    5.6180   -7.9194   16.1754 O   0  0  0  0  0  0  0  0  0  0  0  0
    9.7259   -5.3080   18.4485 C   0  0  0  0  0  0  0  0  0  0  0  0
    9.4578   -5.0200   16.3036 N   0  0  0  0  0  0  0  0  0  0  0  0
    5.0287   -8.9365   16.8223 C   0  0  0  0  0  0  0  0  0  0  0  0
    8.7742   -6.1498   16.6764 C   0  0  0  0  0  0  0  0  0  0  0  0
   10.9418   -3.4032   21.2053 O   0  0  0  0  0  0  0  0  0  0  0  0
    1.4797   -8.6258   16.2950 C   0  0  0  0  0  0  0  0  0  0  0  0
    9.2861   -1.2743   25.3585 C   0  0  0  0  0  0  0  0  0  0  0  0
    1.8892  -10.3985   17.7511 N   0  0  0  0  0  0  0  0  0  0  0  0
    9.6210   -0.6952   24.0976 C   0  0  0  0  0  0  0  0  0  0  0  0
    7.0792   -9.0217   17.1429 C   0  0  0  0  0  0  0  0  0  0  0  0
    3.1713  -10.1816   17.6634 C   0  0  0  0  0  0  0  0  0  0  0  0
    2.7878   -8.3822   16.2137 C   0  0  0  0  0  0  0  0  0  0  0  0
    9.4601   -2.6590   25.6528 C   0  0  0  0  0  0  0  0  0  0  0  0
   10.1182   -1.5672   23.1165 C   0  0  0  0  0  0  0  0  0  0  0  0
    1.0552   -9.6360   17.0650 C   0  0  0  0  0  0  0  0  0  0  0  0
    3.6519   -9.1783   16.9039 C   0  0  0  0  0  0  0  0  0  0  0  0
    7.8675   -7.0096   15.9415 C   0  0  0  0  0  0  0  0  0  0  0  0
    5.9733   -9.6553   17.3832 N   0  0  0  0  0  0  0  0  0  0  0  0
   10.2411   -2.9363   23.4301 C   0  0  0  0  0  0  0  0  0  0  0  0
   10.7288   -3.8197   19.9525 C   0  0  0  0  0  0  0  0  0  0  0  0
   10.1189   -5.0054   19.6987 C   0  0  0  0  0  0  0  0  0  0  0  0
  1  3  4  0
  1  7  4  0
  2 21  4  0
  2 27  4  0
  3  9  4  0
  3 10  4  0
  4  8  4  0
  4 18  4  0
  4 25  1  0
  5  9  4  0
  5 12  4  0
  6 13  1  0
  6 27  1  0
  7 28  4  0
  8 11  4  0
  9 29  4  0
 10 12  4  0
 11 24  1  0
 11 26  4  0
 12 25  1  0
 13 28  1  0
 14 20  4  0
 14 23  4  0
 15 17  4  0
 15 21  4  0
 16 19  4  0
 16 23  4  0
 17 22  4  0
 18 26  4  0
 19 24  4  0
 20 24  4  0
 22 27  4  0
 28 29  4  0
M  END
$$$$

 Created by Python create_sdf_string function

 29 33  0  0  0  0  0  0  0  0999 V2000
   10.7215   -3.3326   17.6437 C   0  0  0  0  0  0  0  0  0  0  0  0
    9.9489   -3.4675   24.6487 N   0  0  0  0  0  0  0  0  0  0  0  0
   10.0172   -4.4740   17.4101 C   0  0  0  0  0  0  0  0  0  0  0  0
    6.9051   -7.9575   16.4222 C   0  0  0  0  0  0  0  0  0  0  0  0
    8.9969   -6.3552   17.9668 N   0  0  0  0  0  0  0  0  0  0  0  0
   10.6702   -3.9051   22.4070 C   0  0  0  0  0  0  0  0  0  0  0  0
   11.0625   -3.0028   18.8894 C   0  0  0  0  0  0  0  0  0  0  0  0
    5.6180   -7.9194   16.1754 O   0  0  0  0  0  0  0  0  0  0  0  0
    9.7259   -5.3080   18.4485 C   0  0  0  0  0  0  0  0  0  0  0  0
    9.4578   -5.0200   16.3036 N   0  0  0  0  0  0  0  0  0  0  0  0
    5.0287   -8.9365   16.8223 C   0  0  0  0  0  0  0  0  0  0  0  0
    8.7742   -6.1498   16.6764 C   0  0  0  0  0  0  0  0  0  0  0  0
   10.9418   -3.4032   21.2053 O   0  0  0  0  0  0  0  0  0  0  0  0
    1.4797   -8.6258   16.2950 C   0  0  0  0  0  0  0  0  0  0  0  0
    9.2861   -1.2743   25.3585 C   0  0  0  0  0  0  0  0  0  0  0  0
    1.8892  -10.3985   17.7511 N   0  0  0  0  0  0  0  0  0  0  0  0
    9.6210   -0.6952   24.0976 C   0  0  0  0  0  0  0  0  0  0  0  0
    7.0792   -9.0217   17.1429 C   0  0  0  0  0  0  0  0  0  0  0  0
    3.1713  -10.1816   17.6634 C   0  0  0  0  0  0  0  0  0  0  0  0
    2.7878   -8.3822   16.2137 C   0  0  0  0  0  0  0  0  0  0  0  0
    9.4601   -2.6590   25.6528 C   0  0  0  0  0  0  0  0  0  0  0  0
   10.1182   -1.5672   23.1165 C   0  0  0  0  0  0  0  0  0  0  0  0
    1.0552   -9.6360   17.0650 C   0  0  0  0  0  0  0  0  0  0  0  0
    3.6519   -9.1783   16.9039 C   0  0  0  0  0  0  0  0  0  0  0  0
    7.8675   -7.0096   15.9415 C   0  0  0  0  0  0  0  0  0  0  0  0
    5.9733   -9.6553   17.3832 N   0  0  0  0  0  0  0  0  0  0  0  0
   10.2411   -2.9363   23.4301 C   0  0  0  0  0  0  0  0  0  0  0  0
   10.7288   -3.8197   19.9525 C   0  0  0  0  0  0  0  0  0  0  0  0
   10.1189   -5.0054   19.6987 C   0  0  0  0  0  0  0  0  0  0  0  0
  1  3  4  0
  1  7  4  0
  2 21  4  0
  2 27  4  0
  3  9  4  0
  3 10  4  0
  4  8  4  0
  4 18  4  0
  4 25  1  0
  5  9  4  0
  5 12  4  0
  6 13  1  0
  6 27  1  0
  7 28  4  0
  8 11  4  0
  9 29  4  0
 10 12  4  0
 11 24  1  0
 11 26  4  0
 12 25  1  0
 13 28  1  0
 14 20  4  0
 14 23  4  0
 15 17  4  0
 15 21  4  0
 16 19  4  0
 16 23  4  0
 17 22  4  0
 18 26  4  0
 19 24  4  0
 20 24  4  0
 22 27  4  0
 28 29  4  0
M  END
$$$$

 Created by Python create_sdf_string function

 29 33  0  0  0  0  0  0  0  0999 V2000
   10.7215   -3.3326   17.6437 C   0  0  0  0  0  0  0  0  0  0  0  0
    9.9489   -3.4675   24.6487 N   0  0  0  0  0  0  0  0  0  0  0  0
   10.0172   -4.4740   17.4101 C   0  0  0  0  0  0  0  0  0  0  0  0
    6.9051   -7.9575   16.4222 C   0  0  0  0  0  0  0  0  0  0  0  0
    8.9969   -6.3552   17.9668 N   0  0  0  0  0  0  0  0  0  0  0  0
   10.6702   -3.9051   22.4070 C   0  0  0  0  0  0  0  0  0  0  0  0
   11.0625   -3.0028   18.8894 C   0  0  0  0  0  0  0  0  0  0  0  0
    5.6180   -7.9194   16.1754 O   0  0  0  0  0  0  0  0  0  0  0  0
    9.7259   -5.3080   18.4485 C   0  0  0  0  0  0  0  0  0  0  0  0
    9.4578   -5.0200   16.3036 N   0  0  0  0  0  0  0  0  0  0  0  0
    5.0287   -8.9365   16.8223 C   0  0  0  0  0  0  0  0  0  0  0  0
    8.7742   -6.1498   16.6764 C   0  0  0  0  0  0  0  0  0  0  0  0
   10.9418   -3.4032   21.2053 O   0  0  0  0  0  0  0  0  0  0  0  0
    1.4797   -8.6258   16.2950 C   0  0  0  0  0  0  0  0  0  0  0  0
    9.2861   -1.2743   25.3585 C   0  0  0  0  0  0  0  0  0  0  0  0
    1.8892  -10.3985   17.7511 N   0  0  0  0  0  0  0  0  0  0  0  0
    9.6210   -0.6952   24.0976 C   0  0  0  0  0  0  0  0  0  0  0  0
    7.0792   -9.0217   17.1429 C   0  0  0  0  0  0  0  0  0  0  0  0
    3.1713  -10.1816   17.6634 C   0  0  0  0  0  0  0  0  0  0  0  0
    2.7878   -8.3822   16.2137 C   0  0  0  0  0  0  0  0  0  0  0  0
    9.4601   -2.6590   25.6528 C   0  0  0  0  0  0  0  0  0  0  0  0
   10.1182   -1.5672   23.1165 C   0  0  0  0  0  0  0  0  0  0  0  0
    1.0552   -9.6360   17.0650 C   0  0  0  0  0  0  0  0  0  0  0  0
    3.6519   -9.1783   16.9039 C   0  0  0  0  0  0  0  0  0  0  0  0
    7.8675   -7.0096   15.9415 C   0  0  0  0  0  0  0  0  0  0  0  0
    5.9733   -9.6553   17.3832 N   0  0  0  0  0  0  0  0  0  0  0  0
   10.2411   -2.9363   23.4301 C   0  0  0  0  0  0  0  0  0  0  0  0
   10.7288   -3.8197   19.9525 C   0  0  0  0  0  0  0  0  0  0  0  0
   10.1189   -5.0054   19.6987 C   0  0  0  0  0  0  0  0  0  0  0  0
  1  3  4  0
  1  7  4  0
  2 21  4  0
  2 27  4  0
  3  9  4  0
  3 10  4  0
  4  8  4  0
  4 18  4  0
  4 25  1  0
  5  9  4  0
  5 12  4  0
  6 13  1  0
  6 27  1  0
  7 28  4  0
  8 11  4  0
  9 29  4  0
 10 12  4  0
 11 24  1  0
 11 26  4  0
 12 25  1  0
 13 28  1  0
 14 20  4  0
 14 23  4  0
 15 17  4  0
 15 21  4  0
 16 19  4  0
 16 23  4  0
 17 22  4  0
 18 26  4  0
 19 24  4  0
 20 24  4  0
 22 27  4  0
 28 29  4  0
M  END
$$$$

 Created by Python create_sdf_string function

 29 33  0  0  0  0  0  0  0  0999 V2000
   10.7215   -3.3326   17.6437 C   0  0  0  0  0  0  0  0  0  0  0  0
    9.9489   -3.4675   24.6487 N   0  0  0  0  0  0  0  0  0  0  0  0
   10.0172   -4.4740   17.4101 C   0  0  0  0  0  0  0  0  0  0  0  0
    6.9051   -7.9575   16.4222 C   0  0  0  0  0  0  0  0  0  0  0  0
    8.9969   -6.3552   17.9668 N   0  0  0  0  0  0  0  0  0  0  0  0
   10.6702   -3.9051   22.4070 C   0  0  0  0  0  0  0  0  0  0  0  0
   11.0625   -3.0028   18.8894 C   0  0  0  0  0  0  0  0  0  0  0  0
    5.6180   -7.9194   16.1754 O   0  0  0  0  0  0  0  0  0  0  0  0
    9.7259   -5.3080   18.4485 C   0  0  0  0  0  0  0  0  0  0  0  0
    9.4578   -5.0200   16.3036 N   0  0  0  0  0  0  0  0  0  0  0  0
    5.0287   -8.9365   16.8223 C   0  0  0  0  0  0  0  0  0  0  0  0
    8.7742   -6.1498   16.6764 C   0  0  0  0  0  0  0  0  0  0  0  0
   10.9418   -3.4032   21.2053 O   0  0  0  0  0  0  0  0  0  0  0  0
    1.4797   -8.6258   16.2950 C   0  0  0  0  0  0  0  0  0  0  0  0
    9.2861   -1.2743   25.3585 C   0  0  0  0  0  0  0  0  0  0  0  0
    1.8892  -10.3985   17.7511 N   0  0  0  0  0  0  0  0  0  0  0  0
    9.6210   -0.6952   24.0976 C   0  0  0  0  0  0  0  0  0  0  0  0
    7.0792   -9.0217   17.1429 C   0  0  0  0  0  0  0  0  0  0  0  0
    3.1713  -10.1816   17.6634 C   0  0  0  0  0  0  0  0  0  0  0  0
    2.7878   -8.3822   16.2137 C   0  0  0  0  0  0  0  0  0  0  0  0
    9.4601   -2.6590   25.6528 C   0  0  0  0  0  0  0  0  0  0  0  0
   10.1182   -1.5672   23.1165 C   0  0  0  0  0  0  0  0  0  0  0  0
    1.0552   -9.6360   17.0650 C   0  0  0  0  0  0  0  0  0  0  0  0
    3.6519   -9.1783   16.9039 C   0  0  0  0  0  0  0  0  0  0  0  0
    7.8675   -7.0096   15.9415 C   0  0  0  0  0  0  0  0  0  0  0  0
    5.9733   -9.6553   17.3832 N   0  0  0  0  0  0  0  0  0  0  0  0
   10.2411   -2.9363   23.4301 C   0  0  0  0  0  0  0  0  0  0  0  0
   10.7288   -3.8197   19.9525 C   0  0  0  0  0  0  0  0  0  0  0  0
   10.1189   -5.0054   19.6987 C   0  0  0  0  0  0  0  0  0  0  0  0
  1  3  4  0
  1  7  4  0
  2 21  4  0
  2 27  4  0
  3  9  4  0
  3 10  4  0
  4  8  4  0
  4 18  4  0
  4 25  1  0
  5  9  4  0
  5 12  4  0
  6 13  1  0
  6 27  1  0
  7 28  4  0
  8 11  4  0
  9 29  4  0
 10 12  4  0
 11 24  1  0
 11 26  4  0
 12 25  1  0
 13 28  1  0
 14 20  4  0
 14 23  4  0
 15 17  4  0
 15 21  4  0
 16 19  4  0
 16 23  4  0
 17 22  4  0
 18 26  4  0
 19 24  4  0
 20 24  4  0
 22 27  4  0
 28 29  4  0
M  END
$$$$

 Created by Python create_sdf_string function

 29 33  0  0  0  0  0  0  0  0999 V2000
   10.7215   -3.3326   17.6437 C   0  0  0  0  0  0  0  0  0  0  0  0
    9.9489   -3.4675   24.6487 N   0  0  0  0  0  0  0  0  0  0  0  0
   10.0172   -4.4740   17.4101 C   0  0  0  0  0  0  0  0  0  0  0  0
    6.9051   -7.9575   16.4222 C   0  0  0  0  0  0  0  0  0  0  0  0
    8.9969   -6.3552   17.9668 N   0  0  0  0  0  0  0  0  0  0  0  0
   10.6702   -3.9051   22.4070 C   0  0  0  0  0  0  0  0  0  0  0  0
   11.0625   -3.0028   18.8894 C   0  0  0  0  0  0  0  0  0  0  0  0
    5.6180   -7.9194   16.1754 O   0  0  0  0  0  0  0  0  0  0  0  0
    9.7259   -5.3080   18.4485 C   0  0  0  0  0  0  0  0  0  0  0  0
    9.4578   -5.0200   16.3036 N   0  0  0  0  0  0  0  0  0  0  0  0
    5.0287   -8.9365   16.8223 C   0  0  0  0  0  0  0  0  0  0  0  0
    8.7742   -6.1498   16.6764 C   0  0  0  0  0  0  0  0  0  0  0  0
   10.9418   -3.4032   21.2053 O   0  0  0  0  0  0  0  0  0  0  0  0
    1.4797   -8.6258   16.2950 C   0  0  0  0  0  0  0  0  0  0  0  0
    9.2861   -1.2743   25.3585 C   0  0  0  0  0  0  0  0  0  0  0  0
    1.8892  -10.3985   17.7511 N   0  0  0  0  0  0  0  0  0  0  0  0
    9.6210   -0.6952   24.0976 C   0  0  0  0  0  0  0  0  0  0  0  0
    7.0792   -9.0217   17.1429 C   0  0  0  0  0  0  0  0  0  0  0  0
    3.1713  -10.1816   17.6634 C   0  0  0  0  0  0  0  0  0  0  0  0
    2.7878   -8.3822   16.2137 C   0  0  0  0  0  0  0  0  0  0  0  0
    9.4601   -2.6590   25.6528 C   0  0  0  0  0  0  0  0  0  0  0  0
   10.1182   -1.5672   23.1165 C   0  0  0  0  0  0  0  0  0  0  0  0
    1.0552   -9.6360   17.0650 C   0  0  0  0  0  0  0  0  0  0  0  0
    3.6519   -9.1783   16.9039 C   0  0  0  0  0  0  0  0  0  0  0  0
    7.8675   -7.0096   15.9415 C   0  0  0  0  0  0  0  0  0  0  0  0
    5.9733   -9.6553   17.3832 N   0  0  0  0  0  0  0  0  0  0  0  0
   10.2411   -2.9363   23.4301 C   0  0  0  0  0  0  0  0  0  0  0  0
   10.7288   -3.8197   19.9525 C   0  0  0  0  0  0  0  0  0  0  0  0
   10.1189   -5.0054   19.6987 C   0  0  0  0  0  0  0  0  0  0  0  0
  1  3  4  0
  1  7  4  0
  2 21  4  0
  2 27  4  0
  3  9  4  0
  3 10  4  0
  4  8  4  0
  4 18  4  0
  4 25  1  0
  5  9  4  0
  5 12  4  0
  6 13  1  0
  6 27  1  0
  7 28  4  0
  8 11  4  0
  9 29  4  0
 10 12  4  0
 11 24  1  0
 11 26  4  0
 12 25  1  0
 13 28  1  0
 14 20  4  0
 14 23  4  0
 15 17  4  0
 15 21  4  0
 16 19  4  0
 16 23  4  0
 17 22  4  0
 18 26  4  0
 19 24  4  0
 20 24  4  0
 22 27  4  0
 28 29  4  0
M  END
$$$$

 Created by Python create_sdf_string function

 29 33  0  0  0  0  0  0  0  0999 V2000
   10.7215   -3.3326   17.6437 C   0  0  0  0  0  0  0  0  0  0  0  0
    9.9489   -3.4675   24.6487 N   0  0  0  0  0  0  0  0  0  0  0  0
   10.0172   -4.4740   17.4101 C   0  0  0  0  0  0  0  0  0  0  0  0
    6.9051   -7.9575   16.4222 C   0  0  0  0  0  0  0  0  0  0  0  0
    8.9969   -6.3552   17.9668 N   0  0  0  0  0  0  0  0  0  0  0  0
   10.6702   -3.9051   22.4070 C   0  0  0  0  0  0  0  0  0  0  0  0
   11.0625   -3.0028   18.8894 C   0  0  0  0  0  0  0  0  0  0  0  0
    5.6180   -7.9194   16.1754 O   0  0  0  0  0  0  0  0  0  0  0  0
    9.7259   -5.3080   18.4485 C   0  0  0  0  0  0  0  0  0  0  0  0
    9.4578   -5.0200   16.3036 N   0  0  0  0  0  0  0  0  0  0  0  0
    5.0287   -8.9365   16.8223 C   0  0  0  0  0  0  0  0  0  0  0  0
    8.7742   -6.1498   16.6764 C   0  0  0  0  0  0  0  0  0  0  0  0
   10.9418   -3.4032   21.2053 O   0  0  0  0  0  0  0  0  0  0  0  0
    1.4797   -8.6258   16.2950 C   0  0  0  0  0  0  0  0  0  0  0  0
    9.2861   -1.2743   25.3585 C   0  0  0  0  0  0  0  0  0  0  0  0
    1.8892  -10.3985   17.7511 N   0  0  0  0  0  0  0  0  0  0  0  0
    9.6210   -0.6952   24.0976 C   0  0  0  0  0  0  0  0  0  0  0  0
    7.0792   -9.0217   17.1429 C   0  0  0  0  0  0  0  0  0  0  0  0
    3.1713  -10.1816   17.6634 C   0  0  0  0  0  0  0  0  0  0  0  0
    2.7878   -8.3822   16.2137 C   0  0  0  0  0  0  0  0  0  0  0  0
    9.4601   -2.6590   25.6528 C   0  0  0  0  0  0  0  0  0  0  0  0
   10.1182   -1.5672   23.1165 C   0  0  0  0  0  0  0  0  0  0  0  0
    1.0552   -9.6360   17.0650 C   0  0  0  0  0  0  0  0  0  0  0  0
    3.6519   -9.1783   16.9039 C   0  0  0  0  0  0  0  0  0  0  0  0
    7.8675   -7.0096   15.9415 C   0  0  0  0  0  0  0  0  0  0  0  0
    5.9733   -9.6553   17.3832 N   0  0  0  0  0  0  0  0  0  0  0  0
   10.2411   -2.9363   23.4301 C   0  0  0  0  0  0  0  0  0  0  0  0
   10.7288   -3.8197   19.9525 C   0  0  0  0  0  0  0  0  0  0  0  0
   10.1189   -5.0054   19.6987 C   0  0  0  0  0  0  0  0  0  0  0  0
  1  3  4  0
  1  7  4  0
  2 21  4  0
  2 27  4  0
  3  9  4  0
  3 10  4  0
  4  8  4  0
  4 18  4  0
  4 25  1  0
  5  9  4  0
  5 12  4  0
  6 13  1  0
  6 27  1  0
  7 28  4  0
  8 11  4  0
  9 29  4  0
 10 12  4  0
 11 24  1  0
 11 26  4  0
 12 25  1  0
 13 28  1  0
 14 20  4  0
 14 23  4  0
 15 17  4  0
 15 21  4  0
 16 19  4  0
 16 23  4  0
 17 22  4  0
 18 26  4  0
 19 24  4  0
 20 24  4  0
 22 27  4  0
 28 29  4  0
M  END
$$$$

 Created by Python create_sdf_string function

 29 33  0  0  0  0  0  0  0  0999 V2000
   10.7215   -3.3326   17.6437 C   0  0  0  0  0  0  0  0  0  0  0  0
    9.9489   -3.4675   24.6487 N   0  0  0  0  0  0  0  0  0  0  0  0
   10.0172   -4.4740   17.4101 C   0  0  0  0  0  0  0  0  0  0  0  0
    6.9051   -7.9575   16.4222 C   0  0  0  0  0  0  0  0  0  0  0  0
    8.9969   -6.3552   17.9668 N   0  0  0  0  0  0  0  0  0  0  0  0
   10.6702   -3.9051   22.4070 C   0  0  0  0  0  0  0  0  0  0  0  0
   11.0625   -3.0028   18.8894 C   0  0  0  0  0  0  0  0  0  0  0  0
    5.6180   -7.9194   16.1754 O   0  0  0  0  0  0  0  0  0  0  0  0
    9.7259   -5.3080   18.4485 C   0  0  0  0  0  0  0  0  0  0  0  0
    9.4578   -5.0200   16.3036 N   0  0  0  0  0  0  0  0  0  0  0  0
    5.0287   -8.9365   16.8223 C   0  0  0  0  0  0  0  0  0  0  0  0
    8.7742   -6.1498   16.6764 C   0  0  0  0  0  0  0  0  0  0  0  0
   10.9418   -3.4032   21.2053 O   0  0  0  0  0  0  0  0  0  0  0  0
    1.4797   -8.6258   16.2950 C   0  0  0  0  0  0  0  0  0  0  0  0
    9.2861   -1.2743   25.3585 C   0  0  0  0  0  0  0  0  0  0  0  0
    1.8892  -10.3985   17.7511 N   0  0  0  0  0  0  0  0  0  0  0  0
    9.6210   -0.6952   24.0976 C   0  0  0  0  0  0  0  0  0  0  0  0
    7.0792   -9.0217   17.1429 C   0  0  0  0  0  0  0  0  0  0  0  0
    3.1713  -10.1816   17.6634 C   0  0  0  0  0  0  0  0  0  0  0  0
    2.7878   -8.3822   16.2137 C   0  0  0  0  0  0  0  0  0  0  0  0
    9.4601   -2.6590   25.6528 C   0  0  0  0  0  0  0  0  0  0  0  0
   10.1182   -1.5672   23.1165 C   0  0  0  0  0  0  0  0  0  0  0  0
    1.0552   -9.6360   17.0650 C   0  0  0  0  0  0  0  0  0  0  0  0
    3.6519   -9.1783   16.9039 C   0  0  0  0  0  0  0  0  0  0  0  0
    7.8675   -7.0096   15.9415 C   0  0  0  0  0  0  0  0  0  0  0  0
    5.9733   -9.6553   17.3832 N   0  0  0  0  0  0  0  0  0  0  0  0
   10.2411   -2.9363   23.4301 C   0  0  0  0  0  0  0  0  0  0  0  0
   10.7288   -3.8197   19.9525 C   0  0  0  0  0  0  0  0  0  0  0  0
   10.1189   -5.0054   19.6987 C   0  0  0  0  0  0  0  0  0  0  0  0
  1  3  4  0
  1  7  4  0
  2 21  4  0
  2 27  4  0
  3  9  4  0
  3 10  4  0
  4  8  4  0
  4 18  4  0
  4 25  1  0
  5  9  4  0
  5 12  4  0
  6 13  1  0
  6 27  1  0
  7 28  4  0
  8 11  4  0
  9 29  4  0
 10 12  4  0
 11 24  1  0
 11 26  4  0
 12 25  1  0
 13 28  1  0
 14 20  4  0
 14 23  4  0
 15 17  4  0
 15 21  4  0
 16 19  4  0
 16 23  4  0
 17 22  4  0
 18 26  4  0
 19 24  4  0
 20 24  4  0
 22 27  4  0
 28 29  4  0
M  END
$$$$

 Created by Python create_sdf_string function

 29 33  0  0  0  0  0  0  0  0999 V2000
   10.7215   -3.3326   17.6437 C   0  0  0  0  0  0  0  0  0  0  0  0
    9.9489   -3.4675   24.6487 N   0  0  0  0  0  0  0  0  0  0  0  0
   10.0172   -4.4740   17.4101 C   0  0  0  0  0  0  0  0  0  0  0  0
    6.9051   -7.9575   16.4222 C   0  0  0  0  0  0  0  0  0  0  0  0
    8.9969   -6.3552   17.9668 N   0  0  0  0  0  0  0  0  0  0  0  0
   10.6702   -3.9051   22.4070 C   0  0  0  0  0  0  0  0  0  0  0  0
   11.0625   -3.0028   18.8894 C   0  0  0  0  0  0  0  0  0  0  0  0
    5.6180   -7.9194   16.1754 O   0  0  0  0  0  0  0  0  0  0  0  0
    9.7259   -5.3080   18.4485 C   0  0  0  0  0  0  0  0  0  0  0  0
    9.4578   -5.0200   16.3036 N   0  0  0  0  0  0  0  0  0  0  0  0
    5.0287   -8.9365   16.8223 C   0  0  0  0  0  0  0  0  0  0  0  0
    8.7742   -6.1498   16.6764 C   0  0  0  0  0  0  0  0  0  0  0  0
   10.9418   -3.4032   21.2053 O   0  0  0  0  0  0  0  0  0  0  0  0
    1.4797   -8.6258   16.2950 C   0  0  0  0  0  0  0  0  0  0  0  0
    9.2861   -1.2743   25.3585 C   0  0  0  0  0  0  0  0  0  0  0  0
    1.8892  -10.3985   17.7511 N   0  0  0  0  0  0  0  0  0  0  0  0
    9.6210   -0.6952   24.0976 C   0  0  0  0  0  0  0  0  0  0  0  0
    7.0792   -9.0217   17.1429 C   0  0  0  0  0  0  0  0  0  0  0  0
    3.1713  -10.1816   17.6634 C   0  0  0  0  0  0  0  0  0  0  0  0
    2.7878   -8.3822   16.2137 C   0  0  0  0  0  0  0  0  0  0  0  0
    9.4601   -2.6590   25.6528 C   0  0  0  0  0  0  0  0  0  0  0  0
   10.1182   -1.5672   23.1165 C   0  0  0  0  0  0  0  0  0  0  0  0
    1.0552   -9.6360   17.0650 C   0  0  0  0  0  0  0  0  0  0  0  0
    3.6519   -9.1783   16.9039 C   0  0  0  0  0  0  0  0  0  0  0  0
    7.8675   -7.0096   15.9415 C   0  0  0  0  0  0  0  0  0  0  0  0
    5.9733   -9.6553   17.3832 N   0  0  0  0  0  0  0  0  0  0  0  0
   10.2411   -2.9363   23.4301 C   0  0  0  0  0  0  0  0  0  0  0  0
   10.7288   -3.8197   19.9525 C   0  0  0  0  0  0  0  0  0  0  0  0
   10.1189   -5.0054   19.6987 C   0  0  0  0  0  0  0  0  0  0  0  0
  1  3  4  0
  1  7  4  0
  2 21  4  0
  2 27  4  0
  3  9  4  0
  3 10  4  0
  4  8  4  0
  4 18  4  0
  4 25  1  0
  5  9  4  0
  5 12  4  0
  6 13  1  0
  6 27  1  0
  7 28  4  0
  8 11  4  0
  9 29  4  0
 10 12  4  0
 11 24  1  0
 11 26  4  0
 12 25  1  0
 13 28  1  0
 14 20  4  0
 14 23  4  0
 15 17  4  0
 15 21  4  0
 16 19  4  0
 16 23  4  0
 17 22  4  0
 18 26  4  0
 19 24  4  0
 20 24  4  0
 22 27  4  0
 28 29  4  0
M  END
$$$$

 Created by Python create_sdf_string function

 29 33  0  0  0  0  0  0  0  0999 V2000
   10.7215   -3.3326   17.6437 C   0  0  0  0  0  0  0  0  0  0  0  0
    9.9489   -3.4675   24.6487 N   0  0  0  0  0  0  0  0  0  0  0  0
   10.0172   -4.4740   17.4101 C   0  0  0  0  0  0  0  0  0  0  0  0
    6.9051   -7.9575   16.4222 C   0  0  0  0  0  0  0  0  0  0  0  0
    8.9969   -6.3552   17.9668 N   0  0  0  0  0  0  0  0  0  0  0  0
   10.6702   -3.9051   22.4070 C   0  0  0  0  0  0  0  0  0  0  0  0
   11.0625   -3.0028   18.8894 C   0  0  0  0  0  0  0  0  0  0  0  0
    5.6180   -7.9194   16.1754 O   0  0  0  0  0  0  0  0  0  0  0  0
    9.7259   -5.3080   18.4485 C   0  0  0  0  0  0  0  0  0  0  0  0
    9.4578   -5.0200   16.3036 N   0  0  0  0  0  0  0  0  0  0  0  0
    5.0287   -8.9365   16.8223 C   0  0  0  0  0  0  0  0  0  0  0  0
    8.7742   -6.1498   16.6764 C   0  0  0  0  0  0  0  0  0  0  0  0
   10.9418   -3.4032   21.2053 O   0  0  0  0  0  0  0  0  0  0  0  0
    1.4797   -8.6258   16.2950 C   0  0  0  0  0  0  0  0  0  0  0  0
    9.2861   -1.2743   25.3585 C   0  0  0  0  0  0  0  0  0  0  0  0
    1.8892  -10.3985   17.7511 N   0  0  0  0  0  0  0  0  0  0  0  0
    9.6210   -0.6952   24.0976 C   0  0  0  0  0  0  0  0  0  0  0  0
    7.0792   -9.0217   17.1429 C   0  0  0  0  0  0  0  0  0  0  0  0
    3.1713  -10.1816   17.6634 C   0  0  0  0  0  0  0  0  0  0  0  0
    2.7878   -8.3822   16.2137 C   0  0  0  0  0  0  0  0  0  0  0  0
    9.4601   -2.6590   25.6528 C   0  0  0  0  0  0  0  0  0  0  0  0
   10.1182   -1.5672   23.1165 C   0  0  0  0  0  0  0  0  0  0  0  0
    1.0552   -9.6360   17.0650 C   0  0  0  0  0  0  0  0  0  0  0  0
    3.6519   -9.1783   16.9039 C   0  0  0  0  0  0  0  0  0  0  0  0
    7.8675   -7.0096   15.9415 C   0  0  0  0  0  0  0  0  0  0  0  0
    5.9733   -9.6553   17.3832 N   0  0  0  0  0  0  0  0  0  0  0  0
   10.2411   -2.9363   23.4301 C   0  0  0  0  0  0  0  0  0  0  0  0
   10.7288   -3.8197   19.9525 C   0  0  0  0  0  0  0  0  0  0  0  0
   10.1189   -5.0054   19.6987 C   0  0  0  0  0  0  0  0  0  0  0  0
  1  3  4  0
  1  7  4  0
  2 21  4  0
  2 27  4  0
  3  9  4  0
  3 10  4  0
  4  8  4  0
  4 18  4  0
  4 25  1  0
  5  9  4  0
  5 12  4  0
  6 13  1  0
  6 27  1  0
  7 28  4  0
  8 11  4  0
  9 29  4  0
 10 12  4  0
 11 24  1  0
 11 26  4  0
 12 25  1  0
 13 28  1  0
 14 20  4  0
 14 23  4  0
 15 17  4  0
 15 21  4  0
 16 19  4  0
 16 23  4  0
 17 22  4  0
 18 26  4  0
 19 24  4  0
 20 24  4  0
 22 27  4  0
 28 29  4  0
M  END
$$$$

 Created by Python create_sdf_string function

 29 33  0  0  0  0  0  0  0  0999 V2000
   10.7215   -3.3326   17.6437 C   0  0  0  0  0  0  0  0  0  0  0  0
    9.9489   -3.4675   24.6487 N   0  0  0  0  0  0  0  0  0  0  0  0
   10.0172   -4.4740   17.4101 C   0  0  0  0  0  0  0  0  0  0  0  0
    6.9051   -7.9575   16.4222 C   0  0  0  0  0  0  0  0  0  0  0  0
    8.9969   -6.3552   17.9668 N   0  0  0  0  0  0  0  0  0  0  0  0
   10.6702   -3.9051   22.4070 C   0  0  0  0  0  0  0  0  0  0  0  0
   11.0625   -3.0028   18.8894 C   0  0  0  0  0  0  0  0  0  0  0  0
    5.6180   -7.9194   16.1754 O   0  0  0  0  0  0  0  0  0  0  0  0
    9.7259   -5.3080   18.4485 C   0  0  0  0  0  0  0  0  0  0  0  0
    9.4578   -5.0200   16.3036 N   0  0  0  0  0  0  0  0  0  0  0  0
    5.0287   -8.9365   16.8223 C   0  0  0  0  0  0  0  0  0  0  0  0
    8.7742   -6.1498   16.6764 C   0  0  0  0  0  0  0  0  0  0  0  0
   10.9418   -3.4032   21.2053 O   0  0  0  0  0  0  0  0  0  0  0  0
    1.4797   -8.6258   16.2950 C   0  0  0  0  0  0  0  0  0  0  0  0
    9.2861   -1.2743   25.3585 C   0  0  0  0  0  0  0  0  0  0  0  0
    1.8892  -10.3985   17.7511 N   0  0  0  0  0  0  0  0  0  0  0  0
    9.6210   -0.6952   24.0976 C   0  0  0  0  0  0  0  0  0  0  0  0
    7.0792   -9.0217   17.1429 C   0  0  0  0  0  0  0  0  0  0  0  0
    3.1713  -10.1816   17.6634 C   0  0  0  0  0  0  0  0  0  0  0  0
    2.7878   -8.3822   16.2137 C   0  0  0  0  0  0  0  0  0  0  0  0
    9.4601   -2.6590   25.6528 C   0  0  0  0  0  0  0  0  0  0  0  0
   10.1182   -1.5672   23.1165 C   0  0  0  0  0  0  0  0  0  0  0  0
    1.0552   -9.6360   17.0650 C   0  0  0  0  0  0  0  0  0  0  0  0
    3.6519   -9.1783   16.9039 C   0  0  0  0  0  0  0  0  0  0  0  0
    7.8675   -7.0096   15.9415 C   0  0  0  0  0  0  0  0  0  0  0  0
    5.9733   -9.6553   17.3832 N   0  0  0  0  0  0  0  0  0  0  0  0
   10.2411   -2.9363   23.4301 C   0  0  0  0  0  0  0  0  0  0  0  0
   10.7288   -3.8197   19.9525 C   0  0  0  0  0  0  0  0  0  0  0  0
   10.1189   -5.0054   19.6987 C   0  0  0  0  0  0  0  0  0  0  0  0
  1  3  4  0
  1  7  4  0
  2 21  4  0
  2 27  4  0
  3  9  4  0
  3 10  4  0
  4  8  4  0
  4 18  4  0
  4 25  1  0
  5  9  4  0
  5 12  4  0
  6 13  1  0
  6 27  1  0
  7 28  4  0
  8 11  4  0
  9 29  4  0
 10 12  4  0
 11 24  1  0
 11 26  4  0
 12 25  1  0
 13 28  1  0
 14 20  4  0
 14 23  4  0
 15 17  4  0
 15 21  4  0
 16 19  4  0
 16 23  4  0
 17 22  4  0
 18 26  4  0
 19 24  4  0
 20 24  4  0
 22 27  4  0
 28 29  4  0
M  END
$$$$

 Created by Python create_sdf_string function

 29 33  0  0  0  0  0  0  0  0999 V2000
   10.7215   -3.3326   17.6437 C   0  0  0  0  0  0  0  0  0  0  0  0
    9.9489   -3.4675   24.6487 N   0  0  0  0  0  0  0  0  0  0  0  0
   10.0172   -4.4740   17.4101 C   0  0  0  0  0  0  0  0  0  0  0  0
    6.9051   -7.9575   16.4222 C   0  0  0  0  0  0  0  0  0  0  0  0
    8.9969   -6.3552   17.9668 N   0  0  0  0  0  0  0  0  0  0  0  0
   10.6702   -3.9051   22.4070 C   0  0  0  0  0  0  0  0  0  0  0  0
   11.0625   -3.0028   18.8894 C   0  0  0  0  0  0  0  0  0  0  0  0
    5.6180   -7.9194   16.1754 O   0  0  0  0  0  0  0  0  0  0  0  0
    9.7259   -5.3080   18.4485 C   0  0  0  0  0  0  0  0  0  0  0  0
    9.4578   -5.0200   16.3036 N   0  0  0  0  0  0  0  0  0  0  0  0
    5.0287   -8.9365   16.8223 C   0  0  0  0  0  0  0  0  0  0  0  0
    8.7742   -6.1498   16.6764 C   0  0  0  0  0  0  0  0  0  0  0  0
   10.9418   -3.4032   21.2053 O   0  0  0  0  0  0  0  0  0  0  0  0
    1.4797   -8.6258   16.2950 C   0  0  0  0  0  0  0  0  0  0  0  0
    9.2861   -1.2743   25.3585 C   0  0  0  0  0  0  0  0  0  0  0  0
    1.8892  -10.3985   17.7511 N   0  0  0  0  0  0  0  0  0  0  0  0
    9.6210   -0.6952   24.0976 C   0  0  0  0  0  0  0  0  0  0  0  0
    7.0792   -9.0217   17.1429 C   0  0  0  0  0  0  0  0  0  0  0  0
    3.1713  -10.1816   17.6634 C   0  0  0  0  0  0  0  0  0  0  0  0
    2.7878   -8.3822   16.2137 C   0  0  0  0  0  0  0  0  0  0  0  0
    9.4601   -2.6590   25.6528 C   0  0  0  0  0  0  0  0  0  0  0  0
   10.1182   -1.5672   23.1165 C   0  0  0  0  0  0  0  0  0  0  0  0
    1.0552   -9.6360   17.0650 C   0  0  0  0  0  0  0  0  0  0  0  0
    3.6519   -9.1783   16.9039 C   0  0  0  0  0  0  0  0  0  0  0  0
    7.8675   -7.0096   15.9415 C   0  0  0  0  0  0  0  0  0  0  0  0
    5.9733   -9.6553   17.3832 N   0  0  0  0  0  0  0  0  0  0  0  0
   10.2411   -2.9363   23.4301 C   0  0  0  0  0  0  0  0  0  0  0  0
   10.7288   -3.8197   19.9525 C   0  0  0  0  0  0  0  0  0  0  0  0
   10.1189   -5.0054   19.6987 C   0  0  0  0  0  0  0  0  0  0  0  0
  1  3  4  0
  1  7  4  0
  2 21  4  0
  2 27  4  0
  3  9  4  0
  3 10  4  0
  4  8  4  0
  4 18  4  0
  4 25  1  0
  5  9  4  0
  5 12  4  0
  6 13  1  0
  6 27  1  0
  7 28  4  0
  8 11  4  0
  9 29  4  0
 10 12  4  0
 11 24  1  0
 11 26  4  0
 12 25  1  0
 13 28  1  0
 14 20  4  0
 14 23  4  0
 15 17  4  0
 15 21  4  0
 16 19  4  0
 16 23  4  0
 17 22  4  0
 18 26  4  0
 19 24  4  0
 20 24  4  0
 22 27  4  0
 28 29  4  0
M  END
$$$$

 Created by Python create_sdf_string function

 29 33  0  0  0  0  0  0  0  0999 V2000
   10.7215   -3.3326   17.6437 C   0  0  0  0  0  0  0  0  0  0  0  0
    9.9489   -3.4675   24.6487 N   0  0  0  0  0  0  0  0  0  0  0  0
   10.0172   -4.4740   17.4101 C   0  0  0  0  0  0  0  0  0  0  0  0
    6.9051   -7.9575   16.4222 C   0  0  0  0  0  0  0  0  0  0  0  0
    8.9969   -6.3552   17.9668 N   0  0  0  0  0  0  0  0  0  0  0  0
   10.6702   -3.9051   22.4070 C   0  0  0  0  0  0  0  0  0  0  0  0
   11.0625   -3.0028   18.8894 C   0  0  0  0  0  0  0  0  0  0  0  0
    5.6180   -7.9194   16.1754 O   0  0  0  0  0  0  0  0  0  0  0  0
    9.7259   -5.3080   18.4485 C   0  0  0  0  0  0  0  0  0  0  0  0
    9.4578   -5.0200   16.3036 N   0  0  0  0  0  0  0  0  0  0  0  0
    5.0287   -8.9365   16.8223 C   0  0  0  0  0  0  0  0  0  0  0  0
    8.7742   -6.1498   16.6764 C   0  0  0  0  0  0  0  0  0  0  0  0
   10.9418   -3.4032   21.2053 O   0  0  0  0  0  0  0  0  0  0  0  0
    1.4797   -8.6258   16.2950 C   0  0  0  0  0  0  0  0  0  0  0  0
    9.2861   -1.2743   25.3585 C   0  0  0  0  0  0  0  0  0  0  0  0
    1.8892  -10.3985   17.7511 N   0  0  0  0  0  0  0  0  0  0  0  0
    9.6210   -0.6952   24.0976 C   0  0  0  0  0  0  0  0  0  0  0  0
    7.0792   -9.0217   17.1429 C   0  0  0  0  0  0  0  0  0  0  0  0
    3.1713  -10.1816   17.6634 C   0  0  0  0  0  0  0  0  0  0  0  0
    2.7878   -8.3822   16.2137 C   0  0  0  0  0  0  0  0  0  0  0  0
    9.4601   -2.6590   25.6528 C   0  0  0  0  0  0  0  0  0  0  0  0
   10.1182   -1.5672   23.1165 C   0  0  0  0  0  0  0  0  0  0  0  0
    1.0552   -9.6360   17.0650 C   0  0  0  0  0  0  0  0  0  0  0  0
    3.6519   -9.1783   16.9039 C   0  0  0  0  0  0  0  0  0  0  0  0
    7.8675   -7.0096   15.9415 C   0  0  0  0  0  0  0  0  0  0  0  0
    5.9733   -9.6553   17.3832 N   0  0  0  0  0  0  0  0  0  0  0  0
   10.2411   -2.9363   23.4301 C   0  0  0  0  0  0  0  0  0  0  0  0
   10.7288   -3.8197   19.9525 C   0  0  0  0  0  0  0  0  0  0  0  0
   10.1189   -5.0054   19.6987 C   0  0  0  0  0  0  0  0  0  0  0  0
  1  3  4  0
  1  7  4  0
  2 21  4  0
  2 27  4  0
  3  9  4  0
  3 10  4  0
  4  8  4  0
  4 18  4  0
  4 25  1  0
  5  9  4  0
  5 12  4  0
  6 13  1  0
  6 27  1  0
  7 28  4  0
  8 11  4  0
  9 29  4  0
 10 12  4  0
 11 24  1  0
 11 26  4  0
 12 25  1  0
 13 28  1  0
 14 20  4  0
 14 23  4  0
 15 17  4  0
 15 21  4  0
 16 19  4  0
 16 23  4  0
 17 22  4  0
 18 26  4  0
 19 24  4  0
 20 24  4  0
 22 27  4  0
 28 29  4  0
M  END
$$$$

 Created by Python create_sdf_string function

 29 33  0  0  0  0  0  0  0  0999 V2000
   10.7215   -3.3326   17.6437 C   0  0  0  0  0  0  0  0  0  0  0  0
    9.9489   -3.4675   24.6487 N   0  0  0  0  0  0  0  0  0  0  0  0
   10.0172   -4.4740   17.4101 C   0  0  0  0  0  0  0  0  0  0  0  0
    6.9051   -7.9575   16.4222 C   0  0  0  0  0  0  0  0  0  0  0  0
    8.9969   -6.3552   17.9668 N   0  0  0  0  0  0  0  0  0  0  0  0
   10.6702   -3.9051   22.4070 C   0  0  0  0  0  0  0  0  0  0  0  0
   11.0625   -3.0028   18.8894 C   0  0  0  0  0  0  0  0  0  0  0  0
    5.6180   -7.9194   16.1754 O   0  0  0  0  0  0  0  0  0  0  0  0
    9.7259   -5.3080   18.4485 C   0  0  0  0  0  0  0  0  0  0  0  0
    9.4578   -5.0200   16.3036 N   0  0  0  0  0  0  0  0  0  0  0  0
    5.0287   -8.9365   16.8223 C   0  0  0  0  0  0  0  0  0  0  0  0
    8.7742   -6.1498   16.6764 C   0  0  0  0  0  0  0  0  0  0  0  0
   10.9418   -3.4032   21.2053 O   0  0  0  0  0  0  0  0  0  0  0  0
    1.4797   -8.6258   16.2950 C   0  0  0  0  0  0  0  0  0  0  0  0
    9.2861   -1.2743   25.3585 C   0  0  0  0  0  0  0  0  0  0  0  0
    1.8892  -10.3985   17.7511 N   0  0  0  0  0  0  0  0  0  0  0  0
    9.6210   -0.6952   24.0976 C   0  0  0  0  0  0  0  0  0  0  0  0
    7.0792   -9.0217   17.1429 C   0  0  0  0  0  0  0  0  0  0  0  0
    3.1713  -10.1816   17.6634 C   0  0  0  0  0  0  0  0  0  0  0  0
    2.7878   -8.3822   16.2137 C   0  0  0  0  0  0  0  0  0  0  0  0
    9.4601   -2.6590   25.6528 C   0  0  0  0  0  0  0  0  0  0  0  0
   10.1182   -1.5672   23.1165 C   0  0  0  0  0  0  0  0  0  0  0  0
    1.0552   -9.6360   17.0650 C   0  0  0  0  0  0  0  0  0  0  0  0
    3.6519   -9.1783   16.9039 C   0  0  0  0  0  0  0  0  0  0  0  0
    7.8675   -7.0096   15.9415 C   0  0  0  0  0  0  0  0  0  0  0  0
    5.9733   -9.6553   17.3832 N   0  0  0  0  0  0  0  0  0  0  0  0
   10.2411   -2.9363   23.4301 C   0  0  0  0  0  0  0  0  0  0  0  0
   10.7288   -3.8197   19.9525 C   0  0  0  0  0  0  0  0  0  0  0  0
   10.1189   -5.0054   19.6987 C   0  0  0  0  0  0  0  0  0  0  0  0
  1  3  4  0
  1  7  4  0
  2 21  4  0
  2 27  4  0
  3  9  4  0
  3 10  4  0
  4  8  4  0
  4 18  4  0
  4 25  1  0
  5  9  4  0
  5 12  4  0
  6 13  1  0
  6 27  1  0
  7 28  4  0
  8 11  4  0
  9 29  4  0
 10 12  4  0
 11 24  1  0
 11 26  4  0
 12 25  1  0
 13 28  1  0
 14 20  4  0
 14 23  4  0
 15 17  4  0
 15 21  4  0
 16 19  4  0
 16 23  4  0
 17 22  4  0
 18 26  4  0
 19 24  4  0
 20 24  4  0
 22 27  4  0
 28 29  4  0
M  END
$$$$

 Created by Python create_sdf_string function

 29 33  0  0  0  0  0  0  0  0999 V2000
   10.7215   -3.3326   17.6437 C   0  0  0  0  0  0  0  0  0  0  0  0
    9.9489   -3.4675   24.6487 N   0  0  0  0  0  0  0  0  0  0  0  0
   10.0172   -4.4740   17.4101 C   0  0  0  0  0  0  0  0  0  0  0  0
    6.9051   -7.9575   16.4222 C   0  0  0  0  0  0  0  0  0  0  0  0
    8.9969   -6.3552   17.9668 N   0  0  0  0  0  0  0  0  0  0  0  0
   10.6702   -3.9051   22.4070 C   0  0  0  0  0  0  0  0  0  0  0  0
   11.0625   -3.0028   18.8894 C   0  0  0  0  0  0  0  0  0  0  0  0
    5.6180   -7.9194   16.1754 O   0  0  0  0  0  0  0  0  0  0  0  0
    9.7259   -5.3080   18.4485 C   0  0  0  0  0  0  0  0  0  0  0  0
    9.4578   -5.0200   16.3036 N   0  0  0  0  0  0  0  0  0  0  0  0
    5.0287   -8.9365   16.8223 C   0  0  0  0  0  0  0  0  0  0  0  0
    8.7742   -6.1498   16.6764 C   0  0  0  0  0  0  0  0  0  0  0  0
   10.9418   -3.4032   21.2053 O   0  0  0  0  0  0  0  0  0  0  0  0
    1.4797   -8.6258   16.2950 C   0  0  0  0  0  0  0  0  0  0  0  0
    9.2861   -1.2743   25.3585 C   0  0  0  0  0  0  0  0  0  0  0  0
    1.8892  -10.3985   17.7511 N   0  0  0  0  0  0  0  0  0  0  0  0
    9.6210   -0.6952   24.0976 C   0  0  0  0  0  0  0  0  0  0  0  0
    7.0792   -9.0217   17.1429 C   0  0  0  0  0  0  0  0  0  0  0  0
    3.1713  -10.1816   17.6634 C   0  0  0  0  0  0  0  0  0  0  0  0
    2.7878   -8.3822   16.2137 C   0  0  0  0  0  0  0  0  0  0  0  0
    9.4601   -2.6590   25.6528 C   0  0  0  0  0  0  0  0  0  0  0  0
   10.1182   -1.5672   23.1165 C   0  0  0  0  0  0  0  0  0  0  0  0
    1.0552   -9.6360   17.0650 C   0  0  0  0  0  0  0  0  0  0  0  0
    3.6519   -9.1783   16.9039 C   0  0  0  0  0  0  0  0  0  0  0  0
    7.8675   -7.0096   15.9415 C   0  0  0  0  0  0  0  0  0  0  0  0
    5.9733   -9.6553   17.3832 N   0  0  0  0  0  0  0  0  0  0  0  0
   10.2411   -2.9363   23.4301 C   0  0  0  0  0  0  0  0  0  0  0  0
   10.7288   -3.8197   19.9525 C   0  0  0  0  0  0  0  0  0  0  0  0
   10.1189   -5.0054   19.6987 C   0  0  0  0  0  0  0  0  0  0  0  0
  1  3  4  0
  1  7  4  0
  2 21  4  0
  2 27  4  0
  3  9  4  0
  3 10  4  0
  4  8  4  0
  4 18  4  0
  4 25  1  0
  5  9  4  0
  5 12  4  0
  6 13  1  0
  6 27  1  0
  7 28  4  0
  8 11  4  0
  9 29  4  0
 10 12  4  0
 11 24  1  0
 11 26  4  0
 12 25  1  0
 13 28  1  0
 14 20  4  0
 14 23  4  0
 15 17  4  0
 15 21  4  0
 16 19  4  0
 16 23  4  0
 17 22  4  0
 18 26  4  0
 19 24  4  0
 20 24  4  0
 22 27  4  0
 28 29  4  0
M  END
$$$$

 Created by Python create_sdf_string function

 29 33  0  0  0  0  0  0  0  0999 V2000
   10.7215   -3.3326   17.6437 C   0  0  0  0  0  0  0  0  0  0  0  0
    9.9489   -3.4675   24.6487 N   0  0  0  0  0  0  0  0  0  0  0  0
   10.0172   -4.4740   17.4101 C   0  0  0  0  0  0  0  0  0  0  0  0
    6.9051   -7.9575   16.4222 C   0  0  0  0  0  0  0  0  0  0  0  0
    8.9969   -6.3552   17.9668 N   0  0  0  0  0  0  0  0  0  0  0  0
   10.6702   -3.9051   22.4070 C   0  0  0  0  0  0  0  0  0  0  0  0
   11.0625   -3.0028   18.8894 C   0  0  0  0  0  0  0  0  0  0  0  0
    5.6180   -7.9194   16.1754 O   0  0  0  0  0  0  0  0  0  0  0  0
    9.7259   -5.3080   18.4485 C   0  0  0  0  0  0  0  0  0  0  0  0
    9.4578   -5.0200   16.3036 N   0  0  0  0  0  0  0  0  0  0  0  0
    5.0287   -8.9365   16.8223 C   0  0  0  0  0  0  0  0  0  0  0  0
    8.7742   -6.1498   16.6764 C   0  0  0  0  0  0  0  0  0  0  0  0
   10.9418   -3.4032   21.2053 O   0  0  0  0  0  0  0  0  0  0  0  0
    1.4797   -8.6258   16.2950 C   0  0  0  0  0  0  0  0  0  0  0  0
    9.2861   -1.2743   25.3585 C   0  0  0  0  0  0  0  0  0  0  0  0
    1.8892  -10.3985   17.7511 N   0  0  0  0  0  0  0  0  0  0  0  0
    9.6210   -0.6952   24.0976 C   0  0  0  0  0  0  0  0  0  0  0  0
    7.0792   -9.0217   17.1429 C   0  0  0  0  0  0  0  0  0  0  0  0
    3.1713  -10.1816   17.6634 C   0  0  0  0  0  0  0  0  0  0  0  0
    2.7878   -8.3822   16.2137 C   0  0  0  0  0  0  0  0  0  0  0  0
    9.4601   -2.6590   25.6528 C   0  0  0  0  0  0  0  0  0  0  0  0
   10.1182   -1.5672   23.1165 C   0  0  0  0  0  0  0  0  0  0  0  0
    1.0552   -9.6360   17.0650 C   0  0  0  0  0  0  0  0  0  0  0  0
    3.6519   -9.1783   16.9039 C   0  0  0  0  0  0  0  0  0  0  0  0
    7.8675   -7.0096   15.9415 C   0  0  0  0  0  0  0  0  0  0  0  0
    5.9733   -9.6553   17.3832 N   0  0  0  0  0  0  0  0  0  0  0  0
   10.2411   -2.9363   23.4301 C   0  0  0  0  0  0  0  0  0  0  0  0
   10.7288   -3.8197   19.9525 C   0  0  0  0  0  0  0  0  0  0  0  0
   10.1189   -5.0054   19.6987 C   0  0  0  0  0  0  0  0  0  0  0  0
  1  3  4  0
  1  7  4  0
  2 21  4  0
  2 27  4  0
  3  9  4  0
  3 10  4  0
  4  8  4  0
  4 18  4  0
  4 25  1  0
  5  9  4  0
  5 12  4  0
  6 13  1  0
  6 27  1  0
  7 28  4  0
  8 11  4  0
  9 29  4  0
 10 12  4  0
 11 24  1  0
 11 26  4  0
 12 25  1  0
 13 28  1  0
 14 20  4  0
 14 23  4  0
 15 17  4  0
 15 21  4  0
 16 19  4  0
 16 23  4  0
 17 22  4  0
 18 26  4  0
 19 24  4  0
 20 24  4  0
 22 27  4  0
 28 29  4  0
M  END
$$$$

 Created by Python create_sdf_string function

 29 33  0  0  0  0  0  0  0  0999 V2000
   10.7215   -3.3326   17.6437 C   0  0  0  0  0  0  0  0  0  0  0  0
    9.9489   -3.4675   24.6487 N   0  0  0  0  0  0  0  0  0  0  0  0
   10.0172   -4.4740   17.4101 C   0  0  0  0  0  0  0  0  0  0  0  0
    6.9051   -7.9575   16.4222 C   0  0  0  0  0  0  0  0  0  0  0  0
    8.9969   -6.3552   17.9668 N   0  0  0  0  0  0  0  0  0  0  0  0
   10.6702   -3.9051   22.4070 C   0  0  0  0  0  0  0  0  0  0  0  0
   11.0625   -3.0028   18.8894 C   0  0  0  0  0  0  0  0  0  0  0  0
    5.6180   -7.9194   16.1754 O   0  0  0  0  0  0  0  0  0  0  0  0
    9.7259   -5.3080   18.4485 C   0  0  0  0  0  0  0  0  0  0  0  0
    9.4578   -5.0200   16.3036 N   0  0  0  0  0  0  0  0  0  0  0  0
    5.0287   -8.9365   16.8223 C   0  0  0  0  0  0  0  0  0  0  0  0
    8.7742   -6.1498   16.6764 C   0  0  0  0  0  0  0  0  0  0  0  0
   10.9418   -3.4032   21.2053 O   0  0  0  0  0  0  0  0  0  0  0  0
    1.4797   -8.6258   16.2950 C   0  0  0  0  0  0  0  0  0  0  0  0
    9.2861   -1.2743   25.3585 C   0  0  0  0  0  0  0  0  0  0  0  0
    1.8892  -10.3985   17.7511 N   0  0  0  0  0  0  0  0  0  0  0  0
    9.6210   -0.6952   24.0976 C   0  0  0  0  0  0  0  0  0  0  0  0
    7.0792   -9.0217   17.1429 C   0  0  0  0  0  0  0  0  0  0  0  0
    3.1713  -10.1816   17.6634 C   0  0  0  0  0  0  0  0  0  0  0  0
    2.7878   -8.3822   16.2137 C   0  0  0  0  0  0  0  0  0  0  0  0
    9.4601   -2.6590   25.6528 C   0  0  0  0  0  0  0  0  0  0  0  0
   10.1182   -1.5672   23.1165 C   0  0  0  0  0  0  0  0  0  0  0  0
    1.0552   -9.6360   17.0650 C   0  0  0  0  0  0  0  0  0  0  0  0
    3.6519   -9.1783   16.9039 C   0  0  0  0  0  0  0  0  0  0  0  0
    7.8675   -7.0096   15.9415 C   0  0  0  0  0  0  0  0  0  0  0  0
    5.9733   -9.6553   17.3832 N   0  0  0  0  0  0  0  0  0  0  0  0
   10.2411   -2.9363   23.4301 C   0  0  0  0  0  0  0  0  0  0  0  0
   10.7288   -3.8197   19.9525 C   0  0  0  0  0  0  0  0  0  0  0  0
   10.1189   -5.0054   19.6987 C   0  0  0  0  0  0  0  0  0  0  0  0
  1  3  4  0
  1  7  4  0
  2 21  4  0
  2 27  4  0
  3  9  4  0
  3 10  4  0
  4  8  4  0
  4 18  4  0
  4 25  1  0
  5  9  4  0
  5 12  4  0
  6 13  1  0
  6 27  1  0
  7 28  4  0
  8 11  4  0
  9 29  4  0
 10 12  4  0
 11 24  1  0
 11 26  4  0
 12 25  1  0
 13 28  1  0
 14 20  4  0
 14 23  4  0
 15 17  4  0
 15 21  4  0
 16 19  4  0
 16 23  4  0
 17 22  4  0
 18 26  4  0
 19 24  4  0
 20 24  4  0
 22 27  4  0
 28 29  4  0
M  END
$$$$

 Created by Python create_sdf_string function

 29 33  0  0  0  0  0  0  0  0999 V2000
   10.7215   -3.3326   17.6437 C   0  0  0  0  0  0  0  0  0  0  0  0
    9.9489   -3.4675   24.6487 N   0  0  0  0  0  0  0  0  0  0  0  0
   10.0172   -4.4740   17.4101 C   0  0  0  0  0  0  0  0  0  0  0  0
    6.9051   -7.9575   16.4222 C   0  0  0  0  0  0  0  0  0  0  0  0
    8.9969   -6.3552   17.9668 N   0  0  0  0  0  0  0  0  0  0  0  0
   10.6702   -3.9051   22.4070 C   0  0  0  0  0  0  0  0  0  0  0  0
   11.0625   -3.0028   18.8894 C   0  0  0  0  0  0  0  0  0  0  0  0
    5.6180   -7.9194   16.1754 O   0  0  0  0  0  0  0  0  0  0  0  0
    9.7259   -5.3080   18.4485 C   0  0  0  0  0  0  0  0  0  0  0  0
    9.4578   -5.0200   16.3036 N   0  0  0  0  0  0  0  0  0  0  0  0
    5.0287   -8.9365   16.8223 C   0  0  0  0  0  0  0  0  0  0  0  0
    8.7742   -6.1498   16.6764 C   0  0  0  0  0  0  0  0  0  0  0  0
   10.9418   -3.4032   21.2053 O   0  0  0  0  0  0  0  0  0  0  0  0
    1.4797   -8.6258   16.2950 C   0  0  0  0  0  0  0  0  0  0  0  0
    9.2861   -1.2743   25.3585 C   0  0  0  0  0  0  0  0  0  0  0  0
    1.8892  -10.3985   17.7511 N   0  0  0  0  0  0  0  0  0  0  0  0
    9.6210   -0.6952   24.0976 C   0  0  0  0  0  0  0  0  0  0  0  0
    7.0792   -9.0217   17.1429 C   0  0  0  0  0  0  0  0  0  0  0  0
    3.1713  -10.1816   17.6634 C   0  0  0  0  0  0  0  0  0  0  0  0
    2.7878   -8.3822   16.2137 C   0  0  0  0  0  0  0  0  0  0  0  0
    9.4601   -2.6590   25.6528 C   0  0  0  0  0  0  0  0  0  0  0  0
   10.1182   -1.5672   23.1165 C   0  0  0  0  0  0  0  0  0  0  0  0
    1.0552   -9.6360   17.0650 C   0  0  0  0  0  0  0  0  0  0  0  0
    3.6519   -9.1783   16.9039 C   0  0  0  0  0  0  0  0  0  0  0  0
    7.8675   -7.0096   15.9415 C   0  0  0  0  0  0  0  0  0  0  0  0
    5.9733   -9.6553   17.3832 N   0  0  0  0  0  0  0  0  0  0  0  0
   10.2411   -2.9363   23.4301 C   0  0  0  0  0  0  0  0  0  0  0  0
   10.7288   -3.8197   19.9525 C   0  0  0  0  0  0  0  0  0  0  0  0
   10.1189   -5.0054   19.6987 C   0  0  0  0  0  0  0  0  0  0  0  0
  1  3  4  0
  1  7  4  0
  2 21  4  0
  2 27  4  0
  3  9  4  0
  3 10  4  0
  4  8  4  0
  4 18  4  0
  4 25  1  0
  5  9  4  0
  5 12  4  0
  6 13  1  0
  6 27  1  0
  7 28  4  0
  8 11  4  0
  9 29  4  0
 10 12  4  0
 11 24  1  0
 11 26  4  0
 12 25  1  0
 13 28  1  0
 14 20  4  0
 14 23  4  0
 15 17  4  0
 15 21  4  0
 16 19  4  0
 16 23  4  0
 17 22  4  0
 18 26  4  0
 19 24  4  0
 20 24  4  0
 22 27  4  0
 28 29  4  0
M  END
$$$$

 Created by Python create_sdf_string function

 29 33  0  0  0  0  0  0  0  0999 V2000
   10.7215   -3.3326   17.6437 C   0  0  0  0  0  0  0  0  0  0  0  0
    9.9489   -3.4675   24.6487 N   0  0  0  0  0  0  0  0  0  0  0  0
   10.0172   -4.4740   17.4101 C   0  0  0  0  0  0  0  0  0  0  0  0
    6.9051   -7.9575   16.4222 C   0  0  0  0  0  0  0  0  0  0  0  0
    8.9969   -6.3552   17.9668 N   0  0  0  0  0  0  0  0  0  0  0  0
   10.6702   -3.9051   22.4070 C   0  0  0  0  0  0  0  0  0  0  0  0
   11.0625   -3.0028   18.8894 C   0  0  0  0  0  0  0  0  0  0  0  0
    5.6180   -7.9194   16.1754 O   0  0  0  0  0  0  0  0  0  0  0  0
    9.7259   -5.3080   18.4485 C   0  0  0  0  0  0  0  0  0  0  0  0
    9.4578   -5.0200   16.3036 N   0  0  0  0  0  0  0  0  0  0  0  0
    5.0287   -8.9365   16.8223 C   0  0  0  0  0  0  0  0  0  0  0  0
    8.7742   -6.1498   16.6764 C   0  0  0  0  0  0  0  0  0  0  0  0
   10.9418   -3.4032   21.2053 O   0  0  0  0  0  0  0  0  0  0  0  0
    1.4797   -8.6258   16.2950 C   0  0  0  0  0  0  0  0  0  0  0  0
    9.2861   -1.2743   25.3585 C   0  0  0  0  0  0  0  0  0  0  0  0
    1.8892  -10.3985   17.7511 N   0  0  0  0  0  0  0  0  0  0  0  0
    9.6210   -0.6952   24.0976 C   0  0  0  0  0  0  0  0  0  0  0  0
    7.0792   -9.0217   17.1429 C   0  0  0  0  0  0  0  0  0  0  0  0
    3.1713  -10.1816   17.6634 C   0  0  0  0  0  0  0  0  0  0  0  0
    2.7878   -8.3822   16.2137 C   0  0  0  0  0  0  0  0  0  0  0  0
    9.4601   -2.6590   25.6528 C   0  0  0  0  0  0  0  0  0  0  0  0
   10.1182   -1.5672   23.1165 C   0  0  0  0  0  0  0  0  0  0  0  0
    1.0552   -9.6360   17.0650 C   0  0  0  0  0  0  0  0  0  0  0  0
    3.6519   -9.1783   16.9039 C   0  0  0  0  0  0  0  0  0  0  0  0
    7.8675   -7.0096   15.9415 C   0  0  0  0  0  0  0  0  0  0  0  0
    5.9733   -9.6553   17.3832 N   0  0  0  0  0  0  0  0  0  0  0  0
   10.2411   -2.9363   23.4301 C   0  0  0  0  0  0  0  0  0  0  0  0
   10.7288   -3.8197   19.9525 C   0  0  0  0  0  0  0  0  0  0  0  0
   10.1189   -5.0054   19.6987 C   0  0  0  0  0  0  0  0  0  0  0  0
  1  3  4  0
  1  7  4  0
  2 21  4  0
  2 27  4  0
  3  9  4  0
  3 10  4  0
  4  8  4  0
  4 18  4  0
  4 25  1  0
  5  9  4  0
  5 12  4  0
  6 13  1  0
  6 27  1  0
  7 28  4  0
  8 11  4  0
  9 29  4  0
 10 12  4  0
 11 24  1  0
 11 26  4  0
 12 25  1  0
 13 28  1  0
 14 20  4  0
 14 23  4  0
 15 17  4  0
 15 21  4  0
 16 19  4  0
 16 23  4  0
 17 22  4  0
 18 26  4  0
 19 24  4  0
 20 24  4  0
 22 27  4  0
 28 29  4  0
M  END
$$$$

 Created by Python create_sdf_string function

 29 33  0  0  0  0  0  0  0  0999 V2000
   10.7215   -3.3326   17.6437 C   0  0  0  0  0  0  0  0  0  0  0  0
    9.9489   -3.4675   24.6487 N   0  0  0  0  0  0  0  0  0  0  0  0
   10.0172   -4.4740   17.4101 C   0  0  0  0  0  0  0  0  0  0  0  0
    6.9051   -7.9575   16.4222 C   0  0  0  0  0  0  0  0  0  0  0  0
    8.9969   -6.3552   17.9668 N   0  0  0  0  0  0  0  0  0  0  0  0
   10.6702   -3.9051   22.4070 C   0  0  0  0  0  0  0  0  0  0  0  0
   11.0625   -3.0028   18.8894 C   0  0  0  0  0  0  0  0  0  0  0  0
    5.6180   -7.9194   16.1754 O   0  0  0  0  0  0  0  0  0  0  0  0
    9.7259   -5.3080   18.4485 C   0  0  0  0  0  0  0  0  0  0  0  0
    9.4578   -5.0200   16.3036 N   0  0  0  0  0  0  0  0  0  0  0  0
    5.0287   -8.9365   16.8223 C   0  0  0  0  0  0  0  0  0  0  0  0
    8.7742   -6.1498   16.6764 C   0  0  0  0  0  0  0  0  0  0  0  0
   10.9418   -3.4032   21.2053 O   0  0  0  0  0  0  0  0  0  0  0  0
    1.4797   -8.6258   16.2950 C   0  0  0  0  0  0  0  0  0  0  0  0
    9.2861   -1.2743   25.3585 C   0  0  0  0  0  0  0  0  0  0  0  0
    1.8892  -10.3985   17.7511 N   0  0  0  0  0  0  0  0  0  0  0  0
    9.6210   -0.6952   24.0976 C   0  0  0  0  0  0  0  0  0  0  0  0
    7.0792   -9.0217   17.1429 C   0  0  0  0  0  0  0  0  0  0  0  0
    3.1713  -10.1816   17.6634 C   0  0  0  0  0  0  0  0  0  0  0  0
    2.7878   -8.3822   16.2137 C   0  0  0  0  0  0  0  0  0  0  0  0
    9.4601   -2.6590   25.6528 C   0  0  0  0  0  0  0  0  0  0  0  0
   10.1182   -1.5672   23.1165 C   0  0  0  0  0  0  0  0  0  0  0  0
    1.0552   -9.6360   17.0650 C   0  0  0  0  0  0  0  0  0  0  0  0
    3.6519   -9.1783   16.9039 C   0  0  0  0  0  0  0  0  0  0  0  0
    7.8675   -7.0096   15.9415 C   0  0  0  0  0  0  0  0  0  0  0  0
    5.9733   -9.6553   17.3832 N   0  0  0  0  0  0  0  0  0  0  0  0
   10.2411   -2.9363   23.4301 C   0  0  0  0  0  0  0  0  0  0  0  0
   10.7288   -3.8197   19.9525 C   0  0  0  0  0  0  0  0  0  0  0  0
   10.1189   -5.0054   19.6987 C   0  0  0  0  0  0  0  0  0  0  0  0
  1  3  4  0
  1  7  4  0
  2 21  4  0
  2 27  4  0
  3  9  4  0
  3 10  4  0
  4  8  4  0
  4 18  4  0
  4 25  1  0
  5  9  4  0
  5 12  4  0
  6 13  1  0
  6 27  1  0
  7 28  4  0
  8 11  4  0
  9 29  4  0
 10 12  4  0
 11 24  1  0
 11 26  4  0
 12 25  1  0
 13 28  1  0
 14 20  4  0
 14 23  4  0
 15 17  4  0
 15 21  4  0
 16 19  4  0
 16 23  4  0
 17 22  4  0
 18 26  4  0
 19 24  4  0
 20 24  4  0
 22 27  4  0
 28 29  4  0
M  END
$$$$

 Created by Python create_sdf_string function

 29 33  0  0  0  0  0  0  0  0999 V2000
   10.7215   -3.3326   17.6437 C   0  0  0  0  0  0  0  0  0  0  0  0
    9.9489   -3.4675   24.6487 N   0  0  0  0  0  0  0  0  0  0  0  0
   10.0172   -4.4740   17.4101 C   0  0  0  0  0  0  0  0  0  0  0  0
    6.9051   -7.9575   16.4222 C   0  0  0  0  0  0  0  0  0  0  0  0
    8.9969   -6.3552   17.9668 N   0  0  0  0  0  0  0  0  0  0  0  0
   10.6702   -3.9051   22.4070 C   0  0  0  0  0  0  0  0  0  0  0  0
   11.0625   -3.0028   18.8894 C   0  0  0  0  0  0  0  0  0  0  0  0
    5.6180   -7.9194   16.1754 O   0  0  0  0  0  0  0  0  0  0  0  0
    9.7259   -5.3080   18.4485 C   0  0  0  0  0  0  0  0  0  0  0  0
    9.4578   -5.0200   16.3036 N   0  0  0  0  0  0  0  0  0  0  0  0
    5.0287   -8.9365   16.8223 C   0  0  0  0  0  0  0  0  0  0  0  0
    8.7742   -6.1498   16.6764 C   0  0  0  0  0  0  0  0  0  0  0  0
   10.9418   -3.4032   21.2053 O   0  0  0  0  0  0  0  0  0  0  0  0
    1.4797   -8.6258   16.2950 C   0  0  0  0  0  0  0  0  0  0  0  0
    9.2861   -1.2743   25.3585 C   0  0  0  0  0  0  0  0  0  0  0  0
    1.8892  -10.3985   17.7511 N   0  0  0  0  0  0  0  0  0  0  0  0
    9.6210   -0.6952   24.0976 C   0  0  0  0  0  0  0  0  0  0  0  0
    7.0792   -9.0217   17.1429 C   0  0  0  0  0  0  0  0  0  0  0  0
    3.1713  -10.1816   17.6634 C   0  0  0  0  0  0  0  0  0  0  0  0
    2.7878   -8.3822   16.2137 C   0  0  0  0  0  0  0  0  0  0  0  0
    9.4601   -2.6590   25.6528 C   0  0  0  0  0  0  0  0  0  0  0  0
   10.1182   -1.5672   23.1165 C   0  0  0  0  0  0  0  0  0  0  0  0
    1.0552   -9.6360   17.0650 C   0  0  0  0  0  0  0  0  0  0  0  0
    3.6519   -9.1783   16.9039 C   0  0  0  0  0  0  0  0  0  0  0  0
    7.8675   -7.0096   15.9415 C   0  0  0  0  0  0  0  0  0  0  0  0
    5.9733   -9.6553   17.3832 N   0  0  0  0  0  0  0  0  0  0  0  0
   10.2411   -2.9363   23.4301 C   0  0  0  0  0  0  0  0  0  0  0  0
   10.7288   -3.8197   19.9525 C   0  0  0  0  0  0  0  0  0  0  0  0
   10.1189   -5.0054   19.6987 C   0  0  0  0  0  0  0  0  0  0  0  0
  1  3  4  0
  1  7  4  0
  2 21  4  0
  2 27  4  0
  3  9  4  0
  3 10  4  0
  4  8  4  0
  4 18  4  0
  4 25  1  0
  5  9  4  0
  5 12  4  0
  6 13  1  0
  6 27  1  0
  7 28  4  0
  8 11  4  0
  9 29  4  0
 10 12  4  0
 11 24  1  0
 11 26  4  0
 12 25  1  0
 13 28  1  0
 14 20  4  0
 14 23  4  0
 15 17  4  0
 15 21  4  0
 16 19  4  0
 16 23  4  0
 17 22  4  0
 18 26  4  0
 19 24  4  0
 20 24  4  0
 22 27  4  0
 28 29  4  0
M  END
$$$$

 Created by Python create_sdf_string function

 29 33  0  0  0  0  0  0  0  0999 V2000
   10.7215   -3.3326   17.6437 C   0  0  0  0  0  0  0  0  0  0  0  0
    9.9489   -3.4675   24.6487 N   0  0  0  0  0  0  0  0  0  0  0  0
   10.0172   -4.4740   17.4101 C   0  0  0  0  0  0  0  0  0  0  0  0
    6.9051   -7.9575   16.4222 C   0  0  0  0  0  0  0  0  0  0  0  0
    8.9969   -6.3552   17.9668 N   0  0  0  0  0  0  0  0  0  0  0  0
   10.6702   -3.9051   22.4070 C   0  0  0  0  0  0  0  0  0  0  0  0
   11.0625   -3.0028   18.8894 C   0  0  0  0  0  0  0  0  0  0  0  0
    5.6180   -7.9194   16.1754 O   0  0  0  0  0  0  0  0  0  0  0  0
    9.7259   -5.3080   18.4485 C   0  0  0  0  0  0  0  0  0  0  0  0
    9.4578   -5.0200   16.3036 N   0  0  0  0  0  0  0  0  0  0  0  0
    5.0287   -8.9365   16.8223 C   0  0  0  0  0  0  0  0  0  0  0  0
    8.7742   -6.1498   16.6764 C   0  0  0  0  0  0  0  0  0  0  0  0
   10.9418   -3.4032   21.2053 O   0  0  0  0  0  0  0  0  0  0  0  0
    1.4797   -8.6258   16.2950 C   0  0  0  0  0  0  0  0  0  0  0  0
    9.2861   -1.2743   25.3585 C   0  0  0  0  0  0  0  0  0  0  0  0
    1.8892  -10.3985   17.7511 N   0  0  0  0  0  0  0  0  0  0  0  0
    9.6210   -0.6952   24.0976 C   0  0  0  0  0  0  0  0  0  0  0  0
    7.0792   -9.0217   17.1429 C   0  0  0  0  0  0  0  0  0  0  0  0
    3.1713  -10.1816   17.6634 C   0  0  0  0  0  0  0  0  0  0  0  0
    2.7878   -8.3822   16.2137 C   0  0  0  0  0  0  0  0  0  0  0  0
    9.4601   -2.6590   25.6528 C   0  0  0  0  0  0  0  0  0  0  0  0
   10.1182   -1.5672   23.1165 C   0  0  0  0  0  0  0  0  0  0  0  0
    1.0552   -9.6360   17.0650 C   0  0  0  0  0  0  0  0  0  0  0  0
    3.6519   -9.1783   16.9039 C   0  0  0  0  0  0  0  0  0  0  0  0
    7.8675   -7.0096   15.9415 C   0  0  0  0  0  0  0  0  0  0  0  0
    5.9733   -9.6553   17.3832 N   0  0  0  0  0  0  0  0  0  0  0  0
   10.2411   -2.9363   23.4301 C   0  0  0  0  0  0  0  0  0  0  0  0
   10.7288   -3.8197   19.9525 C   0  0  0  0  0  0  0  0  0  0  0  0
   10.1189   -5.0054   19.6987 C   0  0  0  0  0  0  0  0  0  0  0  0
  1  3  4  0
  1  7  4  0
  2 21  4  0
  2 27  4  0
  3  9  4  0
  3 10  4  0
  4  8  4  0
  4 18  4  0
  4 25  1  0
  5  9  4  0
  5 12  4  0
  6 13  1  0
  6 27  1  0
  7 28  4  0
  8 11  4  0
  9 29  4  0
 10 12  4  0
 11 24  1  0
 11 26  4  0
 12 25  1  0
 13 28  1  0
 14 20  4  0
 14 23  4  0
 15 17  4  0
 15 21  4  0
 16 19  4  0
 16 23  4  0
 17 22  4  0
 18 26  4  0
 19 24  4  0
 20 24  4  0
 22 27  4  0
 28 29  4  0
M  END
$$$$

 Created by Python create_sdf_string function

 29 33  0  0  0  0  0  0  0  0999 V2000
   10.7215   -3.3326   17.6437 C   0  0  0  0  0  0  0  0  0  0  0  0
    9.9489   -3.4675   24.6487 N   0  0  0  0  0  0  0  0  0  0  0  0
   10.0172   -4.4740   17.4101 C   0  0  0  0  0  0  0  0  0  0  0  0
    6.9051   -7.9575   16.4222 C   0  0  0  0  0  0  0  0  0  0  0  0
    8.9969   -6.3552   17.9668 N   0  0  0  0  0  0  0  0  0  0  0  0
   10.6702   -3.9051   22.4070 C   0  0  0  0  0  0  0  0  0  0  0  0
   11.0625   -3.0028   18.8894 C   0  0  0  0  0  0  0  0  0  0  0  0
    5.6180   -7.9194   16.1754 O   0  0  0  0  0  0  0  0  0  0  0  0
    9.7259   -5.3080   18.4485 C   0  0  0  0  0  0  0  0  0  0  0  0
    9.4578   -5.0200   16.3036 N   0  0  0  0  0  0  0  0  0  0  0  0
    5.0287   -8.9365   16.8223 C   0  0  0  0  0  0  0  0  0  0  0  0
    8.7742   -6.1498   16.6764 C   0  0  0  0  0  0  0  0  0  0  0  0
   10.9418   -3.4032   21.2053 O   0  0  0  0  0  0  0  0  0  0  0  0
    1.4797   -8.6258   16.2950 C   0  0  0  0  0  0  0  0  0  0  0  0
    9.2861   -1.2743   25.3585 C   0  0  0  0  0  0  0  0  0  0  0  0
    1.8892  -10.3985   17.7511 N   0  0  0  0  0  0  0  0  0  0  0  0
    9.6210   -0.6952   24.0976 C   0  0  0  0  0  0  0  0  0  0  0  0
    7.0792   -9.0217   17.1429 C   0  0  0  0  0  0  0  0  0  0  0  0
    3.1713  -10.1816   17.6634 C   0  0  0  0  0  0  0  0  0  0  0  0
    2.7878   -8.3822   16.2137 C   0  0  0  0  0  0  0  0  0  0  0  0
    9.4601   -2.6590   25.6528 C   0  0  0  0  0  0  0  0  0  0  0  0
   10.1182   -1.5672   23.1165 C   0  0  0  0  0  0  0  0  0  0  0  0
    1.0552   -9.6360   17.0650 C   0  0  0  0  0  0  0  0  0  0  0  0
    3.6519   -9.1783   16.9039 C   0  0  0  0  0  0  0  0  0  0  0  0
    7.8675   -7.0096   15.9415 C   0  0  0  0  0  0  0  0  0  0  0  0
    5.9733   -9.6553   17.3832 N   0  0  0  0  0  0  0  0  0  0  0  0
   10.2411   -2.9363   23.4301 C   0  0  0  0  0  0  0  0  0  0  0  0
   10.7288   -3.8197   19.9525 C   0  0  0  0  0  0  0  0  0  0  0  0
   10.1189   -5.0054   19.6987 C   0  0  0  0  0  0  0  0  0  0  0  0
  1  3  4  0
  1  7  4  0
  2 21  4  0
  2 27  4  0
  3  9  4  0
  3 10  4  0
  4  8  4  0
  4 18  4  0
  4 25  1  0
  5  9  4  0
  5 12  4  0
  6 13  1  0
  6 27  1  0
  7 28  4  0
  8 11  4  0
  9 29  4  0
 10 12  4  0
 11 24  1  0
 11 26  4  0
 12 25  1  0
 13 28  1  0
 14 20  4  0
 14 23  4  0
 15 17  4  0
 15 21  4  0
 16 19  4  0
 16 23  4  0
 17 22  4  0
 18 26  4  0
 19 24  4  0
 20 24  4  0
 22 27  4  0
 28 29  4  0
M  END
$$$$

 Created by Python create_sdf_string function

 29 33  0  0  0  0  0  0  0  0999 V2000
   10.7215   -3.3326   17.6437 C   0  0  0  0  0  0  0  0  0  0  0  0
    9.9489   -3.4675   24.6487 N   0  0  0  0  0  0  0  0  0  0  0  0
   10.0172   -4.4740   17.4101 C   0  0  0  0  0  0  0  0  0  0  0  0
    6.9051   -7.9575   16.4222 C   0  0  0  0  0  0  0  0  0  0  0  0
    8.9969   -6.3552   17.9668 N   0  0  0  0  0  0  0  0  0  0  0  0
   10.6702   -3.9051   22.4070 C   0  0  0  0  0  0  0  0  0  0  0  0
   11.0625   -3.0028   18.8894 C   0  0  0  0  0  0  0  0  0  0  0  0
    5.6180   -7.9194   16.1754 O   0  0  0  0  0  0  0  0  0  0  0  0
    9.7259   -5.3080   18.4485 C   0  0  0  0  0  0  0  0  0  0  0  0
    9.4578   -5.0200   16.3036 N   0  0  0  0  0  0  0  0  0  0  0  0
    5.0287   -8.9365   16.8223 C   0  0  0  0  0  0  0  0  0  0  0  0
    8.7742   -6.1498   16.6764 C   0  0  0  0  0  0  0  0  0  0  0  0
   10.9418   -3.4032   21.2053 O   0  0  0  0  0  0  0  0  0  0  0  0
    1.4797   -8.6258   16.2950 C   0  0  0  0  0  0  0  0  0  0  0  0
    9.2861   -1.2743   25.3585 C   0  0  0  0  0  0  0  0  0  0  0  0
    1.8892  -10.3985   17.7511 N   0  0  0  0  0  0  0  0  0  0  0  0
    9.6210   -0.6952   24.0976 C   0  0  0  0  0  0  0  0  0  0  0  0
    7.0792   -9.0217   17.1429 C   0  0  0  0  0  0  0  0  0  0  0  0
    3.1713  -10.1816   17.6634 C   0  0  0  0  0  0  0  0  0  0  0  0
    2.7878   -8.3822   16.2137 C   0  0  0  0  0  0  0  0  0  0  0  0
    9.4601   -2.6590   25.6528 C   0  0  0  0  0  0  0  0  0  0  0  0
   10.1182   -1.5672   23.1165 C   0  0  0  0  0  0  0  0  0  0  0  0
    1.0552   -9.6360   17.0650 C   0  0  0  0  0  0  0  0  0  0  0  0
    3.6519   -9.1783   16.9039 C   0  0  0  0  0  0  0  0  0  0  0  0
    7.8675   -7.0096   15.9415 C   0  0  0  0  0  0  0  0  0  0  0  0
    5.9733   -9.6553   17.3832 N   0  0  0  0  0  0  0  0  0  0  0  0
   10.2411   -2.9363   23.4301 C   0  0  0  0  0  0  0  0  0  0  0  0
   10.7288   -3.8197   19.9525 C   0  0  0  0  0  0  0  0  0  0  0  0
   10.1189   -5.0054   19.6987 C   0  0  0  0  0  0  0  0  0  0  0  0
  1  3  4  0
  1  7  4  0
  2 21  4  0
  2 27  4  0
  3  9  4  0
  3 10  4  0
  4  8  4  0
  4 18  4  0
  4 25  1  0
  5  9  4  0
  5 12  4  0
  6 13  1  0
  6 27  1  0
  7 28  4  0
  8 11  4  0
  9 29  4  0
 10 12  4  0
 11 24  1  0
 11 26  4  0
 12 25  1  0
 13 28  1  0
 14 20  4  0
 14 23  4  0
 15 17  4  0
 15 21  4  0
 16 19  4  0
 16 23  4  0
 17 22  4  0
 18 26  4  0
 19 24  4  0
 20 24  4  0
 22 27  4  0
 28 29  4  0
M  END
$$$$

 Created by Python create_sdf_string function

 29 33  0  0  0  0  0  0  0  0999 V2000
   10.7215   -3.3326   17.6437 C   0  0  0  0  0  0  0  0  0  0  0  0
    9.9489   -3.4675   24.6487 N   0  0  0  0  0  0  0  0  0  0  0  0
   10.0172   -4.4740   17.4101 C   0  0  0  0  0  0  0  0  0  0  0  0
    6.9051   -7.9575   16.4222 C   0  0  0  0  0  0  0  0  0  0  0  0
    8.9969   -6.3552   17.9668 N   0  0  0  0  0  0  0  0  0  0  0  0
   10.6702   -3.9051   22.4070 C   0  0  0  0  0  0  0  0  0  0  0  0
   11.0625   -3.0028   18.8894 C   0  0  0  0  0  0  0  0  0  0  0  0
    5.6180   -7.9194   16.1754 O   0  0  0  0  0  0  0  0  0  0  0  0
    9.7259   -5.3080   18.4485 C   0  0  0  0  0  0  0  0  0  0  0  0
    9.4578   -5.0200   16.3036 N   0  0  0  0  0  0  0  0  0  0  0  0
    5.0287   -8.9365   16.8223 C   0  0  0  0  0  0  0  0  0  0  0  0
    8.7742   -6.1498   16.6764 C   0  0  0  0  0  0  0  0  0  0  0  0
   10.9418   -3.4032   21.2053 O   0  0  0  0  0  0  0  0  0  0  0  0
    1.4797   -8.6258   16.2950 C   0  0  0  0  0  0  0  0  0  0  0  0
    9.2861   -1.2743   25.3585 C   0  0  0  0  0  0  0  0  0  0  0  0
    1.8892  -10.3985   17.7511 N   0  0  0  0  0  0  0  0  0  0  0  0
    9.6210   -0.6952   24.0976 C   0  0  0  0  0  0  0  0  0  0  0  0
    7.0792   -9.0217   17.1429 C   0  0  0  0  0  0  0  0  0  0  0  0
    3.1713  -10.1816   17.6634 C   0  0  0  0  0  0  0  0  0  0  0  0
    2.7878   -8.3822   16.2137 C   0  0  0  0  0  0  0  0  0  0  0  0
    9.4601   -2.6590   25.6528 C   0  0  0  0  0  0  0  0  0  0  0  0
   10.1182   -1.5672   23.1165 C   0  0  0  0  0  0  0  0  0  0  0  0
    1.0552   -9.6360   17.0650 C   0  0  0  0  0  0  0  0  0  0  0  0
    3.6519   -9.1783   16.9039 C   0  0  0  0  0  0  0  0  0  0  0  0
    7.8675   -7.0096   15.9415 C   0  0  0  0  0  0  0  0  0  0  0  0
    5.9733   -9.6553   17.3832 N   0  0  0  0  0  0  0  0  0  0  0  0
   10.2411   -2.9363   23.4301 C   0  0  0  0  0  0  0  0  0  0  0  0
   10.7288   -3.8197   19.9525 C   0  0  0  0  0  0  0  0  0  0  0  0
   10.1189   -5.0054   19.6987 C   0  0  0  0  0  0  0  0  0  0  0  0
  1  3  4  0
  1  7  4  0
  2 21  4  0
  2 27  4  0
  3  9  4  0
  3 10  4  0
  4  8  4  0
  4 18  4  0
  4 25  1  0
  5  9  4  0
  5 12  4  0
  6 13  1  0
  6 27  1  0
  7 28  4  0
  8 11  4  0
  9 29  4  0
 10 12  4  0
 11 24  1  0
 11 26  4  0
 12 25  1  0
 13 28  1  0
 14 20  4  0
 14 23  4  0
 15 17  4  0
 15 21  4  0
 16 19  4  0
 16 23  4  0
 17 22  4  0
 18 26  4  0
 19 24  4  0
 20 24  4  0
 22 27  4  0
 28 29  4  0
M  END
$$$$

 Created by Python create_sdf_string function

 29 33  0  0  0  0  0  0  0  0999 V2000
   10.7215   -3.3326   17.6437 C   0  0  0  0  0  0  0  0  0  0  0  0
    9.9489   -3.4675   24.6487 N   0  0  0  0  0  0  0  0  0  0  0  0
   10.0172   -4.4740   17.4101 C   0  0  0  0  0  0  0  0  0  0  0  0
    6.9051   -7.9575   16.4222 C   0  0  0  0  0  0  0  0  0  0  0  0
    8.9969   -6.3552   17.9668 N   0  0  0  0  0  0  0  0  0  0  0  0
   10.6702   -3.9051   22.4070 C   0  0  0  0  0  0  0  0  0  0  0  0
   11.0625   -3.0028   18.8894 C   0  0  0  0  0  0  0  0  0  0  0  0
    5.6180   -7.9194   16.1754 O   0  0  0  0  0  0  0  0  0  0  0  0
    9.7259   -5.3080   18.4485 C   0  0  0  0  0  0  0  0  0  0  0  0
    9.4578   -5.0200   16.3036 N   0  0  0  0  0  0  0  0  0  0  0  0
    5.0287   -8.9365   16.8223 C   0  0  0  0  0  0  0  0  0  0  0  0
    8.7742   -6.1498   16.6764 C   0  0  0  0  0  0  0  0  0  0  0  0
   10.9418   -3.4032   21.2053 O   0  0  0  0  0  0  0  0  0  0  0  0
    1.4797   -8.6258   16.2950 C   0  0  0  0  0  0  0  0  0  0  0  0
    9.2861   -1.2743   25.3585 C   0  0  0  0  0  0  0  0  0  0  0  0
    1.8892  -10.3985   17.7511 N   0  0  0  0  0  0  0  0  0  0  0  0
    9.6210   -0.6952   24.0976 C   0  0  0  0  0  0  0  0  0  0  0  0
    7.0792   -9.0217   17.1429 C   0  0  0  0  0  0  0  0  0  0  0  0
    3.1713  -10.1816   17.6634 C   0  0  0  0  0  0  0  0  0  0  0  0
    2.7878   -8.3822   16.2137 C   0  0  0  0  0  0  0  0  0  0  0  0
    9.4601   -2.6590   25.6528 C   0  0  0  0  0  0  0  0  0  0  0  0
   10.1182   -1.5672   23.1165 C   0  0  0  0  0  0  0  0  0  0  0  0
    1.0552   -9.6360   17.0650 C   0  0  0  0  0  0  0  0  0  0  0  0
    3.6519   -9.1783   16.9039 C   0  0  0  0  0  0  0  0  0  0  0  0
    7.8675   -7.0096   15.9415 C   0  0  0  0  0  0  0  0  0  0  0  0
    5.9733   -9.6553   17.3832 N   0  0  0  0  0  0  0  0  0  0  0  0
   10.2411   -2.9363   23.4301 C   0  0  0  0  0  0  0  0  0  0  0  0
   10.7288   -3.8197   19.9525 C   0  0  0  0  0  0  0  0  0  0  0  0
   10.1189   -5.0054   19.6987 C   0  0  0  0  0  0  0  0  0  0  0  0
  1  3  4  0
  1  7  4  0
  2 21  4  0
  2 27  4  0
  3  9  4  0
  3 10  4  0
  4  8  4  0
  4 18  4  0
  4 25  1  0
  5  9  4  0
  5 12  4  0
  6 13  1  0
  6 27  1  0
  7 28  4  0
  8 11  4  0
  9 29  4  0
 10 12  4  0
 11 24  1  0
 11 26  4  0
 12 25  1  0
 13 28  1  0
 14 20  4  0
 14 23  4  0
 15 17  4  0
 15 21  4  0
 16 19  4  0
 16 23  4  0
 17 22  4  0
 18 26  4  0
 19 24  4  0
 20 24  4  0
 22 27  4  0
 28 29  4  0
M  END
$$$$

 Created by Python create_sdf_string function

 29 33  0  0  0  0  0  0  0  0999 V2000
   10.7215   -3.3326   17.6437 C   0  0  0  0  0  0  0  0  0  0  0  0
    9.9489   -3.4675   24.6487 N   0  0  0  0  0  0  0  0  0  0  0  0
   10.0172   -4.4740   17.4101 C   0  0  0  0  0  0  0  0  0  0  0  0
    6.9051   -7.9575   16.4222 C   0  0  0  0  0  0  0  0  0  0  0  0
    8.9969   -6.3552   17.9668 N   0  0  0  0  0  0  0  0  0  0  0  0
   10.6702   -3.9051   22.4070 C   0  0  0  0  0  0  0  0  0  0  0  0
   11.0625   -3.0028   18.8894 C   0  0  0  0  0  0  0  0  0  0  0  0
    5.6180   -7.9194   16.1754 O   0  0  0  0  0  0  0  0  0  0  0  0
    9.7259   -5.3080   18.4485 C   0  0  0  0  0  0  0  0  0  0  0  0
    9.4578   -5.0200   16.3036 N   0  0  0  0  0  0  0  0  0  0  0  0
    5.0287   -8.9365   16.8223 C   0  0  0  0  0  0  0  0  0  0  0  0
    8.7742   -6.1498   16.6764 C   0  0  0  0  0  0  0  0  0  0  0  0
   10.9418   -3.4032   21.2053 O   0  0  0  0  0  0  0  0  0  0  0  0
    1.4797   -8.6258   16.2950 C   0  0  0  0  0  0  0  0  0  0  0  0
    9.2861   -1.2743   25.3585 C   0  0  0  0  0  0  0  0  0  0  0  0
    1.8892  -10.3985   17.7511 N   0  0  0  0  0  0  0  0  0  0  0  0
    9.6210   -0.6952   24.0976 C   0  0  0  0  0  0  0  0  0  0  0  0
    7.0792   -9.0217   17.1429 C   0  0  0  0  0  0  0  0  0  0  0  0
    3.1713  -10.1816   17.6634 C   0  0  0  0  0  0  0  0  0  0  0  0
    2.7878   -8.3822   16.2137 C   0  0  0  0  0  0  0  0  0  0  0  0
    9.4601   -2.6590   25.6528 C   0  0  0  0  0  0  0  0  0  0  0  0
   10.1182   -1.5672   23.1165 C   0  0  0  0  0  0  0  0  0  0  0  0
    1.0552   -9.6360   17.0650 C   0  0  0  0  0  0  0  0  0  0  0  0
    3.6519   -9.1783   16.9039 C   0  0  0  0  0  0  0  0  0  0  0  0
    7.8675   -7.0096   15.9415 C   0  0  0  0  0  0  0  0  0  0  0  0
    5.9733   -9.6553   17.3832 N   0  0  0  0  0  0  0  0  0  0  0  0
   10.2411   -2.9363   23.4301 C   0  0  0  0  0  0  0  0  0  0  0  0
   10.7288   -3.8197   19.9525 C   0  0  0  0  0  0  0  0  0  0  0  0
   10.1189   -5.0054   19.6987 C   0  0  0  0  0  0  0  0  0  0  0  0
  1  3  4  0
  1  7  4  0
  2 21  4  0
  2 27  4  0
  3  9  4  0
  3 10  4  0
  4  8  4  0
  4 18  4  0
  4 25  1  0
  5  9  4  0
  5 12  4  0
  6 13  1  0
  6 27  1  0
  7 28  4  0
  8 11  4  0
  9 29  4  0
 10 12  4  0
 11 24  1  0
 11 26  4  0
 12 25  1  0
 13 28  1  0
 14 20  4  0
 14 23  4  0
 15 17  4  0
 15 21  4  0
 16 19  4  0
 16 23  4  0
 17 22  4  0
 18 26  4  0
 19 24  4  0
 20 24  4  0
 22 27  4  0
 28 29  4  0
M  END
$$$$

 Created by Python create_sdf_string function

 29 33  0  0  0  0  0  0  0  0999 V2000
   10.7215   -3.3326   17.6437 C   0  0  0  0  0  0  0  0  0  0  0  0
    9.9489   -3.4675   24.6487 N   0  0  0  0  0  0  0  0  0  0  0  0
   10.0172   -4.4740   17.4101 C   0  0  0  0  0  0  0  0  0  0  0  0
    6.9051   -7.9575   16.4222 C   0  0  0  0  0  0  0  0  0  0  0  0
    8.9969   -6.3552   17.9668 N   0  0  0  0  0  0  0  0  0  0  0  0
   10.6702   -3.9051   22.4070 C   0  0  0  0  0  0  0  0  0  0  0  0
   11.0625   -3.0028   18.8894 C   0  0  0  0  0  0  0  0  0  0  0  0
    5.6180   -7.9194   16.1754 O   0  0  0  0  0  0  0  0  0  0  0  0
    9.7259   -5.3080   18.4485 C   0  0  0  0  0  0  0  0  0  0  0  0
    9.4578   -5.0200   16.3036 N   0  0  0  0  0  0  0  0  0  0  0  0
    5.0287   -8.9365   16.8223 C   0  0  0  0  0  0  0  0  0  0  0  0
    8.7742   -6.1498   16.6764 C   0  0  0  0  0  0  0  0  0  0  0  0
   10.9418   -3.4032   21.2053 O   0  0  0  0  0  0  0  0  0  0  0  0
    1.4797   -8.6258   16.2950 C   0  0  0  0  0  0  0  0  0  0  0  0
    9.2861   -1.2743   25.3585 C   0  0  0  0  0  0  0  0  0  0  0  0
    1.8892  -10.3985   17.7511 N   0  0  0  0  0  0  0  0  0  0  0  0
    9.6210   -0.6952   24.0976 C   0  0  0  0  0  0  0  0  0  0  0  0
    7.0792   -9.0217   17.1429 C   0  0  0  0  0  0  0  0  0  0  0  0
    3.1713  -10.1816   17.6634 C   0  0  0  0  0  0  0  0  0  0  0  0
    2.7878   -8.3822   16.2137 C   0  0  0  0  0  0  0  0  0  0  0  0
    9.4601   -2.6590   25.6528 C   0  0  0  0  0  0  0  0  0  0  0  0
   10.1182   -1.5672   23.1165 C   0  0  0  0  0  0  0  0  0  0  0  0
    1.0552   -9.6360   17.0650 C   0  0  0  0  0  0  0  0  0  0  0  0
    3.6519   -9.1783   16.9039 C   0  0  0  0  0  0  0  0  0  0  0  0
    7.8675   -7.0096   15.9415 C   0  0  0  0  0  0  0  0  0  0  0  0
    5.9733   -9.6553   17.3832 N   0  0  0  0  0  0  0  0  0  0  0  0
   10.2411   -2.9363   23.4301 C   0  0  0  0  0  0  0  0  0  0  0  0
   10.7288   -3.8197   19.9525 C   0  0  0  0  0  0  0  0  0  0  0  0
   10.1189   -5.0054   19.6987 C   0  0  0  0  0  0  0  0  0  0  0  0
  1  3  4  0
  1  7  4  0
  2 21  4  0
  2 27  4  0
  3  9  4  0
  3 10  4  0
  4  8  4  0
  4 18  4  0
  4 25  1  0
  5  9  4  0
  5 12  4  0
  6 13  1  0
  6 27  1  0
  7 28  4  0
  8 11  4  0
  9 29  4  0
 10 12  4  0
 11 24  1  0
 11 26  4  0
 12 25  1  0
 13 28  1  0
 14 20  4  0
 14 23  4  0
 15 17  4  0
 15 21  4  0
 16 19  4  0
 16 23  4  0
 17 22  4  0
 18 26  4  0
 19 24  4  0
 20 24  4  0
 22 27  4  0
 28 29  4  0
M  END
$$$$

 Created by Python create_sdf_string function

 29 33  0  0  0  0  0  0  0  0999 V2000
   10.7215   -3.3326   17.6437 C   0  0  0  0  0  0  0  0  0  0  0  0
    9.9489   -3.4675   24.6487 N   0  0  0  0  0  0  0  0  0  0  0  0
   10.0172   -4.4740   17.4101 C   0  0  0  0  0  0  0  0  0  0  0  0
    6.9051   -7.9575   16.4222 C   0  0  0  0  0  0  0  0  0  0  0  0
    8.9969   -6.3552   17.9668 N   0  0  0  0  0  0  0  0  0  0  0  0
   10.6702   -3.9051   22.4070 C   0  0  0  0  0  0  0  0  0  0  0  0
   11.0625   -3.0028   18.8894 C   0  0  0  0  0  0  0  0  0  0  0  0
    5.6180   -7.9194   16.1754 O   0  0  0  0  0  0  0  0  0  0  0  0
    9.7259   -5.3080   18.4485 C   0  0  0  0  0  0  0  0  0  0  0  0
    9.4578   -5.0200   16.3036 N   0  0  0  0  0  0  0  0  0  0  0  0
    5.0287   -8.9365   16.8223 C   0  0  0  0  0  0  0  0  0  0  0  0
    8.7742   -6.1498   16.6764 C   0  0  0  0  0  0  0  0  0  0  0  0
   10.9418   -3.4032   21.2053 O   0  0  0  0  0  0  0  0  0  0  0  0
    1.4797   -8.6258   16.2950 C   0  0  0  0  0  0  0  0  0  0  0  0
    9.2861   -1.2743   25.3585 C   0  0  0  0  0  0  0  0  0  0  0  0
    1.8892  -10.3985   17.7511 N   0  0  0  0  0  0  0  0  0  0  0  0
    9.6210   -0.6952   24.0976 C   0  0  0  0  0  0  0  0  0  0  0  0
    7.0792   -9.0217   17.1429 C   0  0  0  0  0  0  0  0  0  0  0  0
    3.1713  -10.1816   17.6634 C   0  0  0  0  0  0  0  0  0  0  0  0
    2.7878   -8.3822   16.2137 C   0  0  0  0  0  0  0  0  0  0  0  0
    9.4601   -2.6590   25.6528 C   0  0  0  0  0  0  0  0  0  0  0  0
   10.1182   -1.5672   23.1165 C   0  0  0  0  0  0  0  0  0  0  0  0
    1.0552   -9.6360   17.0650 C   0  0  0  0  0  0  0  0  0  0  0  0
    3.6519   -9.1783   16.9039 C   0  0  0  0  0  0  0  0  0  0  0  0
    7.8675   -7.0096   15.9415 C   0  0  0  0  0  0  0  0  0  0  0  0
    5.9733   -9.6553   17.3832 N   0  0  0  0  0  0  0  0  0  0  0  0
   10.2411   -2.9363   23.4301 C   0  0  0  0  0  0  0  0  0  0  0  0
   10.7288   -3.8197   19.9525 C   0  0  0  0  0  0  0  0  0  0  0  0
   10.1189   -5.0054   19.6987 C   0  0  0  0  0  0  0  0  0  0  0  0
  1  3  4  0
  1  7  4  0
  2 21  4  0
  2 27  4  0
  3  9  4  0
  3 10  4  0
  4  8  4  0
  4 18  4  0
  4 25  1  0
  5  9  4  0
  5 12  4  0
  6 13  1  0
  6 27  1  0
  7 28  4  0
  8 11  4  0
  9 29  4  0
 10 12  4  0
 11 24  1  0
 11 26  4  0
 12 25  1  0
 13 28  1  0
 14 20  4  0
 14 23  4  0
 15 17  4  0
 15 21  4  0
 16 19  4  0
 16 23  4  0
 17 22  4  0
 18 26  4  0
 19 24  4  0
 20 24  4  0
 22 27  4  0
 28 29  4  0
M  END
$$$$

 Created by Python create_sdf_string function

 29 33  0  0  0  0  0  0  0  0999 V2000
   10.7215   -3.3326   17.6437 C   0  0  0  0  0  0  0  0  0  0  0  0
    9.9489   -3.4675   24.6487 N   0  0  0  0  0  0  0  0  0  0  0  0
   10.0172   -4.4740   17.4101 C   0  0  0  0  0  0  0  0  0  0  0  0
    6.9051   -7.9575   16.4222 C   0  0  0  0  0  0  0  0  0  0  0  0
    8.9969   -6.3552   17.9668 N   0  0  0  0  0  0  0  0  0  0  0  0
   10.6702   -3.9051   22.4070 C   0  0  0  0  0  0  0  0  0  0  0  0
   11.0625   -3.0028   18.8894 C   0  0  0  0  0  0  0  0  0  0  0  0
    5.6180   -7.9194   16.1754 O   0  0  0  0  0  0  0  0  0  0  0  0
    9.7259   -5.3080   18.4485 C   0  0  0  0  0  0  0  0  0  0  0  0
    9.4578   -5.0200   16.3036 N   0  0  0  0  0  0  0  0  0  0  0  0
    5.0287   -8.9365   16.8223 C   0  0  0  0  0  0  0  0  0  0  0  0
    8.7742   -6.1498   16.6764 C   0  0  0  0  0  0  0  0  0  0  0  0
   10.9418   -3.4032   21.2053 O   0  0  0  0  0  0  0  0  0  0  0  0
    1.4797   -8.6258   16.2950 C   0  0  0  0  0  0  0  0  0  0  0  0
    9.2861   -1.2743   25.3585 C   0  0  0  0  0  0  0  0  0  0  0  0
    1.8892  -10.3985   17.7511 N   0  0  0  0  0  0  0  0  0  0  0  0
    9.6210   -0.6952   24.0976 C   0  0  0  0  0  0  0  0  0  0  0  0
    7.0792   -9.0217   17.1429 C   0  0  0  0  0  0  0  0  0  0  0  0
    3.1713  -10.1816   17.6634 C   0  0  0  0  0  0  0  0  0  0  0  0
    2.7878   -8.3822   16.2137 C   0  0  0  0  0  0  0  0  0  0  0  0
    9.4601   -2.6590   25.6528 C   0  0  0  0  0  0  0  0  0  0  0  0
   10.1182   -1.5672   23.1165 C   0  0  0  0  0  0  0  0  0  0  0  0
    1.0552   -9.6360   17.0650 C   0  0  0  0  0  0  0  0  0  0  0  0
    3.6519   -9.1783   16.9039 C   0  0  0  0  0  0  0  0  0  0  0  0
    7.8675   -7.0096   15.9415 C   0  0  0  0  0  0  0  0  0  0  0  0
    5.9733   -9.6553   17.3832 N   0  0  0  0  0  0  0  0  0  0  0  0
   10.2411   -2.9363   23.4301 C   0  0  0  0  0  0  0  0  0  0  0  0
   10.7288   -3.8197   19.9525 C   0  0  0  0  0  0  0  0  0  0  0  0
   10.1189   -5.0054   19.6987 C   0  0  0  0  0  0  0  0  0  0  0  0
  1  3  4  0
  1  7  4  0
  2 21  4  0
  2 27  4  0
  3  9  4  0
  3 10  4  0
  4  8  4  0
  4 18  4  0
  4 25  1  0
  5  9  4  0
  5 12  4  0
  6 13  1  0
  6 27  1  0
  7 28  4  0
  8 11  4  0
  9 29  4  0
 10 12  4  0
 11 24  1  0
 11 26  4  0
 12 25  1  0
 13 28  1  0
 14 20  4  0
 14 23  4  0
 15 17  4  0
 15 21  4  0
 16 19  4  0
 16 23  4  0
 17 22  4  0
 18 26  4  0
 19 24  4  0
 20 24  4  0
 22 27  4  0
 28 29  4  0
M  END
$$$$

 Created by Python create_sdf_string function

 29 33  0  0  0  0  0  0  0  0999 V2000
   10.7215   -3.3326   17.6437 C   0  0  0  0  0  0  0  0  0  0  0  0
    9.9489   -3.4675   24.6487 N   0  0  0  0  0  0  0  0  0  0  0  0
   10.0172   -4.4740   17.4101 C   0  0  0  0  0  0  0  0  0  0  0  0
    6.9051   -7.9575   16.4222 C   0  0  0  0  0  0  0  0  0  0  0  0
    8.9969   -6.3552   17.9668 N   0  0  0  0  0  0  0  0  0  0  0  0
   10.6702   -3.9051   22.4070 C   0  0  0  0  0  0  0  0  0  0  0  0
   11.0625   -3.0028   18.8894 C   0  0  0  0  0  0  0  0  0  0  0  0
    5.6180   -7.9194   16.1754 O   0  0  0  0  0  0  0  0  0  0  0  0
    9.7259   -5.3080   18.4485 C   0  0  0  0  0  0  0  0  0  0  0  0
    9.4578   -5.0200   16.3036 N   0  0  0  0  0  0  0  0  0  0  0  0
    5.0287   -8.9365   16.8223 C   0  0  0  0  0  0  0  0  0  0  0  0
    8.7742   -6.1498   16.6764 C   0  0  0  0  0  0  0  0  0  0  0  0
   10.9418   -3.4032   21.2053 O   0  0  0  0  0  0  0  0  0  0  0  0
    1.4797   -8.6258   16.2950 C   0  0  0  0  0  0  0  0  0  0  0  0
    9.2861   -1.2743   25.3585 C   0  0  0  0  0  0  0  0  0  0  0  0
    1.8892  -10.3985   17.7511 N   0  0  0  0  0  0  0  0  0  0  0  0
    9.6210   -0.6952   24.0976 C   0  0  0  0  0  0  0  0  0  0  0  0
    7.0792   -9.0217   17.1429 C   0  0  0  0  0  0  0  0  0  0  0  0
    3.1713  -10.1816   17.6634 C   0  0  0  0  0  0  0  0  0  0  0  0
    2.7878   -8.3822   16.2137 C   0  0  0  0  0  0  0  0  0  0  0  0
    9.4601   -2.6590   25.6528 C   0  0  0  0  0  0  0  0  0  0  0  0
   10.1182   -1.5672   23.1165 C   0  0  0  0  0  0  0  0  0  0  0  0
    1.0552   -9.6360   17.0650 C   0  0  0  0  0  0  0  0  0  0  0  0
    3.6519   -9.1783   16.9039 C   0  0  0  0  0  0  0  0  0  0  0  0
    7.8675   -7.0096   15.9415 C   0  0  0  0  0  0  0  0  0  0  0  0
    5.9733   -9.6553   17.3832 N   0  0  0  0  0  0  0  0  0  0  0  0
   10.2411   -2.9363   23.4301 C   0  0  0  0  0  0  0  0  0  0  0  0
   10.7288   -3.8197   19.9525 C   0  0  0  0  0  0  0  0  0  0  0  0
   10.1189   -5.0054   19.6987 C   0  0  0  0  0  0  0  0  0  0  0  0
  1  3  4  0
  1  7  4  0
  2 21  4  0
  2 27  4  0
  3  9  4  0
  3 10  4  0
  4  8  4  0
  4 18  4  0
  4 25  1  0
  5  9  4  0
  5 12  4  0
  6 13  1  0
  6 27  1  0
  7 28  4  0
  8 11  4  0
  9 29  4  0
 10 12  4  0
 11 24  1  0
 11 26  4  0
 12 25  1  0
 13 28  1  0
 14 20  4  0
 14 23  4  0
 15 17  4  0
 15 21  4  0
 16 19  4  0
 16 23  4  0
 17 22  4  0
 18 26  4  0
 19 24  4  0
 20 24  4  0
 22 27  4  0
 28 29  4  0
M  END
$$$$

 Created by Python create_sdf_string function

 29 33  0  0  0  0  0  0  0  0999 V2000
   10.7215   -3.3326   17.6437 C   0  0  0  0  0  0  0  0  0  0  0  0
    9.9489   -3.4675   24.6487 N   0  0  0  0  0  0  0  0  0  0  0  0
   10.0172   -4.4740   17.4101 C   0  0  0  0  0  0  0  0  0  0  0  0
    6.9051   -7.9575   16.4222 C   0  0  0  0  0  0  0  0  0  0  0  0
    8.9969   -6.3552   17.9668 N   0  0  0  0  0  0  0  0  0  0  0  0
   10.6702   -3.9051   22.4070 C   0  0  0  0  0  0  0  0  0  0  0  0
   11.0625   -3.0028   18.8894 C   0  0  0  0  0  0  0  0  0  0  0  0
    5.6180   -7.9194   16.1754 O   0  0  0  0  0  0  0  0  0  0  0  0
    9.7259   -5.3080   18.4485 C   0  0  0  0  0  0  0  0  0  0  0  0
    9.4578   -5.0200   16.3036 N   0  0  0  0  0  0  0  0  0  0  0  0
    5.0287   -8.9365   16.8223 C   0  0  0  0  0  0  0  0  0  0  0  0
    8.7742   -6.1498   16.6764 C   0  0  0  0  0  0  0  0  0  0  0  0
   10.9418   -3.4032   21.2053 O   0  0  0  0  0  0  0  0  0  0  0  0
    1.4797   -8.6258   16.2950 C   0  0  0  0  0  0  0  0  0  0  0  0
    9.2861   -1.2743   25.3585 C   0  0  0  0  0  0  0  0  0  0  0  0
    1.8892  -10.3985   17.7511 N   0  0  0  0  0  0  0  0  0  0  0  0
    9.6210   -0.6952   24.0976 C   0  0  0  0  0  0  0  0  0  0  0  0
    7.0792   -9.0217   17.1429 C   0  0  0  0  0  0  0  0  0  0  0  0
    3.1713  -10.1816   17.6634 C   0  0  0  0  0  0  0  0  0  0  0  0
    2.7878   -8.3822   16.2137 C   0  0  0  0  0  0  0  0  0  0  0  0
    9.4601   -2.6590   25.6528 C   0  0  0  0  0  0  0  0  0  0  0  0
   10.1182   -1.5672   23.1165 C   0  0  0  0  0  0  0  0  0  0  0  0
    1.0552   -9.6360   17.0650 C   0  0  0  0  0  0  0  0  0  0  0  0
    3.6519   -9.1783   16.9039 C   0  0  0  0  0  0  0  0  0  0  0  0
    7.8675   -7.0096   15.9415 C   0  0  0  0  0  0  0  0  0  0  0  0
    5.9733   -9.6553   17.3832 N   0  0  0  0  0  0  0  0  0  0  0  0
   10.2411   -2.9363   23.4301 C   0  0  0  0  0  0  0  0  0  0  0  0
   10.7288   -3.8197   19.9525 C   0  0  0  0  0  0  0  0  0  0  0  0
   10.1189   -5.0054   19.6987 C   0  0  0  0  0  0  0  0  0  0  0  0
  1  3  4  0
  1  7  4  0
  2 21  4  0
  2 27  4  0
  3  9  4  0
  3 10  4  0
  4  8  4  0
  4 18  4  0
  4 25  1  0
  5  9  4  0
  5 12  4  0
  6 13  1  0
  6 27  1  0
  7 28  4  0
  8 11  4  0
  9 29  4  0
 10 12  4  0
 11 24  1  0
 11 26  4  0
 12 25  1  0
 13 28  1  0
 14 20  4  0
 14 23  4  0
 15 17  4  0
 15 21  4  0
 16 19  4  0
 16 23  4  0
 17 22  4  0
 18 26  4  0
 19 24  4  0
 20 24  4  0
 22 27  4  0
 28 29  4  0
M  END
$$$$

 Created by Python create_sdf_string function

 29 33  0  0  0  0  0  0  0  0999 V2000
   10.7215   -3.3326   17.6437 C   0  0  0  0  0  0  0  0  0  0  0  0
    9.9489   -3.4675   24.6487 N   0  0  0  0  0  0  0  0  0  0  0  0
   10.0172   -4.4740   17.4101 C   0  0  0  0  0  0  0  0  0  0  0  0
    6.9051   -7.9575   16.4222 C   0  0  0  0  0  0  0  0  0  0  0  0
    8.9969   -6.3552   17.9668 N   0  0  0  0  0  0  0  0  0  0  0  0
   10.6702   -3.9051   22.4070 C   0  0  0  0  0  0  0  0  0  0  0  0
   11.0625   -3.0028   18.8894 C   0  0  0  0  0  0  0  0  0  0  0  0
    5.6180   -7.9194   16.1754 O   0  0  0  0  0  0  0  0  0  0  0  0
    9.7259   -5.3080   18.4485 C   0  0  0  0  0  0  0  0  0  0  0  0
    9.4578   -5.0200   16.3036 N   0  0  0  0  0  0  0  0  0  0  0  0
    5.0287   -8.9365   16.8223 C   0  0  0  0  0  0  0  0  0  0  0  0
    8.7742   -6.1498   16.6764 C   0  0  0  0  0  0  0  0  0  0  0  0
   10.9418   -3.4032   21.2053 O   0  0  0  0  0  0  0  0  0  0  0  0
    1.4797   -8.6258   16.2950 C   0  0  0  0  0  0  0  0  0  0  0  0
    9.2861   -1.2743   25.3585 C   0  0  0  0  0  0  0  0  0  0  0  0
    1.8892  -10.3985   17.7511 N   0  0  0  0  0  0  0  0  0  0  0  0
    9.6210   -0.6952   24.0976 C   0  0  0  0  0  0  0  0  0  0  0  0
    7.0792   -9.0217   17.1429 C   0  0  0  0  0  0  0  0  0  0  0  0
    3.1713  -10.1816   17.6634 C   0  0  0  0  0  0  0  0  0  0  0  0
    2.7878   -8.3822   16.2137 C   0  0  0  0  0  0  0  0  0  0  0  0
    9.4601   -2.6590   25.6528 C   0  0  0  0  0  0  0  0  0  0  0  0
   10.1182   -1.5672   23.1165 C   0  0  0  0  0  0  0  0  0  0  0  0
    1.0552   -9.6360   17.0650 C   0  0  0  0  0  0  0  0  0  0  0  0
    3.6519   -9.1783   16.9039 C   0  0  0  0  0  0  0  0  0  0  0  0
    7.8675   -7.0096   15.9415 C   0  0  0  0  0  0  0  0  0  0  0  0
    5.9733   -9.6553   17.3832 N   0  0  0  0  0  0  0  0  0  0  0  0
   10.2411   -2.9363   23.4301 C   0  0  0  0  0  0  0  0  0  0  0  0
   10.7288   -3.8197   19.9525 C   0  0  0  0  0  0  0  0  0  0  0  0
   10.1189   -5.0054   19.6987 C   0  0  0  0  0  0  0  0  0  0  0  0
  1  3  4  0
  1  7  4  0
  2 21  4  0
  2 27  4  0
  3  9  4  0
  3 10  4  0
  4  8  4  0
  4 18  4  0
  4 25  1  0
  5  9  4  0
  5 12  4  0
  6 13  1  0
  6 27  1  0
  7 28  4  0
  8 11  4  0
  9 29  4  0
 10 12  4  0
 11 24  1  0
 11 26  4  0
 12 25  1  0
 13 28  1  0
 14 20  4  0
 14 23  4  0
 15 17  4  0
 15 21  4  0
 16 19  4  0
 16 23  4  0
 17 22  4  0
 18 26  4  0
 19 24  4  0
 20 24  4  0
 22 27  4  0
 28 29  4  0
M  END
$$$$

 Created by Python create_sdf_string function

 29 33  0  0  0  0  0  0  0  0999 V2000
   10.7215   -3.3326   17.6437 C   0  0  0  0  0  0  0  0  0  0  0  0
    9.9489   -3.4675   24.6487 N   0  0  0  0  0  0  0  0  0  0  0  0
   10.0172   -4.4740   17.4101 C   0  0  0  0  0  0  0  0  0  0  0  0
    6.9051   -7.9575   16.4222 C   0  0  0  0  0  0  0  0  0  0  0  0
    8.9969   -6.3552   17.9668 N   0  0  0  0  0  0  0  0  0  0  0  0
   10.6702   -3.9051   22.4070 C   0  0  0  0  0  0  0  0  0  0  0  0
   11.0625   -3.0028   18.8894 C   0  0  0  0  0  0  0  0  0  0  0  0
    5.6180   -7.9194   16.1754 O   0  0  0  0  0  0  0  0  0  0  0  0
    9.7259   -5.3080   18.4485 C   0  0  0  0  0  0  0  0  0  0  0  0
    9.4578   -5.0200   16.3036 N   0  0  0  0  0  0  0  0  0  0  0  0
    5.0287   -8.9365   16.8223 C   0  0  0  0  0  0  0  0  0  0  0  0
    8.7742   -6.1498   16.6764 C   0  0  0  0  0  0  0  0  0  0  0  0
   10.9418   -3.4032   21.2053 O   0  0  0  0  0  0  0  0  0  0  0  0
    1.4797   -8.6258   16.2950 C   0  0  0  0  0  0  0  0  0  0  0  0
    9.2861   -1.2743   25.3585 C   0  0  0  0  0  0  0  0  0  0  0  0
    1.8892  -10.3985   17.7511 N   0  0  0  0  0  0  0  0  0  0  0  0
    9.6210   -0.6952   24.0976 C   0  0  0  0  0  0  0  0  0  0  0  0
    7.0792   -9.0217   17.1429 C   0  0  0  0  0  0  0  0  0  0  0  0
    3.1713  -10.1816   17.6634 C   0  0  0  0  0  0  0  0  0  0  0  0
    2.7878   -8.3822   16.2137 C   0  0  0  0  0  0  0  0  0  0  0  0
    9.4601   -2.6590   25.6528 C   0  0  0  0  0  0  0  0  0  0  0  0
   10.1182   -1.5672   23.1165 C   0  0  0  0  0  0  0  0  0  0  0  0
    1.0552   -9.6360   17.0650 C   0  0  0  0  0  0  0  0  0  0  0  0
    3.6519   -9.1783   16.9039 C   0  0  0  0  0  0  0  0  0  0  0  0
    7.8675   -7.0096   15.9415 C   0  0  0  0  0  0  0  0  0  0  0  0
    5.9733   -9.6553   17.3832 N   0  0  0  0  0  0  0  0  0  0  0  0
   10.2411   -2.9363   23.4301 C   0  0  0  0  0  0  0  0  0  0  0  0
   10.7288   -3.8197   19.9525 C   0  0  0  0  0  0  0  0  0  0  0  0
   10.1189   -5.0054   19.6987 C   0  0  0  0  0  0  0  0  0  0  0  0
  1  3  4  0
  1  7  4  0
  2 21  4  0
  2 27  4  0
  3  9  4  0
  3 10  4  0
  4  8  4  0
  4 18  4  0
  4 25  1  0
  5  9  4  0
  5 12  4  0
  6 13  1  0
  6 27  1  0
  7 28  4  0
  8 11  4  0
  9 29  4  0
 10 12  4  0
 11 24  1  0
 11 26  4  0
 12 25  1  0
 13 28  1  0
 14 20  4  0
 14 23  4  0
 15 17  4  0
 15 21  4  0
 16 19  4  0
 16 23  4  0
 17 22  4  0
 18 26  4  0
 19 24  4  0
 20 24  4  0
 22 27  4  0
 28 29  4  0
M  END
$$$$

 Created by Python create_sdf_string function

 29 33  0  0  0  0  0  0  0  0999 V2000
   10.7215   -3.3326   17.6437 C   0  0  0  0  0  0  0  0  0  0  0  0
    9.9489   -3.4675   24.6487 N   0  0  0  0  0  0  0  0  0  0  0  0
   10.0172   -4.4740   17.4101 C   0  0  0  0  0  0  0  0  0  0  0  0
    6.9051   -7.9575   16.4222 C   0  0  0  0  0  0  0  0  0  0  0  0
    8.9969   -6.3552   17.9668 N   0  0  0  0  0  0  0  0  0  0  0  0
   10.6702   -3.9051   22.4070 C   0  0  0  0  0  0  0  0  0  0  0  0
   11.0625   -3.0028   18.8894 C   0  0  0  0  0  0  0  0  0  0  0  0
    5.6180   -7.9194   16.1754 O   0  0  0  0  0  0  0  0  0  0  0  0
    9.7259   -5.3080   18.4485 C   0  0  0  0  0  0  0  0  0  0  0  0
    9.4578   -5.0200   16.3036 N   0  0  0  0  0  0  0  0  0  0  0  0
    5.0287   -8.9365   16.8223 C   0  0  0  0  0  0  0  0  0  0  0  0
    8.7742   -6.1498   16.6764 C   0  0  0  0  0  0  0  0  0  0  0  0
   10.9418   -3.4032   21.2053 O   0  0  0  0  0  0  0  0  0  0  0  0
    1.4797   -8.6258   16.2950 C   0  0  0  0  0  0  0  0  0  0  0  0
    9.2861   -1.2743   25.3585 C   0  0  0  0  0  0  0  0  0  0  0  0
    1.8892  -10.3985   17.7511 N   0  0  0  0  0  0  0  0  0  0  0  0
    9.6210   -0.6952   24.0976 C   0  0  0  0  0  0  0  0  0  0  0  0
    7.0792   -9.0217   17.1429 C   0  0  0  0  0  0  0  0  0  0  0  0
    3.1713  -10.1816   17.6634 C   0  0  0  0  0  0  0  0  0  0  0  0
    2.7878   -8.3822   16.2137 C   0  0  0  0  0  0  0  0  0  0  0  0
    9.4601   -2.6590   25.6528 C   0  0  0  0  0  0  0  0  0  0  0  0
   10.1182   -1.5672   23.1165 C   0  0  0  0  0  0  0  0  0  0  0  0
    1.0552   -9.6360   17.0650 C   0  0  0  0  0  0  0  0  0  0  0  0
    3.6519   -9.1783   16.9039 C   0  0  0  0  0  0  0  0  0  0  0  0
    7.8675   -7.0096   15.9415 C   0  0  0  0  0  0  0  0  0  0  0  0
    5.9733   -9.6553   17.3832 N   0  0  0  0  0  0  0  0  0  0  0  0
   10.2411   -2.9363   23.4301 C   0  0  0  0  0  0  0  0  0  0  0  0
   10.7288   -3.8197   19.9525 C   0  0  0  0  0  0  0  0  0  0  0  0
   10.1189   -5.0054   19.6987 C   0  0  0  0  0  0  0  0  0  0  0  0
  1  3  4  0
  1  7  4  0
  2 21  4  0
  2 27  4  0
  3  9  4  0
  3 10  4  0
  4  8  4  0
  4 18  4  0
  4 25  1  0
  5  9  4  0
  5 12  4  0
  6 13  1  0
  6 27  1  0
  7 28  4  0
  8 11  4  0
  9 29  4  0
 10 12  4  0
 11 24  1  0
 11 26  4  0
 12 25  1  0
 13 28  1  0
 14 20  4  0
 14 23  4  0
 15 17  4  0
 15 21  4  0
 16 19  4  0
 16 23  4  0
 17 22  4  0
 18 26  4  0
 19 24  4  0
 20 24  4  0
 22 27  4  0
 28 29  4  0
M  END
$$$$

 Created by Python create_sdf_string function

 29 33  0  0  0  0  0  0  0  0999 V2000
   10.7215   -3.3326   17.6437 C   0  0  0  0  0  0  0  0  0  0  0  0
    9.9489   -3.4675   24.6487 N   0  0  0  0  0  0  0  0  0  0  0  0
   10.0172   -4.4740   17.4101 C   0  0  0  0  0  0  0  0  0  0  0  0
    6.9051   -7.9575   16.4222 C   0  0  0  0  0  0  0  0  0  0  0  0
    8.9969   -6.3552   17.9668 N   0  0  0  0  0  0  0  0  0  0  0  0
   10.6702   -3.9051   22.4070 C   0  0  0  0  0  0  0  0  0  0  0  0
   11.0625   -3.0028   18.8894 C   0  0  0  0  0  0  0  0  0  0  0  0
    5.6180   -7.9194   16.1754 O   0  0  0  0  0  0  0  0  0  0  0  0
    9.7259   -5.3080   18.4485 C   0  0  0  0  0  0  0  0  0  0  0  0
    9.4578   -5.0200   16.3036 N   0  0  0  0  0  0  0  0  0  0  0  0
    5.0287   -8.9365   16.8223 C   0  0  0  0  0  0  0  0  0  0  0  0
    8.7742   -6.1498   16.6764 C   0  0  0  0  0  0  0  0  0  0  0  0
   10.9418   -3.4032   21.2053 O   0  0  0  0  0  0  0  0  0  0  0  0
    1.4797   -8.6258   16.2950 C   0  0  0  0  0  0  0  0  0  0  0  0
    9.2861   -1.2743   25.3585 C   0  0  0  0  0  0  0  0  0  0  0  0
    1.8892  -10.3985   17.7511 N   0  0  0  0  0  0  0  0  0  0  0  0
    9.6210   -0.6952   24.0976 C   0  0  0  0  0  0  0  0  0  0  0  0
    7.0792   -9.0217   17.1429 C   0  0  0  0  0  0  0  0  0  0  0  0
    3.1713  -10.1816   17.6634 C   0  0  0  0  0  0  0  0  0  0  0  0
    2.7878   -8.3822   16.2137 C   0  0  0  0  0  0  0  0  0  0  0  0
    9.4601   -2.6590   25.6528 C   0  0  0  0  0  0  0  0  0  0  0  0
   10.1182   -1.5672   23.1165 C   0  0  0  0  0  0  0  0  0  0  0  0
    1.0552   -9.6360   17.0650 C   0  0  0  0  0  0  0  0  0  0  0  0
    3.6519   -9.1783   16.9039 C   0  0  0  0  0  0  0  0  0  0  0  0
    7.8675   -7.0096   15.9415 C   0  0  0  0  0  0  0  0  0  0  0  0
    5.9733   -9.6553   17.3832 N   0  0  0  0  0  0  0  0  0  0  0  0
   10.2411   -2.9363   23.4301 C   0  0  0  0  0  0  0  0  0  0  0  0
   10.7288   -3.8197   19.9525 C   0  0  0  0  0  0  0  0  0  0  0  0
   10.1189   -5.0054   19.6987 C   0  0  0  0  0  0  0  0  0  0  0  0
  1  3  4  0
  1  7  4  0
  2 21  4  0
  2 27  4  0
  3  9  4  0
  3 10  4  0
  4  8  4  0
  4 18  4  0
  4 25  1  0
  5  9  4  0
  5 12  4  0
  6 13  1  0
  6 27  1  0
  7 28  4  0
  8 11  4  0
  9 29  4  0
 10 12  4  0
 11 24  1  0
 11 26  4  0
 12 25  1  0
 13 28  1  0
 14 20  4  0
 14 23  4  0
 15 17  4  0
 15 21  4  0
 16 19  4  0
 16 23  4  0
 17 22  4  0
 18 26  4  0
 19 24  4  0
 20 24  4  0
 22 27  4  0
 28 29  4  0
M  END
$$$$

 Created by Python create_sdf_string function

 29 33  0  0  0  0  0  0  0  0999 V2000
   10.7215   -3.3326   17.6437 C   0  0  0  0  0  0  0  0  0  0  0  0
    9.9489   -3.4675   24.6487 N   0  0  0  0  0  0  0  0  0  0  0  0
   10.0172   -4.4740   17.4101 C   0  0  0  0  0  0  0  0  0  0  0  0
    6.9051   -7.9575   16.4222 C   0  0  0  0  0  0  0  0  0  0  0  0
    8.9969   -6.3552   17.9668 N   0  0  0  0  0  0  0  0  0  0  0  0
   10.6702   -3.9051   22.4070 C   0  0  0  0  0  0  0  0  0  0  0  0
   11.0625   -3.0028   18.8894 C   0  0  0  0  0  0  0  0  0  0  0  0
    5.6180   -7.9194   16.1754 O   0  0  0  0  0  0  0  0  0  0  0  0
    9.7259   -5.3080   18.4485 C   0  0  0  0  0  0  0  0  0  0  0  0
    9.4578   -5.0200   16.3036 N   0  0  0  0  0  0  0  0  0  0  0  0
    5.0287   -8.9365   16.8223 C   0  0  0  0  0  0  0  0  0  0  0  0
    8.7742   -6.1498   16.6764 C   0  0  0  0  0  0  0  0  0  0  0  0
   10.9418   -3.4032   21.2053 O   0  0  0  0  0  0  0  0  0  0  0  0
    1.4797   -8.6258   16.2950 C   0  0  0  0  0  0  0  0  0  0  0  0
    9.2861   -1.2743   25.3585 C   0  0  0  0  0  0  0  0  0  0  0  0
    1.8892  -10.3985   17.7511 N   0  0  0  0  0  0  0  0  0  0  0  0
    9.6210   -0.6952   24.0976 C   0  0  0  0  0  0  0  0  0  0  0  0
    7.0792   -9.0217   17.1429 C   0  0  0  0  0  0  0  0  0  0  0  0
    3.1713  -10.1816   17.6634 C   0  0  0  0  0  0  0  0  0  0  0  0
    2.7878   -8.3822   16.2137 C   0  0  0  0  0  0  0  0  0  0  0  0
    9.4601   -2.6590   25.6528 C   0  0  0  0  0  0  0  0  0  0  0  0
   10.1182   -1.5672   23.1165 C   0  0  0  0  0  0  0  0  0  0  0  0
    1.0552   -9.6360   17.0650 C   0  0  0  0  0  0  0  0  0  0  0  0
    3.6519   -9.1783   16.9039 C   0  0  0  0  0  0  0  0  0  0  0  0
    7.8675   -7.0096   15.9415 C   0  0  0  0  0  0  0  0  0  0  0  0
    5.9733   -9.6553   17.3832 N   0  0  0  0  0  0  0  0  0  0  0  0
   10.2411   -2.9363   23.4301 C   0  0  0  0  0  0  0  0  0  0  0  0
   10.7288   -3.8197   19.9525 C   0  0  0  0  0  0  0  0  0  0  0  0
   10.1189   -5.0054   19.6987 C   0  0  0  0  0  0  0  0  0  0  0  0
  1  3  4  0
  1  7  4  0
  2 21  4  0
  2 27  4  0
  3  9  4  0
  3 10  4  0
  4  8  4  0
  4 18  4  0
  4 25  1  0
  5  9  4  0
  5 12  4  0
  6 13  1  0
  6 27  1  0
  7 28  4  0
  8 11  4  0
  9 29  4  0
 10 12  4  0
 11 24  1  0
 11 26  4  0
 12 25  1  0
 13 28  1  0
 14 20  4  0
 14 23  4  0
 15 17  4  0
 15 21  4  0
 16 19  4  0
 16 23  4  0
 17 22  4  0
 18 26  4  0
 19 24  4  0
 20 24  4  0
 22 27  4  0
 28 29  4  0
M  END
$$$$

 Created by Python create_sdf_string function

 29 33  0  0  0  0  0  0  0  0999 V2000
   10.7215   -3.3326   17.6437 C   0  0  0  0  0  0  0  0  0  0  0  0
    9.9489   -3.4675   24.6487 N   0  0  0  0  0  0  0  0  0  0  0  0
   10.0172   -4.4740   17.4101 C   0  0  0  0  0  0  0  0  0  0  0  0
    6.9051   -7.9575   16.4222 C   0  0  0  0  0  0  0  0  0  0  0  0
    8.9969   -6.3552   17.9668 N   0  0  0  0  0  0  0  0  0  0  0  0
   10.6702   -3.9051   22.4070 C   0  0  0  0  0  0  0  0  0  0  0  0
   11.0625   -3.0028   18.8894 C   0  0  0  0  0  0  0  0  0  0  0  0
    5.6180   -7.9194   16.1754 O   0  0  0  0  0  0  0  0  0  0  0  0
    9.7259   -5.3080   18.4485 C   0  0  0  0  0  0  0  0  0  0  0  0
    9.4578   -5.0200   16.3036 N   0  0  0  0  0  0  0  0  0  0  0  0
    5.0287   -8.9365   16.8223 C   0  0  0  0  0  0  0  0  0  0  0  0
    8.7742   -6.1498   16.6764 C   0  0  0  0  0  0  0  0  0  0  0  0
   10.9418   -3.4032   21.2053 O   0  0  0  0  0  0  0  0  0  0  0  0
    1.4797   -8.6258   16.2950 C   0  0  0  0  0  0  0  0  0  0  0  0
    9.2861   -1.2743   25.3585 C   0  0  0  0  0  0  0  0  0  0  0  0
    1.8892  -10.3985   17.7511 N   0  0  0  0  0  0  0  0  0  0  0  0
    9.6210   -0.6952   24.0976 C   0  0  0  0  0  0  0  0  0  0  0  0
    7.0792   -9.0217   17.1429 C   0  0  0  0  0  0  0  0  0  0  0  0
    3.1713  -10.1816   17.6634 C   0  0  0  0  0  0  0  0  0  0  0  0
    2.7878   -8.3822   16.2137 C   0  0  0  0  0  0  0  0  0  0  0  0
    9.4601   -2.6590   25.6528 C   0  0  0  0  0  0  0  0  0  0  0  0
   10.1182   -1.5672   23.1165 C   0  0  0  0  0  0  0  0  0  0  0  0
    1.0552   -9.6360   17.0650 C   0  0  0  0  0  0  0  0  0  0  0  0
    3.6519   -9.1783   16.9039 C   0  0  0  0  0  0  0  0  0  0  0  0
    7.8675   -7.0096   15.9415 C   0  0  0  0  0  0  0  0  0  0  0  0
    5.9733   -9.6553   17.3832 N   0  0  0  0  0  0  0  0  0  0  0  0
   10.2411   -2.9363   23.4301 C   0  0  0  0  0  0  0  0  0  0  0  0
   10.7288   -3.8197   19.9525 C   0  0  0  0  0  0  0  0  0  0  0  0
   10.1189   -5.0054   19.6987 C   0  0  0  0  0  0  0  0  0  0  0  0
  1  3  4  0
  1  7  4  0
  2 21  4  0
  2 27  4  0
  3  9  4  0
  3 10  4  0
  4  8  4  0
  4 18  4  0
  4 25  1  0
  5  9  4  0
  5 12  4  0
  6 13  1  0
  6 27  1  0
  7 28  4  0
  8 11  4  0
  9 29  4  0
 10 12  4  0
 11 24  1  0
 11 26  4  0
 12 25  1  0
 13 28  1  0
 14 20  4  0
 14 23  4  0
 15 17  4  0
 15 21  4  0
 16 19  4  0
 16 23  4  0
 17 22  4  0
 18 26  4  0
 19 24  4  0
 20 24  4  0
 22 27  4  0
 28 29  4  0
M  END
$$$$

 Created by Python create_sdf_string function

 29 33  0  0  0  0  0  0  0  0999 V2000
   10.7215   -3.3326   17.6437 C   0  0  0  0  0  0  0  0  0  0  0  0
    9.9489   -3.4675   24.6487 N   0  0  0  0  0  0  0  0  0  0  0  0
   10.0172   -4.4740   17.4101 C   0  0  0  0  0  0  0  0  0  0  0  0
    6.9051   -7.9575   16.4222 C   0  0  0  0  0  0  0  0  0  0  0  0
    8.9969   -6.3552   17.9668 N   0  0  0  0  0  0  0  0  0  0  0  0
   10.6702   -3.9051   22.4070 C   0  0  0  0  0  0  0  0  0  0  0  0
   11.0625   -3.0028   18.8894 C   0  0  0  0  0  0  0  0  0  0  0  0
    5.6180   -7.9194   16.1754 O   0  0  0  0  0  0  0  0  0  0  0  0
    9.7259   -5.3080   18.4485 C   0  0  0  0  0  0  0  0  0  0  0  0
    9.4578   -5.0200   16.3036 N   0  0  0  0  0  0  0  0  0  0  0  0
    5.0287   -8.9365   16.8223 C   0  0  0  0  0  0  0  0  0  0  0  0
    8.7742   -6.1498   16.6764 C   0  0  0  0  0  0  0  0  0  0  0  0
   10.9418   -3.4032   21.2053 O   0  0  0  0  0  0  0  0  0  0  0  0
    1.4797   -8.6258   16.2950 C   0  0  0  0  0  0  0  0  0  0  0  0
    9.2861   -1.2743   25.3585 C   0  0  0  0  0  0  0  0  0  0  0  0
    1.8892  -10.3985   17.7511 N   0  0  0  0  0  0  0  0  0  0  0  0
    9.6210   -0.6952   24.0976 C   0  0  0  0  0  0  0  0  0  0  0  0
    7.0792   -9.0217   17.1429 C   0  0  0  0  0  0  0  0  0  0  0  0
    3.1713  -10.1816   17.6634 C   0  0  0  0  0  0  0  0  0  0  0  0
    2.7878   -8.3822   16.2137 C   0  0  0  0  0  0  0  0  0  0  0  0
    9.4601   -2.6590   25.6528 C   0  0  0  0  0  0  0  0  0  0  0  0
   10.1182   -1.5672   23.1165 C   0  0  0  0  0  0  0  0  0  0  0  0
    1.0552   -9.6360   17.0650 C   0  0  0  0  0  0  0  0  0  0  0  0
    3.6519   -9.1783   16.9039 C   0  0  0  0  0  0  0  0  0  0  0  0
    7.8675   -7.0096   15.9415 C   0  0  0  0  0  0  0  0  0  0  0  0
    5.9733   -9.6553   17.3832 N   0  0  0  0  0  0  0  0  0  0  0  0
   10.2411   -2.9363   23.4301 C   0  0  0  0  0  0  0  0  0  0  0  0
   10.7288   -3.8197   19.9525 C   0  0  0  0  0  0  0  0  0  0  0  0
   10.1189   -5.0054   19.6987 C   0  0  0  0  0  0  0  0  0  0  0  0
  1  3  4  0
  1  7  4  0
  2 21  4  0
  2 27  4  0
  3  9  4  0
  3 10  4  0
  4  8  4  0
  4 18  4  0
  4 25  1  0
  5  9  4  0
  5 12  4  0
  6 13  1  0
  6 27  1  0
  7 28  4  0
  8 11  4  0
  9 29  4  0
 10 12  4  0
 11 24  1  0
 11 26  4  0
 12 25  1  0
 13 28  1  0
 14 20  4  0
 14 23  4  0
 15 17  4  0
 15 21  4  0
 16 19  4  0
 16 23  4  0
 17 22  4  0
 18 26  4  0
 19 24  4  0
 20 24  4  0
 22 27  4  0
 28 29  4  0
M  END
$$$$

 Created by Python create_sdf_string function

 29 33  0  0  0  0  0  0  0  0999 V2000
   10.7215   -3.3326   17.6437 C   0  0  0  0  0  0  0  0  0  0  0  0
    9.9489   -3.4675   24.6487 N   0  0  0  0  0  0  0  0  0  0  0  0
   10.0172   -4.4740   17.4101 C   0  0  0  0  0  0  0  0  0  0  0  0
    6.9051   -7.9575   16.4222 C   0  0  0  0  0  0  0  0  0  0  0  0
    8.9969   -6.3552   17.9668 N   0  0  0  0  0  0  0  0  0  0  0  0
   10.6702   -3.9051   22.4070 C   0  0  0  0  0  0  0  0  0  0  0  0
   11.0625   -3.0028   18.8894 C   0  0  0  0  0  0  0  0  0  0  0  0
    5.6180   -7.9194   16.1754 O   0  0  0  0  0  0  0  0  0  0  0  0
    9.7259   -5.3080   18.4485 C   0  0  0  0  0  0  0  0  0  0  0  0
    9.4578   -5.0200   16.3036 N   0  0  0  0  0  0  0  0  0  0  0  0
    5.0287   -8.9365   16.8223 C   0  0  0  0  0  0  0  0  0  0  0  0
    8.7742   -6.1498   16.6764 C   0  0  0  0  0  0  0  0  0  0  0  0
   10.9418   -3.4032   21.2053 O   0  0  0  0  0  0  0  0  0  0  0  0
    1.4797   -8.6258   16.2950 C   0  0  0  0  0  0  0  0  0  0  0  0
    9.2861   -1.2743   25.3585 C   0  0  0  0  0  0  0  0  0  0  0  0
    1.8892  -10.3985   17.7511 N   0  0  0  0  0  0  0  0  0  0  0  0
    9.6210   -0.6952   24.0976 C   0  0  0  0  0  0  0  0  0  0  0  0
    7.0792   -9.0217   17.1429 C   0  0  0  0  0  0  0  0  0  0  0  0
    3.1713  -10.1816   17.6634 C   0  0  0  0  0  0  0  0  0  0  0  0
    2.7878   -8.3822   16.2137 C   0  0  0  0  0  0  0  0  0  0  0  0
    9.4601   -2.6590   25.6528 C   0  0  0  0  0  0  0  0  0  0  0  0
   10.1182   -1.5672   23.1165 C   0  0  0  0  0  0  0  0  0  0  0  0
    1.0552   -9.6360   17.0650 C   0  0  0  0  0  0  0  0  0  0  0  0
    3.6519   -9.1783   16.9039 C   0  0  0  0  0  0  0  0  0  0  0  0
    7.8675   -7.0096   15.9415 C   0  0  0  0  0  0  0  0  0  0  0  0
    5.9733   -9.6553   17.3832 N   0  0  0  0  0  0  0  0  0  0  0  0
   10.2411   -2.9363   23.4301 C   0  0  0  0  0  0  0  0  0  0  0  0
   10.7288   -3.8197   19.9525 C   0  0  0  0  0  0  0  0  0  0  0  0
   10.1189   -5.0054   19.6987 C   0  0  0  0  0  0  0  0  0  0  0  0
  1  3  4  0
  1  7  4  0
  2 21  4  0
  2 27  4  0
  3  9  4  0
  3 10  4  0
  4  8  4  0
  4 18  4  0
  4 25  1  0
  5  9  4  0
  5 12  4  0
  6 13  1  0
  6 27  1  0
  7 28  4  0
  8 11  4  0
  9 29  4  0
 10 12  4  0
 11 24  1  0
 11 26  4  0
 12 25  1  0
 13 28  1  0
 14 20  4  0
 14 23  4  0
 15 17  4  0
 15 21  4  0
 16 19  4  0
 16 23  4  0
 17 22  4  0
 18 26  4  0
 19 24  4  0
 20 24  4  0
 22 27  4  0
 28 29  4  0
M  END
$$$$

 Created by Python create_sdf_string function

 29 33  0  0  0  0  0  0  0  0999 V2000
   10.7215   -3.3326   17.6437 C   0  0  0  0  0  0  0  0  0  0  0  0
    9.9489   -3.4675   24.6487 N   0  0  0  0  0  0  0  0  0  0  0  0
   10.0172   -4.4740   17.4101 C   0  0  0  0  0  0  0  0  0  0  0  0
    6.9051   -7.9575   16.4222 C   0  0  0  0  0  0  0  0  0  0  0  0
    8.9969   -6.3552   17.9668 N   0  0  0  0  0  0  0  0  0  0  0  0
   10.6702   -3.9051   22.4070 C   0  0  0  0  0  0  0  0  0  0  0  0
   11.0625   -3.0028   18.8894 C   0  0  0  0  0  0  0  0  0  0  0  0
    5.6180   -7.9194   16.1754 O   0  0  0  0  0  0  0  0  0  0  0  0
    9.7259   -5.3080   18.4485 C   0  0  0  0  0  0  0  0  0  0  0  0
    9.4578   -5.0200   16.3036 N   0  0  0  0  0  0  0  0  0  0  0  0
    5.0287   -8.9365   16.8223 C   0  0  0  0  0  0  0  0  0  0  0  0
    8.7742   -6.1498   16.6764 C   0  0  0  0  0  0  0  0  0  0  0  0
   10.9418   -3.4032   21.2053 O   0  0  0  0  0  0  0  0  0  0  0  0
    1.4797   -8.6258   16.2950 C   0  0  0  0  0  0  0  0  0  0  0  0
    9.2861   -1.2743   25.3585 C   0  0  0  0  0  0  0  0  0  0  0  0
    1.8892  -10.3985   17.7511 N   0  0  0  0  0  0  0  0  0  0  0  0
    9.6210   -0.6952   24.0976 C   0  0  0  0  0  0  0  0  0  0  0  0
    7.0792   -9.0217   17.1429 C   0  0  0  0  0  0  0  0  0  0  0  0
    3.1713  -10.1816   17.6634 C   0  0  0  0  0  0  0  0  0  0  0  0
    2.7878   -8.3822   16.2137 C   0  0  0  0  0  0  0  0  0  0  0  0
    9.4601   -2.6590   25.6528 C   0  0  0  0  0  0  0  0  0  0  0  0
   10.1182   -1.5672   23.1165 C   0  0  0  0  0  0  0  0  0  0  0  0
    1.0552   -9.6360   17.0650 C   0  0  0  0  0  0  0  0  0  0  0  0
    3.6519   -9.1783   16.9039 C   0  0  0  0  0  0  0  0  0  0  0  0
    7.8675   -7.0096   15.9415 C   0  0  0  0  0  0  0  0  0  0  0  0
    5.9733   -9.6553   17.3832 N   0  0  0  0  0  0  0  0  0  0  0  0
   10.2411   -2.9363   23.4301 C   0  0  0  0  0  0  0  0  0  0  0  0
   10.7288   -3.8197   19.9525 C   0  0  0  0  0  0  0  0  0  0  0  0
   10.1189   -5.0054   19.6987 C   0  0  0  0  0  0  0  0  0  0  0  0
  1  3  4  0
  1  7  4  0
  2 21  4  0
  2 27  4  0
  3  9  4  0
  3 10  4  0
  4  8  4  0
  4 18  4  0
  4 25  1  0
  5  9  4  0
  5 12  4  0
  6 13  1  0
  6 27  1  0
  7 28  4  0
  8 11  4  0
  9 29  4  0
 10 12  4  0
 11 24  1  0
 11 26  4  0
 12 25  1  0
 13 28  1  0
 14 20  4  0
 14 23  4  0
 15 17  4  0
 15 21  4  0
 16 19  4  0
 16 23  4  0
 17 22  4  0
 18 26  4  0
 19 24  4  0
 20 24  4  0
 22 27  4  0
 28 29  4  0
M  END
$$$$

 Created by Python create_sdf_string function

 29 33  0  0  0  0  0  0  0  0999 V2000
   10.7215   -3.3326   17.6437 C   0  0  0  0  0  0  0  0  0  0  0  0
    9.9489   -3.4675   24.6487 N   0  0  0  0  0  0  0  0  0  0  0  0
   10.0172   -4.4740   17.4101 C   0  0  0  0  0  0  0  0  0  0  0  0
    6.9051   -7.9575   16.4222 C   0  0  0  0  0  0  0  0  0  0  0  0
    8.9969   -6.3552   17.9668 N   0  0  0  0  0  0  0  0  0  0  0  0
   10.6702   -3.9051   22.4070 C   0  0  0  0  0  0  0  0  0  0  0  0
   11.0625   -3.0028   18.8894 C   0  0  0  0  0  0  0  0  0  0  0  0
    5.6180   -7.9194   16.1754 O   0  0  0  0  0  0  0  0  0  0  0  0
    9.7259   -5.3080   18.4485 C   0  0  0  0  0  0  0  0  0  0  0  0
    9.4578   -5.0200   16.3036 N   0  0  0  0  0  0  0  0  0  0  0  0
    5.0287   -8.9365   16.8223 C   0  0  0  0  0  0  0  0  0  0  0  0
    8.7742   -6.1498   16.6764 C   0  0  0  0  0  0  0  0  0  0  0  0
   10.9418   -3.4032   21.2053 O   0  0  0  0  0  0  0  0  0  0  0  0
    1.4797   -8.6258   16.2950 C   0  0  0  0  0  0  0  0  0  0  0  0
    9.2861   -1.2743   25.3585 C   0  0  0  0  0  0  0  0  0  0  0  0
    1.8892  -10.3985   17.7511 N   0  0  0  0  0  0  0  0  0  0  0  0
    9.6210   -0.6952   24.0976 C   0  0  0  0  0  0  0  0  0  0  0  0
    7.0792   -9.0217   17.1429 C   0  0  0  0  0  0  0  0  0  0  0  0
    3.1713  -10.1816   17.6634 C   0  0  0  0  0  0  0  0  0  0  0  0
    2.7878   -8.3822   16.2137 C   0  0  0  0  0  0  0  0  0  0  0  0
    9.4601   -2.6590   25.6528 C   0  0  0  0  0  0  0  0  0  0  0  0
   10.1182   -1.5672   23.1165 C   0  0  0  0  0  0  0  0  0  0  0  0
    1.0552   -9.6360   17.0650 C   0  0  0  0  0  0  0  0  0  0  0  0
    3.6519   -9.1783   16.9039 C   0  0  0  0  0  0  0  0  0  0  0  0
    7.8675   -7.0096   15.9415 C   0  0  0  0  0  0  0  0  0  0  0  0
    5.9733   -9.6553   17.3832 N   0  0  0  0  0  0  0  0  0  0  0  0
   10.2411   -2.9363   23.4301 C   0  0  0  0  0  0  0  0  0  0  0  0
   10.7288   -3.8197   19.9525 C   0  0  0  0  0  0  0  0  0  0  0  0
   10.1189   -5.0054   19.6987 C   0  0  0  0  0  0  0  0  0  0  0  0
  1  3  4  0
  1  7  4  0
  2 21  4  0
  2 27  4  0
  3  9  4  0
  3 10  4  0
  4  8  4  0
  4 18  4  0
  4 25  1  0
  5  9  4  0
  5 12  4  0
  6 13  1  0
  6 27  1  0
  7 28  4  0
  8 11  4  0
  9 29  4  0
 10 12  4  0
 11 24  1  0
 11 26  4  0
 12 25  1  0
 13 28  1  0
 14 20  4  0
 14 23  4  0
 15 17  4  0
 15 21  4  0
 16 19  4  0
 16 23  4  0
 17 22  4  0
 18 26  4  0
 19 24  4  0
 20 24  4  0
 22 27  4  0
 28 29  4  0
M  END
$$$$

 Created by Python create_sdf_string function

 29 33  0  0  0  0  0  0  0  0999 V2000
   10.7215   -3.3326   17.6437 C   0  0  0  0  0  0  0  0  0  0  0  0
    9.9489   -3.4675   24.6487 N   0  0  0  0  0  0  0  0  0  0  0  0
   10.0172   -4.4740   17.4101 C   0  0  0  0  0  0  0  0  0  0  0  0
    6.9051   -7.9575   16.4222 C   0  0  0  0  0  0  0  0  0  0  0  0
    8.9969   -6.3552   17.9668 N   0  0  0  0  0  0  0  0  0  0  0  0
   10.6702   -3.9051   22.4070 C   0  0  0  0  0  0  0  0  0  0  0  0
   11.0625   -3.0028   18.8894 C   0  0  0  0  0  0  0  0  0  0  0  0
    5.6180   -7.9194   16.1754 O   0  0  0  0  0  0  0  0  0  0  0  0
    9.7259   -5.3080   18.4485 C   0  0  0  0  0  0  0  0  0  0  0  0
    9.4578   -5.0200   16.3036 N   0  0  0  0  0  0  0  0  0  0  0  0
    5.0287   -8.9365   16.8223 C   0  0  0  0  0  0  0  0  0  0  0  0
    8.7742   -6.1498   16.6764 C   0  0  0  0  0  0  0  0  0  0  0  0
   10.9418   -3.4032   21.2053 O   0  0  0  0  0  0  0  0  0  0  0  0
    1.4797   -8.6258   16.2950 C   0  0  0  0  0  0  0  0  0  0  0  0
    9.2861   -1.2743   25.3585 C   0  0  0  0  0  0  0  0  0  0  0  0
    1.8892  -10.3985   17.7511 N   0  0  0  0  0  0  0  0  0  0  0  0
    9.6210   -0.6952   24.0976 C   0  0  0  0  0  0  0  0  0  0  0  0
    7.0792   -9.0217   17.1429 C   0  0  0  0  0  0  0  0  0  0  0  0
    3.1713  -10.1816   17.6634 C   0  0  0  0  0  0  0  0  0  0  0  0
    2.7878   -8.3822   16.2137 C   0  0  0  0  0  0  0  0  0  0  0  0
    9.4601   -2.6590   25.6528 C   0  0  0  0  0  0  0  0  0  0  0  0
   10.1182   -1.5672   23.1165 C   0  0  0  0  0  0  0  0  0  0  0  0
    1.0552   -9.6360   17.0650 C   0  0  0  0  0  0  0  0  0  0  0  0
    3.6519   -9.1783   16.9039 C   0  0  0  0  0  0  0  0  0  0  0  0
    7.8675   -7.0096   15.9415 C   0  0  0  0  0  0  0  0  0  0  0  0
    5.9733   -9.6553   17.3832 N   0  0  0  0  0  0  0  0  0  0  0  0
   10.2411   -2.9363   23.4301 C   0  0  0  0  0  0  0  0  0  0  0  0
   10.7288   -3.8197   19.9525 C   0  0  0  0  0  0  0  0  0  0  0  0
   10.1189   -5.0054   19.6987 C   0  0  0  0  0  0  0  0  0  0  0  0
  1  3  4  0
  1  7  4  0
  2 21  4  0
  2 27  4  0
  3  9  4  0
  3 10  4  0
  4  8  4  0
  4 18  4  0
  4 25  1  0
  5  9  4  0
  5 12  4  0
  6 13  1  0
  6 27  1  0
  7 28  4  0
  8 11  4  0
  9 29  4  0
 10 12  4  0
 11 24  1  0
 11 26  4  0
 12 25  1  0
 13 28  1  0
 14 20  4  0
 14 23  4  0
 15 17  4  0
 15 21  4  0
 16 19  4  0
 16 23  4  0
 17 22  4  0
 18 26  4  0
 19 24  4  0
 20 24  4  0
 22 27  4  0
 28 29  4  0
M  END
$$$$

 Created by Python create_sdf_string function

 29 33  0  0  0  0  0  0  0  0999 V2000
   10.7215   -3.3326   17.6437 C   0  0  0  0  0  0  0  0  0  0  0  0
    9.9489   -3.4675   24.6487 N   0  0  0  0  0  0  0  0  0  0  0  0
   10.0172   -4.4740   17.4101 C   0  0  0  0  0  0  0  0  0  0  0  0
    6.9051   -7.9575   16.4222 C   0  0  0  0  0  0  0  0  0  0  0  0
    8.9969   -6.3552   17.9668 N   0  0  0  0  0  0  0  0  0  0  0  0
   10.6702   -3.9051   22.4070 C   0  0  0  0  0  0  0  0  0  0  0  0
   11.0625   -3.0028   18.8894 C   0  0  0  0  0  0  0  0  0  0  0  0
    5.6180   -7.9194   16.1754 O   0  0  0  0  0  0  0  0  0  0  0  0
    9.7259   -5.3080   18.4485 C   0  0  0  0  0  0  0  0  0  0  0  0
    9.4578   -5.0200   16.3036 N   0  0  0  0  0  0  0  0  0  0  0  0
    5.0287   -8.9365   16.8223 C   0  0  0  0  0  0  0  0  0  0  0  0
    8.7742   -6.1498   16.6764 C   0  0  0  0  0  0  0  0  0  0  0  0
   10.9418   -3.4032   21.2053 O   0  0  0  0  0  0  0  0  0  0  0  0
    1.4797   -8.6258   16.2950 C   0  0  0  0  0  0  0  0  0  0  0  0
    9.2861   -1.2743   25.3585 C   0  0  0  0  0  0  0  0  0  0  0  0
    1.8892  -10.3985   17.7511 N   0  0  0  0  0  0  0  0  0  0  0  0
    9.6210   -0.6952   24.0976 C   0  0  0  0  0  0  0  0  0  0  0  0
    7.0792   -9.0217   17.1429 C   0  0  0  0  0  0  0  0  0  0  0  0
    3.1713  -10.1816   17.6634 C   0  0  0  0  0  0  0  0  0  0  0  0
    2.7878   -8.3822   16.2137 C   0  0  0  0  0  0  0  0  0  0  0  0
    9.4601   -2.6590   25.6528 C   0  0  0  0  0  0  0  0  0  0  0  0
   10.1182   -1.5672   23.1165 C   0  0  0  0  0  0  0  0  0  0  0  0
    1.0552   -9.6360   17.0650 C   0  0  0  0  0  0  0  0  0  0  0  0
    3.6519   -9.1783   16.9039 C   0  0  0  0  0  0  0  0  0  0  0  0
    7.8675   -7.0096   15.9415 C   0  0  0  0  0  0  0  0  0  0  0  0
    5.9733   -9.6553   17.3832 N   0  0  0  0  0  0  0  0  0  0  0  0
   10.2411   -2.9363   23.4301 C   0  0  0  0  0  0  0  0  0  0  0  0
   10.7288   -3.8197   19.9525 C   0  0  0  0  0  0  0  0  0  0  0  0
   10.1189   -5.0054   19.6987 C   0  0  0  0  0  0  0  0  0  0  0  0
  1  3  4  0
  1  7  4  0
  2 21  4  0
  2 27  4  0
  3  9  4  0
  3 10  4  0
  4  8  4  0
  4 18  4  0
  4 25  1  0
  5  9  4  0
  5 12  4  0
  6 13  1  0
  6 27  1  0
  7 28  4  0
  8 11  4  0
  9 29  4  0
 10 12  4  0
 11 24  1  0
 11 26  4  0
 12 25  1  0
 13 28  1  0
 14 20  4  0
 14 23  4  0
 15 17  4  0
 15 21  4  0
 16 19  4  0
 16 23  4  0
 17 22  4  0
 18 26  4  0
 19 24  4  0
 20 24  4  0
 22 27  4  0
 28 29  4  0
M  END
$$$$

 Created by Python create_sdf_string function

 29 33  0  0  0  0  0  0  0  0999 V2000
   10.7215   -3.3326   17.6437 C   0  0  0  0  0  0  0  0  0  0  0  0
    9.9489   -3.4675   24.6487 N   0  0  0  0  0  0  0  0  0  0  0  0
   10.0172   -4.4740   17.4101 C   0  0  0  0  0  0  0  0  0  0  0  0
    6.9051   -7.9575   16.4222 C   0  0  0  0  0  0  0  0  0  0  0  0
    8.9969   -6.3552   17.9668 N   0  0  0  0  0  0  0  0  0  0  0  0
   10.6702   -3.9051   22.4070 C   0  0  0  0  0  0  0  0  0  0  0  0
   11.0625   -3.0028   18.8894 C   0  0  0  0  0  0  0  0  0  0  0  0
    5.6180   -7.9194   16.1754 O   0  0  0  0  0  0  0  0  0  0  0  0
    9.7259   -5.3080   18.4485 C   0  0  0  0  0  0  0  0  0  0  0  0
    9.4578   -5.0200   16.3036 N   0  0  0  0  0  0  0  0  0  0  0  0
    5.0287   -8.9365   16.8223 C   0  0  0  0  0  0  0  0  0  0  0  0
    8.7742   -6.1498   16.6764 C   0  0  0  0  0  0  0  0  0  0  0  0
   10.9418   -3.4032   21.2053 O   0  0  0  0  0  0  0  0  0  0  0  0
    1.4797   -8.6258   16.2950 C   0  0  0  0  0  0  0  0  0  0  0  0
    9.2861   -1.2743   25.3585 C   0  0  0  0  0  0  0  0  0  0  0  0
    1.8892  -10.3985   17.7511 N   0  0  0  0  0  0  0  0  0  0  0  0
    9.6210   -0.6952   24.0976 C   0  0  0  0  0  0  0  0  0  0  0  0
    7.0792   -9.0217   17.1429 C   0  0  0  0  0  0  0  0  0  0  0  0
    3.1713  -10.1816   17.6634 C   0  0  0  0  0  0  0  0  0  0  0  0
    2.7878   -8.3822   16.2137 C   0  0  0  0  0  0  0  0  0  0  0  0
    9.4601   -2.6590   25.6528 C   0  0  0  0  0  0  0  0  0  0  0  0
   10.1182   -1.5672   23.1165 C   0  0  0  0  0  0  0  0  0  0  0  0
    1.0552   -9.6360   17.0650 C   0  0  0  0  0  0  0  0  0  0  0  0
    3.6519   -9.1783   16.9039 C   0  0  0  0  0  0  0  0  0  0  0  0
    7.8675   -7.0096   15.9415 C   0  0  0  0  0  0  0  0  0  0  0  0
    5.9733   -9.6553   17.3832 N   0  0  0  0  0  0  0  0  0  0  0  0
   10.2411   -2.9363   23.4301 C   0  0  0  0  0  0  0  0  0  0  0  0
   10.7288   -3.8197   19.9525 C   0  0  0  0  0  0  0  0  0  0  0  0
   10.1189   -5.0054   19.6987 C   0  0  0  0  0  0  0  0  0  0  0  0
  1  3  4  0
  1  7  4  0
  2 21  4  0
  2 27  4  0
  3  9  4  0
  3 10  4  0
  4  8  4  0
  4 18  4  0
  4 25  1  0
  5  9  4  0
  5 12  4  0
  6 13  1  0
  6 27  1  0
  7 28  4  0
  8 11  4  0
  9 29  4  0
 10 12  4  0
 11 24  1  0
 11 26  4  0
 12 25  1  0
 13 28  1  0
 14 20  4  0
 14 23  4  0
 15 17  4  0
 15 21  4  0
 16 19  4  0
 16 23  4  0
 17 22  4  0
 18 26  4  0
 19 24  4  0
 20 24  4  0
 22 27  4  0
 28 29  4  0
M  END
$$$$

 Created by Python create_sdf_string function

 29 33  0  0  0  0  0  0  0  0999 V2000
   10.7215   -3.3326   17.6437 C   0  0  0  0  0  0  0  0  0  0  0  0
    9.9489   -3.4675   24.6487 N   0  0  0  0  0  0  0  0  0  0  0  0
   10.0172   -4.4740   17.4101 C   0  0  0  0  0  0  0  0  0  0  0  0
    6.9051   -7.9575   16.4222 C   0  0  0  0  0  0  0  0  0  0  0  0
    8.9969   -6.3552   17.9668 N   0  0  0  0  0  0  0  0  0  0  0  0
   10.6702   -3.9051   22.4070 C   0  0  0  0  0  0  0  0  0  0  0  0
   11.0625   -3.0028   18.8894 C   0  0  0  0  0  0  0  0  0  0  0  0
    5.6180   -7.9194   16.1754 O   0  0  0  0  0  0  0  0  0  0  0  0
    9.7259   -5.3080   18.4485 C   0  0  0  0  0  0  0  0  0  0  0  0
    9.4578   -5.0200   16.3036 N   0  0  0  0  0  0  0  0  0  0  0  0
    5.0287   -8.9365   16.8223 C   0  0  0  0  0  0  0  0  0  0  0  0
    8.7742   -6.1498   16.6764 C   0  0  0  0  0  0  0  0  0  0  0  0
   10.9418   -3.4032   21.2053 O   0  0  0  0  0  0  0  0  0  0  0  0
    1.4797   -8.6258   16.2950 C   0  0  0  0  0  0  0  0  0  0  0  0
    9.2861   -1.2743   25.3585 C   0  0  0  0  0  0  0  0  0  0  0  0
    1.8892  -10.3985   17.7511 N   0  0  0  0  0  0  0  0  0  0  0  0
    9.6210   -0.6952   24.0976 C   0  0  0  0  0  0  0  0  0  0  0  0
    7.0792   -9.0217   17.1429 C   0  0  0  0  0  0  0  0  0  0  0  0
    3.1713  -10.1816   17.6634 C   0  0  0  0  0  0  0  0  0  0  0  0
    2.7878   -8.3822   16.2137 C   0  0  0  0  0  0  0  0  0  0  0  0
    9.4601   -2.6590   25.6528 C   0  0  0  0  0  0  0  0  0  0  0  0
   10.1182   -1.5672   23.1165 C   0  0  0  0  0  0  0  0  0  0  0  0
    1.0552   -9.6360   17.0650 C   0  0  0  0  0  0  0  0  0  0  0  0
    3.6519   -9.1783   16.9039 C   0  0  0  0  0  0  0  0  0  0  0  0
    7.8675   -7.0096   15.9415 C   0  0  0  0  0  0  0  0  0  0  0  0
    5.9733   -9.6553   17.3832 N   0  0  0  0  0  0  0  0  0  0  0  0
   10.2411   -2.9363   23.4301 C   0  0  0  0  0  0  0  0  0  0  0  0
   10.7288   -3.8197   19.9525 C   0  0  0  0  0  0  0  0  0  0  0  0
   10.1189   -5.0054   19.6987 C   0  0  0  0  0  0  0  0  0  0  0  0
  1  3  4  0
  1  7  4  0
  2 21  4  0
  2 27  4  0
  3  9  4  0
  3 10  4  0
  4  8  4  0
  4 18  4  0
  4 25  1  0
  5  9  4  0
  5 12  4  0
  6 13  1  0
  6 27  1  0
  7 28  4  0
  8 11  4  0
  9 29  4  0
 10 12  4  0
 11 24  1  0
 11 26  4  0
 12 25  1  0
 13 28  1  0
 14 20  4  0
 14 23  4  0
 15 17  4  0
 15 21  4  0
 16 19  4  0
 16 23  4  0
 17 22  4  0
 18 26  4  0
 19 24  4  0
 20 24  4  0
 22 27  4  0
 28 29  4  0
M  END
$$$$

 Created by Python create_sdf_string function

 29 33  0  0  0  0  0  0  0  0999 V2000
   10.7215   -3.3326   17.6437 C   0  0  0  0  0  0  0  0  0  0  0  0
    9.9489   -3.4675   24.6487 N   0  0  0  0  0  0  0  0  0  0  0  0
   10.0172   -4.4740   17.4101 C   0  0  0  0  0  0  0  0  0  0  0  0
    6.9051   -7.9575   16.4222 C   0  0  0  0  0  0  0  0  0  0  0  0
    8.9969   -6.3552   17.9668 N   0  0  0  0  0  0  0  0  0  0  0  0
   10.6702   -3.9051   22.4070 C   0  0  0  0  0  0  0  0  0  0  0  0
   11.0625   -3.0028   18.8894 C   0  0  0  0  0  0  0  0  0  0  0  0
    5.6180   -7.9194   16.1754 O   0  0  0  0  0  0  0  0  0  0  0  0
    9.7259   -5.3080   18.4485 C   0  0  0  0  0  0  0  0  0  0  0  0
    9.4578   -5.0200   16.3036 N   0  0  0  0  0  0  0  0  0  0  0  0
    5.0287   -8.9365   16.8223 C   0  0  0  0  0  0  0  0  0  0  0  0
    8.7742   -6.1498   16.6764 C   0  0  0  0  0  0  0  0  0  0  0  0
   10.9418   -3.4032   21.2053 O   0  0  0  0  0  0  0  0  0  0  0  0
    1.4797   -8.6258   16.2950 C   0  0  0  0  0  0  0  0  0  0  0  0
    9.2861   -1.2743   25.3585 C   0  0  0  0  0  0  0  0  0  0  0  0
    1.8892  -10.3985   17.7511 N   0  0  0  0  0  0  0  0  0  0  0  0
    9.6210   -0.6952   24.0976 C   0  0  0  0  0  0  0  0  0  0  0  0
    7.0792   -9.0217   17.1429 C   0  0  0  0  0  0  0  0  0  0  0  0
    3.1713  -10.1816   17.6634 C   0  0  0  0  0  0  0  0  0  0  0  0
    2.7878   -8.3822   16.2137 C   0  0  0  0  0  0  0  0  0  0  0  0
    9.4601   -2.6590   25.6528 C   0  0  0  0  0  0  0  0  0  0  0  0
   10.1182   -1.5672   23.1165 C   0  0  0  0  0  0  0  0  0  0  0  0
    1.0552   -9.6360   17.0650 C   0  0  0  0  0  0  0  0  0  0  0  0
    3.6519   -9.1783   16.9039 C   0  0  0  0  0  0  0  0  0  0  0  0
    7.8675   -7.0096   15.9415 C   0  0  0  0  0  0  0  0  0  0  0  0
    5.9733   -9.6553   17.3832 N   0  0  0  0  0  0  0  0  0  0  0  0
   10.2411   -2.9363   23.4301 C   0  0  0  0  0  0  0  0  0  0  0  0
   10.7288   -3.8197   19.9525 C   0  0  0  0  0  0  0  0  0  0  0  0
   10.1189   -5.0054   19.6987 C   0  0  0  0  0  0  0  0  0  0  0  0
  1  3  4  0
  1  7  4  0
  2 21  4  0
  2 27  4  0
  3  9  4  0
  3 10  4  0
  4  8  4  0
  4 18  4  0
  4 25  1  0
  5  9  4  0
  5 12  4  0
  6 13  1  0
  6 27  1  0
  7 28  4  0
  8 11  4  0
  9 29  4  0
 10 12  4  0
 11 24  1  0
 11 26  4  0
 12 25  1  0
 13 28  1  0
 14 20  4  0
 14 23  4  0
 15 17  4  0
 15 21  4  0
 16 19  4  0
 16 23  4  0
 17 22  4  0
 18 26  4  0
 19 24  4  0
 20 24  4  0
 22 27  4  0
 28 29  4  0
M  END
$$$$

 Created by Python create_sdf_string function

 29 33  0  0  0  0  0  0  0  0999 V2000
   10.7215   -3.3326   17.6437 C   0  0  0  0  0  0  0  0  0  0  0  0
    9.9489   -3.4675   24.6487 N   0  0  0  0  0  0  0  0  0  0  0  0
   10.0172   -4.4740   17.4101 C   0  0  0  0  0  0  0  0  0  0  0  0
    6.9051   -7.9575   16.4222 C   0  0  0  0  0  0  0  0  0  0  0  0
    8.9969   -6.3552   17.9668 N   0  0  0  0  0  0  0  0  0  0  0  0
   10.6702   -3.9051   22.4070 C   0  0  0  0  0  0  0  0  0  0  0  0
   11.0625   -3.0028   18.8894 C   0  0  0  0  0  0  0  0  0  0  0  0
    5.6180   -7.9194   16.1754 O   0  0  0  0  0  0  0  0  0  0  0  0
    9.7259   -5.3080   18.4485 C   0  0  0  0  0  0  0  0  0  0  0  0
    9.4578   -5.0200   16.3036 N   0  0  0  0  0  0  0  0  0  0  0  0
    5.0287   -8.9365   16.8223 C   0  0  0  0  0  0  0  0  0  0  0  0
    8.7742   -6.1498   16.6764 C   0  0  0  0  0  0  0  0  0  0  0  0
   10.9418   -3.4032   21.2053 O   0  0  0  0  0  0  0  0  0  0  0  0
    1.4797   -8.6258   16.2950 C   0  0  0  0  0  0  0  0  0  0  0  0
    9.2861   -1.2743   25.3585 C   0  0  0  0  0  0  0  0  0  0  0  0
    1.8892  -10.3985   17.7511 N   0  0  0  0  0  0  0  0  0  0  0  0
    9.6210   -0.6952   24.0976 C   0  0  0  0  0  0  0  0  0  0  0  0
    7.0792   -9.0217   17.1429 C   0  0  0  0  0  0  0  0  0  0  0  0
    3.1713  -10.1816   17.6634 C   0  0  0  0  0  0  0  0  0  0  0  0
    2.7878   -8.3822   16.2137 C   0  0  0  0  0  0  0  0  0  0  0  0
    9.4601   -2.6590   25.6528 C   0  0  0  0  0  0  0  0  0  0  0  0
   10.1182   -1.5672   23.1165 C   0  0  0  0  0  0  0  0  0  0  0  0
    1.0552   -9.6360   17.0650 C   0  0  0  0  0  0  0  0  0  0  0  0
    3.6519   -9.1783   16.9039 C   0  0  0  0  0  0  0  0  0  0  0  0
    7.8675   -7.0096   15.9415 C   0  0  0  0  0  0  0  0  0  0  0  0
    5.9733   -9.6553   17.3832 N   0  0  0  0  0  0  0  0  0  0  0  0
   10.2411   -2.9363   23.4301 C   0  0  0  0  0  0  0  0  0  0  0  0
   10.7288   -3.8197   19.9525 C   0  0  0  0  0  0  0  0  0  0  0  0
   10.1189   -5.0054   19.6987 C   0  0  0  0  0  0  0  0  0  0  0  0
  1  3  4  0
  1  7  4  0
  2 21  4  0
  2 27  4  0
  3  9  4  0
  3 10  4  0
  4  8  4  0
  4 18  4  0
  4 25  1  0
  5  9  4  0
  5 12  4  0
  6 13  1  0
  6 27  1  0
  7 28  4  0
  8 11  4  0
  9 29  4  0
 10 12  4  0
 11 24  1  0
 11 26  4  0
 12 25  1  0
 13 28  1  0
 14 20  4  0
 14 23  4  0
 15 17  4  0
 15 21  4  0
 16 19  4  0
 16 23  4  0
 17 22  4  0
 18 26  4  0
 19 24  4  0
 20 24  4  0
 22 27  4  0
 28 29  4  0
M  END
$$$$

 Created by Python create_sdf_string function

 29 33  0  0  0  0  0  0  0  0999 V2000
   10.7215   -3.3326   17.6437 C   0  0  0  0  0  0  0  0  0  0  0  0
    9.9489   -3.4675   24.6487 N   0  0  0  0  0  0  0  0  0  0  0  0
   10.0172   -4.4740   17.4101 C   0  0  0  0  0  0  0  0  0  0  0  0
    6.9051   -7.9575   16.4222 C   0  0  0  0  0  0  0  0  0  0  0  0
    8.9969   -6.3552   17.9668 N   0  0  0  0  0  0  0  0  0  0  0  0
   10.6702   -3.9051   22.4070 C   0  0  0  0  0  0  0  0  0  0  0  0
   11.0625   -3.0028   18.8894 C   0  0  0  0  0  0  0  0  0  0  0  0
    5.6180   -7.9194   16.1754 O   0  0  0  0  0  0  0  0  0  0  0  0
    9.7259   -5.3080   18.4485 C   0  0  0  0  0  0  0  0  0  0  0  0
    9.4578   -5.0200   16.3036 N   0  0  0  0  0  0  0  0  0  0  0  0
    5.0287   -8.9365   16.8223 C   0  0  0  0  0  0  0  0  0  0  0  0
    8.7742   -6.1498   16.6764 C   0  0  0  0  0  0  0  0  0  0  0  0
   10.9418   -3.4032   21.2053 O   0  0  0  0  0  0  0  0  0  0  0  0
    1.4797   -8.6258   16.2950 C   0  0  0  0  0  0  0  0  0  0  0  0
    9.2861   -1.2743   25.3585 C   0  0  0  0  0  0  0  0  0  0  0  0
    1.8892  -10.3985   17.7511 N   0  0  0  0  0  0  0  0  0  0  0  0
    9.6210   -0.6952   24.0976 C   0  0  0  0  0  0  0  0  0  0  0  0
    7.0792   -9.0217   17.1429 C   0  0  0  0  0  0  0  0  0  0  0  0
    3.1713  -10.1816   17.6634 C   0  0  0  0  0  0  0  0  0  0  0  0
    2.7878   -8.3822   16.2137 C   0  0  0  0  0  0  0  0  0  0  0  0
    9.4601   -2.6590   25.6528 C   0  0  0  0  0  0  0  0  0  0  0  0
   10.1182   -1.5672   23.1165 C   0  0  0  0  0  0  0  0  0  0  0  0
    1.0552   -9.6360   17.0650 C   0  0  0  0  0  0  0  0  0  0  0  0
    3.6519   -9.1783   16.9039 C   0  0  0  0  0  0  0  0  0  0  0  0
    7.8675   -7.0096   15.9415 C   0  0  0  0  0  0  0  0  0  0  0  0
    5.9733   -9.6553   17.3832 N   0  0  0  0  0  0  0  0  0  0  0  0
   10.2411   -2.9363   23.4301 C   0  0  0  0  0  0  0  0  0  0  0  0
   10.7288   -3.8197   19.9525 C   0  0  0  0  0  0  0  0  0  0  0  0
   10.1189   -5.0054   19.6987 C   0  0  0  0  0  0  0  0  0  0  0  0
  1  3  4  0
  1  7  4  0
  2 21  4  0
  2 27  4  0
  3  9  4  0
  3 10  4  0
  4  8  4  0
  4 18  4  0
  4 25  1  0
  5  9  4  0
  5 12  4  0
  6 13  1  0
  6 27  1  0
  7 28  4  0
  8 11  4  0
  9 29  4  0
 10 12  4  0
 11 24  1  0
 11 26  4  0
 12 25  1  0
 13 28  1  0
 14 20  4  0
 14 23  4  0
 15 17  4  0
 15 21  4  0
 16 19  4  0
 16 23  4  0
 17 22  4  0
 18 26  4  0
 19 24  4  0
 20 24  4  0
 22 27  4  0
 28 29  4  0
M  END
$$$$

 Created by Python create_sdf_string function

 29 33  0  0  0  0  0  0  0  0999 V2000
   10.7215   -3.3326   17.6437 C   0  0  0  0  0  0  0  0  0  0  0  0
    9.9489   -3.4675   24.6487 N   0  0  0  0  0  0  0  0  0  0  0  0
   10.0172   -4.4740   17.4101 C   0  0  0  0  0  0  0  0  0  0  0  0
    6.9051   -7.9575   16.4222 C   0  0  0  0  0  0  0  0  0  0  0  0
    8.9969   -6.3552   17.9668 N   0  0  0  0  0  0  0  0  0  0  0  0
   10.6702   -3.9051   22.4070 C   0  0  0  0  0  0  0  0  0  0  0  0
   11.0625   -3.0028   18.8894 C   0  0  0  0  0  0  0  0  0  0  0  0
    5.6180   -7.9194   16.1754 O   0  0  0  0  0  0  0  0  0  0  0  0
    9.7259   -5.3080   18.4485 C   0  0  0  0  0  0  0  0  0  0  0  0
    9.4578   -5.0200   16.3036 N   0  0  0  0  0  0  0  0  0  0  0  0
    5.0287   -8.9365   16.8223 C   0  0  0  0  0  0  0  0  0  0  0  0
    8.7742   -6.1498   16.6764 C   0  0  0  0  0  0  0  0  0  0  0  0
   10.9418   -3.4032   21.2053 O   0  0  0  0  0  0  0  0  0  0  0  0
    1.4797   -8.6258   16.2950 C   0  0  0  0  0  0  0  0  0  0  0  0
    9.2861   -1.2743   25.3585 C   0  0  0  0  0  0  0  0  0  0  0  0
    1.8892  -10.3985   17.7511 N   0  0  0  0  0  0  0  0  0  0  0  0
    9.6210   -0.6952   24.0976 C   0  0  0  0  0  0  0  0  0  0  0  0
    7.0792   -9.0217   17.1429 C   0  0  0  0  0  0  0  0  0  0  0  0
    3.1713  -10.1816   17.6634 C   0  0  0  0  0  0  0  0  0  0  0  0
    2.7878   -8.3822   16.2137 C   0  0  0  0  0  0  0  0  0  0  0  0
    9.4601   -2.6590   25.6528 C   0  0  0  0  0  0  0  0  0  0  0  0
   10.1182   -1.5672   23.1165 C   0  0  0  0  0  0  0  0  0  0  0  0
    1.0552   -9.6360   17.0650 C   0  0  0  0  0  0  0  0  0  0  0  0
    3.6519   -9.1783   16.9039 C   0  0  0  0  0  0  0  0  0  0  0  0
    7.8675   -7.0096   15.9415 C   0  0  0  0  0  0  0  0  0  0  0  0
    5.9733   -9.6553   17.3832 N   0  0  0  0  0  0  0  0  0  0  0  0
   10.2411   -2.9363   23.4301 C   0  0  0  0  0  0  0  0  0  0  0  0
   10.7288   -3.8197   19.9525 C   0  0  0  0  0  0  0  0  0  0  0  0
   10.1189   -5.0054   19.6987 C   0  0  0  0  0  0  0  0  0  0  0  0
  1  3  4  0
  1  7  4  0
  2 21  4  0
  2 27  4  0
  3  9  4  0
  3 10  4  0
  4  8  4  0
  4 18  4  0
  4 25  1  0
  5  9  4  0
  5 12  4  0
  6 13  1  0
  6 27  1  0
  7 28  4  0
  8 11  4  0
  9 29  4  0
 10 12  4  0
 11 24  1  0
 11 26  4  0
 12 25  1  0
 13 28  1  0
 14 20  4  0
 14 23  4  0
 15 17  4  0
 15 21  4  0
 16 19  4  0
 16 23  4  0
 17 22  4  0
 18 26  4  0
 19 24  4  0
 20 24  4  0
 22 27  4  0
 28 29  4  0
M  END
$$$$

 Created by Python create_sdf_string function

 29 33  0  0  0  0  0  0  0  0999 V2000
   10.7215   -3.3326   17.6437 C   0  0  0  0  0  0  0  0  0  0  0  0
    9.9489   -3.4675   24.6487 N   0  0  0  0  0  0  0  0  0  0  0  0
   10.0172   -4.4740   17.4101 C   0  0  0  0  0  0  0  0  0  0  0  0
    6.9051   -7.9575   16.4222 C   0  0  0  0  0  0  0  0  0  0  0  0
    8.9969   -6.3552   17.9668 N   0  0  0  0  0  0  0  0  0  0  0  0
   10.6702   -3.9051   22.4070 C   0  0  0  0  0  0  0  0  0  0  0  0
   11.0625   -3.0028   18.8894 C   0  0  0  0  0  0  0  0  0  0  0  0
    5.6180   -7.9194   16.1754 O   0  0  0  0  0  0  0  0  0  0  0  0
    9.7259   -5.3080   18.4485 C   0  0  0  0  0  0  0  0  0  0  0  0
    9.4578   -5.0200   16.3036 N   0  0  0  0  0  0  0  0  0  0  0  0
    5.0287   -8.9365   16.8223 C   0  0  0  0  0  0  0  0  0  0  0  0
    8.7742   -6.1498   16.6764 C   0  0  0  0  0  0  0  0  0  0  0  0
   10.9418   -3.4032   21.2053 O   0  0  0  0  0  0  0  0  0  0  0  0
    1.4797   -8.6258   16.2950 C   0  0  0  0  0  0  0  0  0  0  0  0
    9.2861   -1.2743   25.3585 C   0  0  0  0  0  0  0  0  0  0  0  0
    1.8892  -10.3985   17.7511 N   0  0  0  0  0  0  0  0  0  0  0  0
    9.6210   -0.6952   24.0976 C   0  0  0  0  0  0  0  0  0  0  0  0
    7.0792   -9.0217   17.1429 C   0  0  0  0  0  0  0  0  0  0  0  0
    3.1713  -10.1816   17.6634 C   0  0  0  0  0  0  0  0  0  0  0  0
    2.7878   -8.3822   16.2137 C   0  0  0  0  0  0  0  0  0  0  0  0
    9.4601   -2.6590   25.6528 C   0  0  0  0  0  0  0  0  0  0  0  0
   10.1182   -1.5672   23.1165 C   0  0  0  0  0  0  0  0  0  0  0  0
    1.0552   -9.6360   17.0650 C   0  0  0  0  0  0  0  0  0  0  0  0
    3.6519   -9.1783   16.9039 C   0  0  0  0  0  0  0  0  0  0  0  0
    7.8675   -7.0096   15.9415 C   0  0  0  0  0  0  0  0  0  0  0  0
    5.9733   -9.6553   17.3832 N   0  0  0  0  0  0  0  0  0  0  0  0
   10.2411   -2.9363   23.4301 C   0  0  0  0  0  0  0  0  0  0  0  0
   10.7288   -3.8197   19.9525 C   0  0  0  0  0  0  0  0  0  0  0  0
   10.1189   -5.0054   19.6987 C   0  0  0  0  0  0  0  0  0  0  0  0
  1  3  4  0
  1  7  4  0
  2 21  4  0
  2 27  4  0
  3  9  4  0
  3 10  4  0
  4  8  4  0
  4 18  4  0
  4 25  1  0
  5  9  4  0
  5 12  4  0
  6 13  1  0
  6 27  1  0
  7 28  4  0
  8 11  4  0
  9 29  4  0
 10 12  4  0
 11 24  1  0
 11 26  4  0
 12 25  1  0
 13 28  1  0
 14 20  4  0
 14 23  4  0
 15 17  4  0
 15 21  4  0
 16 19  4  0
 16 23  4  0
 17 22  4  0
 18 26  4  0
 19 24  4  0
 20 24  4  0
 22 27  4  0
 28 29  4  0
M  END
$$$$

 Created by Python create_sdf_string function

 29 33  0  0  0  0  0  0  0  0999 V2000
   10.7215   -3.3326   17.6437 C   0  0  0  0  0  0  0  0  0  0  0  0
    9.9489   -3.4675   24.6487 N   0  0  0  0  0  0  0  0  0  0  0  0
   10.0172   -4.4740   17.4101 C   0  0  0  0  0  0  0  0  0  0  0  0
    6.9051   -7.9575   16.4222 C   0  0  0  0  0  0  0  0  0  0  0  0
    8.9969   -6.3552   17.9668 N   0  0  0  0  0  0  0  0  0  0  0  0
   10.6702   -3.9051   22.4070 C   0  0  0  0  0  0  0  0  0  0  0  0
   11.0625   -3.0028   18.8894 C   0  0  0  0  0  0  0  0  0  0  0  0
    5.6180   -7.9194   16.1754 O   0  0  0  0  0  0  0  0  0  0  0  0
    9.7259   -5.3080   18.4485 C   0  0  0  0  0  0  0  0  0  0  0  0
    9.4578   -5.0200   16.3036 N   0  0  0  0  0  0  0  0  0  0  0  0
    5.0287   -8.9365   16.8223 C   0  0  0  0  0  0  0  0  0  0  0  0
    8.7742   -6.1498   16.6764 C   0  0  0  0  0  0  0  0  0  0  0  0
   10.9418   -3.4032   21.2053 O   0  0  0  0  0  0  0  0  0  0  0  0
    1.4797   -8.6258   16.2950 C   0  0  0  0  0  0  0  0  0  0  0  0
    9.2861   -1.2743   25.3585 C   0  0  0  0  0  0  0  0  0  0  0  0
    1.8892  -10.3985   17.7511 N   0  0  0  0  0  0  0  0  0  0  0  0
    9.6210   -0.6952   24.0976 C   0  0  0  0  0  0  0  0  0  0  0  0
    7.0792   -9.0217   17.1429 C   0  0  0  0  0  0  0  0  0  0  0  0
    3.1713  -10.1816   17.6634 C   0  0  0  0  0  0  0  0  0  0  0  0
    2.7878   -8.3822   16.2137 C   0  0  0  0  0  0  0  0  0  0  0  0
    9.4601   -2.6590   25.6528 C   0  0  0  0  0  0  0  0  0  0  0  0
   10.1182   -1.5672   23.1165 C   0  0  0  0  0  0  0  0  0  0  0  0
    1.0552   -9.6360   17.0650 C   0  0  0  0  0  0  0  0  0  0  0  0
    3.6519   -9.1783   16.9039 C   0  0  0  0  0  0  0  0  0  0  0  0
    7.8675   -7.0096   15.9415 C   0  0  0  0  0  0  0  0  0  0  0  0
    5.9733   -9.6553   17.3832 N   0  0  0  0  0  0  0  0  0  0  0  0
   10.2411   -2.9363   23.4301 C   0  0  0  0  0  0  0  0  0  0  0  0
   10.7288   -3.8197   19.9525 C   0  0  0  0  0  0  0  0  0  0  0  0
   10.1189   -5.0054   19.6987 C   0  0  0  0  0  0  0  0  0  0  0  0
  1  3  4  0
  1  7  4  0
  2 21  4  0
  2 27  4  0
  3  9  4  0
  3 10  4  0
  4  8  4  0
  4 18  4  0
  4 25  1  0
  5  9  4  0
  5 12  4  0
  6 13  1  0
  6 27  1  0
  7 28  4  0
  8 11  4  0
  9 29  4  0
 10 12  4  0
 11 24  1  0
 11 26  4  0
 12 25  1  0
 13 28  1  0
 14 20  4  0
 14 23  4  0
 15 17  4  0
 15 21  4  0
 16 19  4  0
 16 23  4  0
 17 22  4  0
 18 26  4  0
 19 24  4  0
 20 24  4  0
 22 27  4  0
 28 29  4  0
M  END
$$$$

 Created by Python create_sdf_string function

 29 33  0  0  0  0  0  0  0  0999 V2000
   10.7215   -3.3326   17.6437 C   0  0  0  0  0  0  0  0  0  0  0  0
    9.9489   -3.4675   24.6487 N   0  0  0  0  0  0  0  0  0  0  0  0
   10.0172   -4.4740   17.4101 C   0  0  0  0  0  0  0  0  0  0  0  0
    6.9051   -7.9575   16.4222 C   0  0  0  0  0  0  0  0  0  0  0  0
    8.9969   -6.3552   17.9668 N   0  0  0  0  0  0  0  0  0  0  0  0
   10.6702   -3.9051   22.4070 C   0  0  0  0  0  0  0  0  0  0  0  0
   11.0625   -3.0028   18.8894 C   0  0  0  0  0  0  0  0  0  0  0  0
    5.6180   -7.9194   16.1754 O   0  0  0  0  0  0  0  0  0  0  0  0
    9.7259   -5.3080   18.4485 C   0  0  0  0  0  0  0  0  0  0  0  0
    9.4578   -5.0200   16.3036 N   0  0  0  0  0  0  0  0  0  0  0  0
    5.0287   -8.9365   16.8223 C   0  0  0  0  0  0  0  0  0  0  0  0
    8.7742   -6.1498   16.6764 C   0  0  0  0  0  0  0  0  0  0  0  0
   10.9418   -3.4032   21.2053 O   0  0  0  0  0  0  0  0  0  0  0  0
    1.4797   -8.6258   16.2950 C   0  0  0  0  0  0  0  0  0  0  0  0
    9.2861   -1.2743   25.3585 C   0  0  0  0  0  0  0  0  0  0  0  0
    1.8892  -10.3985   17.7511 N   0  0  0  0  0  0  0  0  0  0  0  0
    9.6210   -0.6952   24.0976 C   0  0  0  0  0  0  0  0  0  0  0  0
    7.0792   -9.0217   17.1429 C   0  0  0  0  0  0  0  0  0  0  0  0
    3.1713  -10.1816   17.6634 C   0  0  0  0  0  0  0  0  0  0  0  0
    2.7878   -8.3822   16.2137 C   0  0  0  0  0  0  0  0  0  0  0  0
    9.4601   -2.6590   25.6528 C   0  0  0  0  0  0  0  0  0  0  0  0
   10.1182   -1.5672   23.1165 C   0  0  0  0  0  0  0  0  0  0  0  0
    1.0552   -9.6360   17.0650 C   0  0  0  0  0  0  0  0  0  0  0  0
    3.6519   -9.1783   16.9039 C   0  0  0  0  0  0  0  0  0  0  0  0
    7.8675   -7.0096   15.9415 C   0  0  0  0  0  0  0  0  0  0  0  0
    5.9733   -9.6553   17.3832 N   0  0  0  0  0  0  0  0  0  0  0  0
   10.2411   -2.9363   23.4301 C   0  0  0  0  0  0  0  0  0  0  0  0
   10.7288   -3.8197   19.9525 C   0  0  0  0  0  0  0  0  0  0  0  0
   10.1189   -5.0054   19.6987 C   0  0  0  0  0  0  0  0  0  0  0  0
  1  3  4  0
  1  7  4  0
  2 21  4  0
  2 27  4  0
  3  9  4  0
  3 10  4  0
  4  8  4  0
  4 18  4  0
  4 25  1  0
  5  9  4  0
  5 12  4  0
  6 13  1  0
  6 27  1  0
  7 28  4  0
  8 11  4  0
  9 29  4  0
 10 12  4  0
 11 24  1  0
 11 26  4  0
 12 25  1  0
 13 28  1  0
 14 20  4  0
 14 23  4  0
 15 17  4  0
 15 21  4  0
 16 19  4  0
 16 23  4  0
 17 22  4  0
 18 26  4  0
 19 24  4  0
 20 24  4  0
 22 27  4  0
 28 29  4  0
M  END
$$$$

 Created by Python create_sdf_string function

 29 33  0  0  0  0  0  0  0  0999 V2000
   10.7215   -3.3326   17.6437 C   0  0  0  0  0  0  0  0  0  0  0  0
    9.9489   -3.4675   24.6487 N   0  0  0  0  0  0  0  0  0  0  0  0
   10.0172   -4.4740   17.4101 C   0  0  0  0  0  0  0  0  0  0  0  0
    6.9051   -7.9575   16.4222 C   0  0  0  0  0  0  0  0  0  0  0  0
    8.9969   -6.3552   17.9668 N   0  0  0  0  0  0  0  0  0  0  0  0
   10.6702   -3.9051   22.4070 C   0  0  0  0  0  0  0  0  0  0  0  0
   11.0625   -3.0028   18.8894 C   0  0  0  0  0  0  0  0  0  0  0  0
    5.6180   -7.9194   16.1754 O   0  0  0  0  0  0  0  0  0  0  0  0
    9.7259   -5.3080   18.4485 C   0  0  0  0  0  0  0  0  0  0  0  0
    9.4578   -5.0200   16.3036 N   0  0  0  0  0  0  0  0  0  0  0  0
    5.0287   -8.9365   16.8223 C   0  0  0  0  0  0  0  0  0  0  0  0
    8.7742   -6.1498   16.6764 C   0  0  0  0  0  0  0  0  0  0  0  0
   10.9418   -3.4032   21.2053 O   0  0  0  0  0  0  0  0  0  0  0  0
    1.4797   -8.6258   16.2950 C   0  0  0  0  0  0  0  0  0  0  0  0
    9.2861   -1.2743   25.3585 C   0  0  0  0  0  0  0  0  0  0  0  0
    1.8892  -10.3985   17.7511 N   0  0  0  0  0  0  0  0  0  0  0  0
    9.6210   -0.6952   24.0976 C   0  0  0  0  0  0  0  0  0  0  0  0
    7.0792   -9.0217   17.1429 C   0  0  0  0  0  0  0  0  0  0  0  0
    3.1713  -10.1816   17.6634 C   0  0  0  0  0  0  0  0  0  0  0  0
    2.7878   -8.3822   16.2137 C   0  0  0  0  0  0  0  0  0  0  0  0
    9.4601   -2.6590   25.6528 C   0  0  0  0  0  0  0  0  0  0  0  0
   10.1182   -1.5672   23.1165 C   0  0  0  0  0  0  0  0  0  0  0  0
    1.0552   -9.6360   17.0650 C   0  0  0  0  0  0  0  0  0  0  0  0
    3.6519   -9.1783   16.9039 C   0  0  0  0  0  0  0  0  0  0  0  0
    7.8675   -7.0096   15.9415 C   0  0  0  0  0  0  0  0  0  0  0  0
    5.9733   -9.6553   17.3832 N   0  0  0  0  0  0  0  0  0  0  0  0
   10.2411   -2.9363   23.4301 C   0  0  0  0  0  0  0  0  0  0  0  0
   10.7288   -3.8197   19.9525 C   0  0  0  0  0  0  0  0  0  0  0  0
   10.1189   -5.0054   19.6987 C   0  0  0  0  0  0  0  0  0  0  0  0
  1  3  4  0
  1  7  4  0
  2 21  4  0
  2 27  4  0
  3  9  4  0
  3 10  4  0
  4  8  4  0
  4 18  4  0
  4 25  1  0
  5  9  4  0
  5 12  4  0
  6 13  1  0
  6 27  1  0
  7 28  4  0
  8 11  4  0
  9 29  4  0
 10 12  4  0
 11 24  1  0
 11 26  4  0
 12 25  1  0
 13 28  1  0
 14 20  4  0
 14 23  4  0
 15 17  4  0
 15 21  4  0
 16 19  4  0
 16 23  4  0
 17 22  4  0
 18 26  4  0
 19 24  4  0
 20 24  4  0
 22 27  4  0
 28 29  4  0
M  END
$$$$

 Created by Python create_sdf_string function

 29 33  0  0  0  0  0  0  0  0999 V2000
   10.7215   -3.3326   17.6437 C   0  0  0  0  0  0  0  0  0  0  0  0
    9.9489   -3.4675   24.6487 N   0  0  0  0  0  0  0  0  0  0  0  0
   10.0172   -4.4740   17.4101 C   0  0  0  0  0  0  0  0  0  0  0  0
    6.9051   -7.9575   16.4222 C   0  0  0  0  0  0  0  0  0  0  0  0
    8.9969   -6.3552   17.9668 N   0  0  0  0  0  0  0  0  0  0  0  0
   10.6702   -3.9051   22.4070 C   0  0  0  0  0  0  0  0  0  0  0  0
   11.0625   -3.0028   18.8894 C   0  0  0  0  0  0  0  0  0  0  0  0
    5.6180   -7.9194   16.1754 O   0  0  0  0  0  0  0  0  0  0  0  0
    9.7259   -5.3080   18.4485 C   0  0  0  0  0  0  0  0  0  0  0  0
    9.4578   -5.0200   16.3036 N   0  0  0  0  0  0  0  0  0  0  0  0
    5.0287   -8.9365   16.8223 C   0  0  0  0  0  0  0  0  0  0  0  0
    8.7742   -6.1498   16.6764 C   0  0  0  0  0  0  0  0  0  0  0  0
   10.9418   -3.4032   21.2053 O   0  0  0  0  0  0  0  0  0  0  0  0
    1.4797   -8.6258   16.2950 C   0  0  0  0  0  0  0  0  0  0  0  0
    9.2861   -1.2743   25.3585 C   0  0  0  0  0  0  0  0  0  0  0  0
    1.8892  -10.3985   17.7511 N   0  0  0  0  0  0  0  0  0  0  0  0
    9.6210   -0.6952   24.0976 C   0  0  0  0  0  0  0  0  0  0  0  0
    7.0792   -9.0217   17.1429 C   0  0  0  0  0  0  0  0  0  0  0  0
    3.1713  -10.1816   17.6634 C   0  0  0  0  0  0  0  0  0  0  0  0
    2.7878   -8.3822   16.2137 C   0  0  0  0  0  0  0  0  0  0  0  0
    9.4601   -2.6590   25.6528 C   0  0  0  0  0  0  0  0  0  0  0  0
   10.1182   -1.5672   23.1165 C   0  0  0  0  0  0  0  0  0  0  0  0
    1.0552   -9.6360   17.0650 C   0  0  0  0  0  0  0  0  0  0  0  0
    3.6519   -9.1783   16.9039 C   0  0  0  0  0  0  0  0  0  0  0  0
    7.8675   -7.0096   15.9415 C   0  0  0  0  0  0  0  0  0  0  0  0
    5.9733   -9.6553   17.3832 N   0  0  0  0  0  0  0  0  0  0  0  0
   10.2411   -2.9363   23.4301 C   0  0  0  0  0  0  0  0  0  0  0  0
   10.7288   -3.8197   19.9525 C   0  0  0  0  0  0  0  0  0  0  0  0
   10.1189   -5.0054   19.6987 C   0  0  0  0  0  0  0  0  0  0  0  0
  1  3  4  0
  1  7  4  0
  2 21  4  0
  2 27  4  0
  3  9  4  0
  3 10  4  0
  4  8  4  0
  4 18  4  0
  4 25  1  0
  5  9  4  0
  5 12  4  0
  6 13  1  0
  6 27  1  0
  7 28  4  0
  8 11  4  0
  9 29  4  0
 10 12  4  0
 11 24  1  0
 11 26  4  0
 12 25  1  0
 13 28  1  0
 14 20  4  0
 14 23  4  0
 15 17  4  0
 15 21  4  0
 16 19  4  0
 16 23  4  0
 17 22  4  0
 18 26  4  0
 19 24  4  0
 20 24  4  0
 22 27  4  0
 28 29  4  0
M  END
$$$$

 Created by Python create_sdf_string function

 29 33  0  0  0  0  0  0  0  0999 V2000
   10.7215   -3.3326   17.6437 C   0  0  0  0  0  0  0  0  0  0  0  0
    9.9489   -3.4675   24.6487 N   0  0  0  0  0  0  0  0  0  0  0  0
   10.0172   -4.4740   17.4101 C   0  0  0  0  0  0  0  0  0  0  0  0
    6.9051   -7.9575   16.4222 C   0  0  0  0  0  0  0  0  0  0  0  0
    8.9969   -6.3552   17.9668 N   0  0  0  0  0  0  0  0  0  0  0  0
   10.6702   -3.9051   22.4070 C   0  0  0  0  0  0  0  0  0  0  0  0
   11.0625   -3.0028   18.8894 C   0  0  0  0  0  0  0  0  0  0  0  0
    5.6180   -7.9194   16.1754 O   0  0  0  0  0  0  0  0  0  0  0  0
    9.7259   -5.3080   18.4485 C   0  0  0  0  0  0  0  0  0  0  0  0
    9.4578   -5.0200   16.3036 N   0  0  0  0  0  0  0  0  0  0  0  0
    5.0287   -8.9365   16.8223 C   0  0  0  0  0  0  0  0  0  0  0  0
    8.7742   -6.1498   16.6764 C   0  0  0  0  0  0  0  0  0  0  0  0
   10.9418   -3.4032   21.2053 O   0  0  0  0  0  0  0  0  0  0  0  0
    1.4797   -8.6258   16.2950 C   0  0  0  0  0  0  0  0  0  0  0  0
    9.2861   -1.2743   25.3585 C   0  0  0  0  0  0  0  0  0  0  0  0
    1.8892  -10.3985   17.7511 N   0  0  0  0  0  0  0  0  0  0  0  0
    9.6210   -0.6952   24.0976 C   0  0  0  0  0  0  0  0  0  0  0  0
    7.0792   -9.0217   17.1429 C   0  0  0  0  0  0  0  0  0  0  0  0
    3.1713  -10.1816   17.6634 C   0  0  0  0  0  0  0  0  0  0  0  0
    2.7878   -8.3822   16.2137 C   0  0  0  0  0  0  0  0  0  0  0  0
    9.4601   -2.6590   25.6528 C   0  0  0  0  0  0  0  0  0  0  0  0
   10.1182   -1.5672   23.1165 C   0  0  0  0  0  0  0  0  0  0  0  0
    1.0552   -9.6360   17.0650 C   0  0  0  0  0  0  0  0  0  0  0  0
    3.6519   -9.1783   16.9039 C   0  0  0  0  0  0  0  0  0  0  0  0
    7.8675   -7.0096   15.9415 C   0  0  0  0  0  0  0  0  0  0  0  0
    5.9733   -9.6553   17.3832 N   0  0  0  0  0  0  0  0  0  0  0  0
   10.2411   -2.9363   23.4301 C   0  0  0  0  0  0  0  0  0  0  0  0
   10.7288   -3.8197   19.9525 C   0  0  0  0  0  0  0  0  0  0  0  0
   10.1189   -5.0054   19.6987 C   0  0  0  0  0  0  0  0  0  0  0  0
  1  3  4  0
  1  7  4  0
  2 21  4  0
  2 27  4  0
  3  9  4  0
  3 10  4  0
  4  8  4  0
  4 18  4  0
  4 25  1  0
  5  9  4  0
  5 12  4  0
  6 13  1  0
  6 27  1  0
  7 28  4  0
  8 11  4  0
  9 29  4  0
 10 12  4  0
 11 24  1  0
 11 26  4  0
 12 25  1  0
 13 28  1  0
 14 20  4  0
 14 23  4  0
 15 17  4  0
 15 21  4  0
 16 19  4  0
 16 23  4  0
 17 22  4  0
 18 26  4  0
 19 24  4  0
 20 24  4  0
 22 27  4  0
 28 29  4  0
M  END
$$$$

 Created by Python create_sdf_string function

 29 33  0  0  0  0  0  0  0  0999 V2000
   10.7215   -3.3326   17.6437 C   0  0  0  0  0  0  0  0  0  0  0  0
    9.9489   -3.4675   24.6487 N   0  0  0  0  0  0  0  0  0  0  0  0
   10.0172   -4.4740   17.4101 C   0  0  0  0  0  0  0  0  0  0  0  0
    6.9051   -7.9575   16.4222 C   0  0  0  0  0  0  0  0  0  0  0  0
    8.9969   -6.3552   17.9668 N   0  0  0  0  0  0  0  0  0  0  0  0
   10.6702   -3.9051   22.4070 C   0  0  0  0  0  0  0  0  0  0  0  0
   11.0625   -3.0028   18.8894 C   0  0  0  0  0  0  0  0  0  0  0  0
    5.6180   -7.9194   16.1754 O   0  0  0  0  0  0  0  0  0  0  0  0
    9.7259   -5.3080   18.4485 C   0  0  0  0  0  0  0  0  0  0  0  0
    9.4578   -5.0200   16.3036 N   0  0  0  0  0  0  0  0  0  0  0  0
    5.0287   -8.9365   16.8223 C   0  0  0  0  0  0  0  0  0  0  0  0
    8.7742   -6.1498   16.6764 C   0  0  0  0  0  0  0  0  0  0  0  0
   10.9418   -3.4032   21.2053 O   0  0  0  0  0  0  0  0  0  0  0  0
    1.4797   -8.6258   16.2950 C   0  0  0  0  0  0  0  0  0  0  0  0
    9.2861   -1.2743   25.3585 C   0  0  0  0  0  0  0  0  0  0  0  0
    1.8892  -10.3985   17.7511 N   0  0  0  0  0  0  0  0  0  0  0  0
    9.6210   -0.6952   24.0976 C   0  0  0  0  0  0  0  0  0  0  0  0
    7.0792   -9.0217   17.1429 C   0  0  0  0  0  0  0  0  0  0  0  0
    3.1713  -10.1816   17.6634 C   0  0  0  0  0  0  0  0  0  0  0  0
    2.7878   -8.3822   16.2137 C   0  0  0  0  0  0  0  0  0  0  0  0
    9.4601   -2.6590   25.6528 C   0  0  0  0  0  0  0  0  0  0  0  0
   10.1182   -1.5672   23.1165 C   0  0  0  0  0  0  0  0  0  0  0  0
    1.0552   -9.6360   17.0650 C   0  0  0  0  0  0  0  0  0  0  0  0
    3.6519   -9.1783   16.9039 C   0  0  0  0  0  0  0  0  0  0  0  0
    7.8675   -7.0096   15.9415 C   0  0  0  0  0  0  0  0  0  0  0  0
    5.9733   -9.6553   17.3832 N   0  0  0  0  0  0  0  0  0  0  0  0
   10.2411   -2.9363   23.4301 C   0  0  0  0  0  0  0  0  0  0  0  0
   10.7288   -3.8197   19.9525 C   0  0  0  0  0  0  0  0  0  0  0  0
   10.1189   -5.0054   19.6987 C   0  0  0  0  0  0  0  0  0  0  0  0
  1  3  4  0
  1  7  4  0
  2 21  4  0
  2 27  4  0
  3  9  4  0
  3 10  4  0
  4  8  4  0
  4 18  4  0
  4 25  1  0
  5  9  4  0
  5 12  4  0
  6 13  1  0
  6 27  1  0
  7 28  4  0
  8 11  4  0
  9 29  4  0
 10 12  4  0
 11 24  1  0
 11 26  4  0
 12 25  1  0
 13 28  1  0
 14 20  4  0
 14 23  4  0
 15 17  4  0
 15 21  4  0
 16 19  4  0
 16 23  4  0
 17 22  4  0
 18 26  4  0
 19 24  4  0
 20 24  4  0
 22 27  4  0
 28 29  4  0
M  END
$$$$

 Created by Python create_sdf_string function

 29 33  0  0  0  0  0  0  0  0999 V2000
   10.7215   -3.3326   17.6437 C   0  0  0  0  0  0  0  0  0  0  0  0
    9.9489   -3.4675   24.6487 N   0  0  0  0  0  0  0  0  0  0  0  0
   10.0172   -4.4740   17.4101 C   0  0  0  0  0  0  0  0  0  0  0  0
    6.9051   -7.9575   16.4222 C   0  0  0  0  0  0  0  0  0  0  0  0
    8.9969   -6.3552   17.9668 N   0  0  0  0  0  0  0  0  0  0  0  0
   10.6702   -3.9051   22.4070 C   0  0  0  0  0  0  0  0  0  0  0  0
   11.0625   -3.0028   18.8894 C   0  0  0  0  0  0  0  0  0  0  0  0
    5.6180   -7.9194   16.1754 O   0  0  0  0  0  0  0  0  0  0  0  0
    9.7259   -5.3080   18.4485 C   0  0  0  0  0  0  0  0  0  0  0  0
    9.4578   -5.0200   16.3036 N   0  0  0  0  0  0  0  0  0  0  0  0
    5.0287   -8.9365   16.8223 C   0  0  0  0  0  0  0  0  0  0  0  0
    8.7742   -6.1498   16.6764 C   0  0  0  0  0  0  0  0  0  0  0  0
   10.9418   -3.4032   21.2053 O   0  0  0  0  0  0  0  0  0  0  0  0
    1.4797   -8.6258   16.2950 C   0  0  0  0  0  0  0  0  0  0  0  0
    9.2861   -1.2743   25.3585 C   0  0  0  0  0  0  0  0  0  0  0  0
    1.8892  -10.3985   17.7511 N   0  0  0  0  0  0  0  0  0  0  0  0
    9.6210   -0.6952   24.0976 C   0  0  0  0  0  0  0  0  0  0  0  0
    7.0792   -9.0217   17.1429 C   0  0  0  0  0  0  0  0  0  0  0  0
    3.1713  -10.1816   17.6634 C   0  0  0  0  0  0  0  0  0  0  0  0
    2.7878   -8.3822   16.2137 C   0  0  0  0  0  0  0  0  0  0  0  0
    9.4601   -2.6590   25.6528 C   0  0  0  0  0  0  0  0  0  0  0  0
   10.1182   -1.5672   23.1165 C   0  0  0  0  0  0  0  0  0  0  0  0
    1.0552   -9.6360   17.0650 C   0  0  0  0  0  0  0  0  0  0  0  0
    3.6519   -9.1783   16.9039 C   0  0  0  0  0  0  0  0  0  0  0  0
    7.8675   -7.0096   15.9415 C   0  0  0  0  0  0  0  0  0  0  0  0
    5.9733   -9.6553   17.3832 N   0  0  0  0  0  0  0  0  0  0  0  0
   10.2411   -2.9363   23.4301 C   0  0  0  0  0  0  0  0  0  0  0  0
   10.7288   -3.8197   19.9525 C   0  0  0  0  0  0  0  0  0  0  0  0
   10.1189   -5.0054   19.6987 C   0  0  0  0  0  0  0  0  0  0  0  0
  1  3  4  0
  1  7  4  0
  2 21  4  0
  2 27  4  0
  3  9  4  0
  3 10  4  0
  4  8  4  0
  4 18  4  0
  4 25  1  0
  5  9  4  0
  5 12  4  0
  6 13  1  0
  6 27  1  0
  7 28  4  0
  8 11  4  0
  9 29  4  0
 10 12  4  0
 11 24  1  0
 11 26  4  0
 12 25  1  0
 13 28  1  0
 14 20  4  0
 14 23  4  0
 15 17  4  0
 15 21  4  0
 16 19  4  0
 16 23  4  0
 17 22  4  0
 18 26  4  0
 19 24  4  0
 20 24  4  0
 22 27  4  0
 28 29  4  0
M  END
$$$$

 Created by Python create_sdf_string function

 29 33  0  0  0  0  0  0  0  0999 V2000
   10.7215   -3.3326   17.6437 C   0  0  0  0  0  0  0  0  0  0  0  0
    9.9489   -3.4675   24.6487 N   0  0  0  0  0  0  0  0  0  0  0  0
   10.0172   -4.4740   17.4101 C   0  0  0  0  0  0  0  0  0  0  0  0
    6.9051   -7.9575   16.4222 C   0  0  0  0  0  0  0  0  0  0  0  0
    8.9969   -6.3552   17.9668 N   0  0  0  0  0  0  0  0  0  0  0  0
   10.6702   -3.9051   22.4070 C   0  0  0  0  0  0  0  0  0  0  0  0
   11.0625   -3.0028   18.8894 C   0  0  0  0  0  0  0  0  0  0  0  0
    5.6180   -7.9194   16.1754 O   0  0  0  0  0  0  0  0  0  0  0  0
    9.7259   -5.3080   18.4485 C   0  0  0  0  0  0  0  0  0  0  0  0
    9.4578   -5.0200   16.3036 N   0  0  0  0  0  0  0  0  0  0  0  0
    5.0287   -8.9365   16.8223 C   0  0  0  0  0  0  0  0  0  0  0  0
    8.7742   -6.1498   16.6764 C   0  0  0  0  0  0  0  0  0  0  0  0
   10.9418   -3.4032   21.2053 O   0  0  0  0  0  0  0  0  0  0  0  0
    1.4797   -8.6258   16.2950 C   0  0  0  0  0  0  0  0  0  0  0  0
    9.2861   -1.2743   25.3585 C   0  0  0  0  0  0  0  0  0  0  0  0
    1.8892  -10.3985   17.7511 N   0  0  0  0  0  0  0  0  0  0  0  0
    9.6210   -0.6952   24.0976 C   0  0  0  0  0  0  0  0  0  0  0  0
    7.0792   -9.0217   17.1429 C   0  0  0  0  0  0  0  0  0  0  0  0
    3.1713  -10.1816   17.6634 C   0  0  0  0  0  0  0  0  0  0  0  0
    2.7878   -8.3822   16.2137 C   0  0  0  0  0  0  0  0  0  0  0  0
    9.4601   -2.6590   25.6528 C   0  0  0  0  0  0  0  0  0  0  0  0
   10.1182   -1.5672   23.1165 C   0  0  0  0  0  0  0  0  0  0  0  0
    1.0552   -9.6360   17.0650 C   0  0  0  0  0  0  0  0  0  0  0  0
    3.6519   -9.1783   16.9039 C   0  0  0  0  0  0  0  0  0  0  0  0
    7.8675   -7.0096   15.9415 C   0  0  0  0  0  0  0  0  0  0  0  0
    5.9733   -9.6553   17.3832 N   0  0  0  0  0  0  0  0  0  0  0  0
   10.2411   -2.9363   23.4301 C   0  0  0  0  0  0  0  0  0  0  0  0
   10.7288   -3.8197   19.9525 C   0  0  0  0  0  0  0  0  0  0  0  0
   10.1189   -5.0054   19.6987 C   0  0  0  0  0  0  0  0  0  0  0  0
  1  3  4  0
  1  7  4  0
  2 21  4  0
  2 27  4  0
  3  9  4  0
  3 10  4  0
  4  8  4  0
  4 18  4  0
  4 25  1  0
  5  9  4  0
  5 12  4  0
  6 13  1  0
  6 27  1  0
  7 28  4  0
  8 11  4  0
  9 29  4  0
 10 12  4  0
 11 24  1  0
 11 26  4  0
 12 25  1  0
 13 28  1  0
 14 20  4  0
 14 23  4  0
 15 17  4  0
 15 21  4  0
 16 19  4  0
 16 23  4  0
 17 22  4  0
 18 26  4  0
 19 24  4  0
 20 24  4  0
 22 27  4  0
 28 29  4  0
M  END
$$$$

 Created by Python create_sdf_string function

 29 33  0  0  0  0  0  0  0  0999 V2000
   10.7215   -3.3326   17.6437 C   0  0  0  0  0  0  0  0  0  0  0  0
    9.9489   -3.4675   24.6487 N   0  0  0  0  0  0  0  0  0  0  0  0
   10.0172   -4.4740   17.4101 C   0  0  0  0  0  0  0  0  0  0  0  0
    6.9051   -7.9575   16.4222 C   0  0  0  0  0  0  0  0  0  0  0  0
    8.9969   -6.3552   17.9668 N   0  0  0  0  0  0  0  0  0  0  0  0
   10.6702   -3.9051   22.4070 C   0  0  0  0  0  0  0  0  0  0  0  0
   11.0625   -3.0028   18.8894 C   0  0  0  0  0  0  0  0  0  0  0  0
    5.6180   -7.9194   16.1754 O   0  0  0  0  0  0  0  0  0  0  0  0
    9.7259   -5.3080   18.4485 C   0  0  0  0  0  0  0  0  0  0  0  0
    9.4578   -5.0200   16.3036 N   0  0  0  0  0  0  0  0  0  0  0  0
    5.0287   -8.9365   16.8223 C   0  0  0  0  0  0  0  0  0  0  0  0
    8.7742   -6.1498   16.6764 C   0  0  0  0  0  0  0  0  0  0  0  0
   10.9418   -3.4032   21.2053 O   0  0  0  0  0  0  0  0  0  0  0  0
    1.4797   -8.6258   16.2950 C   0  0  0  0  0  0  0  0  0  0  0  0
    9.2861   -1.2743   25.3585 C   0  0  0  0  0  0  0  0  0  0  0  0
    1.8892  -10.3985   17.7511 N   0  0  0  0  0  0  0  0  0  0  0  0
    9.6210   -0.6952   24.0976 C   0  0  0  0  0  0  0  0  0  0  0  0
    7.0792   -9.0217   17.1429 C   0  0  0  0  0  0  0  0  0  0  0  0
    3.1713  -10.1816   17.6634 C   0  0  0  0  0  0  0  0  0  0  0  0
    2.7878   -8.3822   16.2137 C   0  0  0  0  0  0  0  0  0  0  0  0
    9.4601   -2.6590   25.6528 C   0  0  0  0  0  0  0  0  0  0  0  0
   10.1182   -1.5672   23.1165 C   0  0  0  0  0  0  0  0  0  0  0  0
    1.0552   -9.6360   17.0650 C   0  0  0  0  0  0  0  0  0  0  0  0
    3.6519   -9.1783   16.9039 C   0  0  0  0  0  0  0  0  0  0  0  0
    7.8675   -7.0096   15.9415 C   0  0  0  0  0  0  0  0  0  0  0  0
    5.9733   -9.6553   17.3832 N   0  0  0  0  0  0  0  0  0  0  0  0
   10.2411   -2.9363   23.4301 C   0  0  0  0  0  0  0  0  0  0  0  0
   10.7288   -3.8197   19.9525 C   0  0  0  0  0  0  0  0  0  0  0  0
   10.1189   -5.0054   19.6987 C   0  0  0  0  0  0  0  0  0  0  0  0
  1  3  4  0
  1  7  4  0
  2 21  4  0
  2 27  4  0
  3  9  4  0
  3 10  4  0
  4  8  4  0
  4 18  4  0
  4 25  1  0
  5  9  4  0
  5 12  4  0
  6 13  1  0
  6 27  1  0
  7 28  4  0
  8 11  4  0
  9 29  4  0
 10 12  4  0
 11 24  1  0
 11 26  4  0
 12 25  1  0
 13 28  1  0
 14 20  4  0
 14 23  4  0
 15 17  4  0
 15 21  4  0
 16 19  4  0
 16 23  4  0
 17 22  4  0
 18 26  4  0
 19 24  4  0
 20 24  4  0
 22 27  4  0
 28 29  4  0
M  END
$$$$

 Created by Python create_sdf_string function

 29 33  0  0  0  0  0  0  0  0999 V2000
   10.7215   -3.3326   17.6437 C   0  0  0  0  0  0  0  0  0  0  0  0
    9.9489   -3.4675   24.6487 N   0  0  0  0  0  0  0  0  0  0  0  0
   10.0172   -4.4740   17.4101 C   0  0  0  0  0  0  0  0  0  0  0  0
    6.9051   -7.9575   16.4222 C   0  0  0  0  0  0  0  0  0  0  0  0
    8.9969   -6.3552   17.9668 N   0  0  0  0  0  0  0  0  0  0  0  0
   10.6702   -3.9051   22.4070 C   0  0  0  0  0  0  0  0  0  0  0  0
   11.0625   -3.0028   18.8894 C   0  0  0  0  0  0  0  0  0  0  0  0
    5.6180   -7.9194   16.1754 O   0  0  0  0  0  0  0  0  0  0  0  0
    9.7259   -5.3080   18.4485 C   0  0  0  0  0  0  0  0  0  0  0  0
    9.4578   -5.0200   16.3036 N   0  0  0  0  0  0  0  0  0  0  0  0
    5.0287   -8.9365   16.8223 C   0  0  0  0  0  0  0  0  0  0  0  0
    8.7742   -6.1498   16.6764 C   0  0  0  0  0  0  0  0  0  0  0  0
   10.9418   -3.4032   21.2053 O   0  0  0  0  0  0  0  0  0  0  0  0
    1.4797   -8.6258   16.2950 C   0  0  0  0  0  0  0  0  0  0  0  0
    9.2861   -1.2743   25.3585 C   0  0  0  0  0  0  0  0  0  0  0  0
    1.8892  -10.3985   17.7511 N   0  0  0  0  0  0  0  0  0  0  0  0
    9.6210   -0.6952   24.0976 C   0  0  0  0  0  0  0  0  0  0  0  0
    7.0792   -9.0217   17.1429 C   0  0  0  0  0  0  0  0  0  0  0  0
    3.1713  -10.1816   17.6634 C   0  0  0  0  0  0  0  0  0  0  0  0
    2.7878   -8.3822   16.2137 C   0  0  0  0  0  0  0  0  0  0  0  0
    9.4601   -2.6590   25.6528 C   0  0  0  0  0  0  0  0  0  0  0  0
   10.1182   -1.5672   23.1165 C   0  0  0  0  0  0  0  0  0  0  0  0
    1.0552   -9.6360   17.0650 C   0  0  0  0  0  0  0  0  0  0  0  0
    3.6519   -9.1783   16.9039 C   0  0  0  0  0  0  0  0  0  0  0  0
    7.8675   -7.0096   15.9415 C   0  0  0  0  0  0  0  0  0  0  0  0
    5.9733   -9.6553   17.3832 N   0  0  0  0  0  0  0  0  0  0  0  0
   10.2411   -2.9363   23.4301 C   0  0  0  0  0  0  0  0  0  0  0  0
   10.7288   -3.8197   19.9525 C   0  0  0  0  0  0  0  0  0  0  0  0
   10.1189   -5.0054   19.6987 C   0  0  0  0  0  0  0  0  0  0  0  0
  1  3  4  0
  1  7  4  0
  2 21  4  0
  2 27  4  0
  3  9  4  0
  3 10  4  0
  4  8  4  0
  4 18  4  0
  4 25  1  0
  5  9  4  0
  5 12  4  0
  6 13  1  0
  6 27  1  0
  7 28  4  0
  8 11  4  0
  9 29  4  0
 10 12  4  0
 11 24  1  0
 11 26  4  0
 12 25  1  0
 13 28  1  0
 14 20  4  0
 14 23  4  0
 15 17  4  0
 15 21  4  0
 16 19  4  0
 16 23  4  0
 17 22  4  0
 18 26  4  0
 19 24  4  0
 20 24  4  0
 22 27  4  0
 28 29  4  0
M  END
$$$$

 Created by Python create_sdf_string function

 29 33  0  0  0  0  0  0  0  0999 V2000
   10.7215   -3.3326   17.6437 C   0  0  0  0  0  0  0  0  0  0  0  0
    9.9489   -3.4675   24.6487 N   0  0  0  0  0  0  0  0  0  0  0  0
   10.0172   -4.4740   17.4101 C   0  0  0  0  0  0  0  0  0  0  0  0
    6.9051   -7.9575   16.4222 C   0  0  0  0  0  0  0  0  0  0  0  0
    8.9969   -6.3552   17.9668 N   0  0  0  0  0  0  0  0  0  0  0  0
   10.6702   -3.9051   22.4070 C   0  0  0  0  0  0  0  0  0  0  0  0
   11.0625   -3.0028   18.8894 C   0  0  0  0  0  0  0  0  0  0  0  0
    5.6180   -7.9194   16.1754 O   0  0  0  0  0  0  0  0  0  0  0  0
    9.7259   -5.3080   18.4485 C   0  0  0  0  0  0  0  0  0  0  0  0
    9.4578   -5.0200   16.3036 N   0  0  0  0  0  0  0  0  0  0  0  0
    5.0287   -8.9365   16.8223 C   0  0  0  0  0  0  0  0  0  0  0  0
    8.7742   -6.1498   16.6764 C   0  0  0  0  0  0  0  0  0  0  0  0
   10.9418   -3.4032   21.2053 O   0  0  0  0  0  0  0  0  0  0  0  0
    1.4797   -8.6258   16.2950 C   0  0  0  0  0  0  0  0  0  0  0  0
    9.2861   -1.2743   25.3585 C   0  0  0  0  0  0  0  0  0  0  0  0
    1.8892  -10.3985   17.7511 N   0  0  0  0  0  0  0  0  0  0  0  0
    9.6210   -0.6952   24.0976 C   0  0  0  0  0  0  0  0  0  0  0  0
    7.0792   -9.0217   17.1429 C   0  0  0  0  0  0  0  0  0  0  0  0
    3.1713  -10.1816   17.6634 C   0  0  0  0  0  0  0  0  0  0  0  0
    2.7878   -8.3822   16.2137 C   0  0  0  0  0  0  0  0  0  0  0  0
    9.4601   -2.6590   25.6528 C   0  0  0  0  0  0  0  0  0  0  0  0
   10.1182   -1.5672   23.1165 C   0  0  0  0  0  0  0  0  0  0  0  0
    1.0552   -9.6360   17.0650 C   0  0  0  0  0  0  0  0  0  0  0  0
    3.6519   -9.1783   16.9039 C   0  0  0  0  0  0  0  0  0  0  0  0
    7.8675   -7.0096   15.9415 C   0  0  0  0  0  0  0  0  0  0  0  0
    5.9733   -9.6553   17.3832 N   0  0  0  0  0  0  0  0  0  0  0  0
   10.2411   -2.9363   23.4301 C   0  0  0  0  0  0  0  0  0  0  0  0
   10.7288   -3.8197   19.9525 C   0  0  0  0  0  0  0  0  0  0  0  0
   10.1189   -5.0054   19.6987 C   0  0  0  0  0  0  0  0  0  0  0  0
  1  3  4  0
  1  7  4  0
  2 21  4  0
  2 27  4  0
  3  9  4  0
  3 10  4  0
  4  8  4  0
  4 18  4  0
  4 25  1  0
  5  9  4  0
  5 12  4  0
  6 13  1  0
  6 27  1  0
  7 28  4  0
  8 11  4  0
  9 29  4  0
 10 12  4  0
 11 24  1  0
 11 26  4  0
 12 25  1  0
 13 28  1  0
 14 20  4  0
 14 23  4  0
 15 17  4  0
 15 21  4  0
 16 19  4  0
 16 23  4  0
 17 22  4  0
 18 26  4  0
 19 24  4  0
 20 24  4  0
 22 27  4  0
 28 29  4  0
M  END
$$$$

 Created by Python create_sdf_string function

 29 33  0  0  0  0  0  0  0  0999 V2000
   10.7215   -3.3326   17.6437 C   0  0  0  0  0  0  0  0  0  0  0  0
    9.9489   -3.4675   24.6487 N   0  0  0  0  0  0  0  0  0  0  0  0
   10.0172   -4.4740   17.4101 C   0  0  0  0  0  0  0  0  0  0  0  0
    6.9051   -7.9575   16.4222 C   0  0  0  0  0  0  0  0  0  0  0  0
    8.9969   -6.3552   17.9668 N   0  0  0  0  0  0  0  0  0  0  0  0
   10.6702   -3.9051   22.4070 C   0  0  0  0  0  0  0  0  0  0  0  0
   11.0625   -3.0028   18.8894 C   0  0  0  0  0  0  0  0  0  0  0  0
    5.6180   -7.9194   16.1754 O   0  0  0  0  0  0  0  0  0  0  0  0
    9.7259   -5.3080   18.4485 C   0  0  0  0  0  0  0  0  0  0  0  0
    9.4578   -5.0200   16.3036 N   0  0  0  0  0  0  0  0  0  0  0  0
    5.0287   -8.9365   16.8223 C   0  0  0  0  0  0  0  0  0  0  0  0
    8.7742   -6.1498   16.6764 C   0  0  0  0  0  0  0  0  0  0  0  0
   10.9418   -3.4032   21.2053 O   0  0  0  0  0  0  0  0  0  0  0  0
    1.4797   -8.6258   16.2950 C   0  0  0  0  0  0  0  0  0  0  0  0
    9.2861   -1.2743   25.3585 C   0  0  0  0  0  0  0  0  0  0  0  0
    1.8892  -10.3985   17.7511 N   0  0  0  0  0  0  0  0  0  0  0  0
    9.6210   -0.6952   24.0976 C   0  0  0  0  0  0  0  0  0  0  0  0
    7.0792   -9.0217   17.1429 C   0  0  0  0  0  0  0  0  0  0  0  0
    3.1713  -10.1816   17.6634 C   0  0  0  0  0  0  0  0  0  0  0  0
    2.7878   -8.3822   16.2137 C   0  0  0  0  0  0  0  0  0  0  0  0
    9.4601   -2.6590   25.6528 C   0  0  0  0  0  0  0  0  0  0  0  0
   10.1182   -1.5672   23.1165 C   0  0  0  0  0  0  0  0  0  0  0  0
    1.0552   -9.6360   17.0650 C   0  0  0  0  0  0  0  0  0  0  0  0
    3.6519   -9.1783   16.9039 C   0  0  0  0  0  0  0  0  0  0  0  0
    7.8675   -7.0096   15.9415 C   0  0  0  0  0  0  0  0  0  0  0  0
    5.9733   -9.6553   17.3832 N   0  0  0  0  0  0  0  0  0  0  0  0
   10.2411   -2.9363   23.4301 C   0  0  0  0  0  0  0  0  0  0  0  0
   10.7288   -3.8197   19.9525 C   0  0  0  0  0  0  0  0  0  0  0  0
   10.1189   -5.0054   19.6987 C   0  0  0  0  0  0  0  0  0  0  0  0
  1  3  4  0
  1  7  4  0
  2 21  4  0
  2 27  4  0
  3  9  4  0
  3 10  4  0
  4  8  4  0
  4 18  4  0
  4 25  1  0
  5  9  4  0
  5 12  4  0
  6 13  1  0
  6 27  1  0
  7 28  4  0
  8 11  4  0
  9 29  4  0
 10 12  4  0
 11 24  1  0
 11 26  4  0
 12 25  1  0
 13 28  1  0
 14 20  4  0
 14 23  4  0
 15 17  4  0
 15 21  4  0
 16 19  4  0
 16 23  4  0
 17 22  4  0
 18 26  4  0
 19 24  4  0
 20 24  4  0
 22 27  4  0
 28 29  4  0
M  END
$$$$

 Created by Python create_sdf_string function

 29 33  0  0  0  0  0  0  0  0999 V2000
   10.7215   -3.3326   17.6437 C   0  0  0  0  0  0  0  0  0  0  0  0
    9.9489   -3.4675   24.6487 N   0  0  0  0  0  0  0  0  0  0  0  0
   10.0172   -4.4740   17.4101 C   0  0  0  0  0  0  0  0  0  0  0  0
    6.9051   -7.9575   16.4222 C   0  0  0  0  0  0  0  0  0  0  0  0
    8.9969   -6.3552   17.9668 N   0  0  0  0  0  0  0  0  0  0  0  0
   10.6702   -3.9051   22.4070 C   0  0  0  0  0  0  0  0  0  0  0  0
   11.0625   -3.0028   18.8894 C   0  0  0  0  0  0  0  0  0  0  0  0
    5.6180   -7.9194   16.1754 O   0  0  0  0  0  0  0  0  0  0  0  0
    9.7259   -5.3080   18.4485 C   0  0  0  0  0  0  0  0  0  0  0  0
    9.4578   -5.0200   16.3036 N   0  0  0  0  0  0  0  0  0  0  0  0
    5.0287   -8.9365   16.8223 C   0  0  0  0  0  0  0  0  0  0  0  0
    8.7742   -6.1498   16.6764 C   0  0  0  0  0  0  0  0  0  0  0  0
   10.9418   -3.4032   21.2053 O   0  0  0  0  0  0  0  0  0  0  0  0
    1.4797   -8.6258   16.2950 C   0  0  0  0  0  0  0  0  0  0  0  0
    9.2861   -1.2743   25.3585 C   0  0  0  0  0  0  0  0  0  0  0  0
    1.8892  -10.3985   17.7511 N   0  0  0  0  0  0  0  0  0  0  0  0
    9.6210   -0.6952   24.0976 C   0  0  0  0  0  0  0  0  0  0  0  0
    7.0792   -9.0217   17.1429 C   0  0  0  0  0  0  0  0  0  0  0  0
    3.1713  -10.1816   17.6634 C   0  0  0  0  0  0  0  0  0  0  0  0
    2.7878   -8.3822   16.2137 C   0  0  0  0  0  0  0  0  0  0  0  0
    9.4601   -2.6590   25.6528 C   0  0  0  0  0  0  0  0  0  0  0  0
   10.1182   -1.5672   23.1165 C   0  0  0  0  0  0  0  0  0  0  0  0
    1.0552   -9.6360   17.0650 C   0  0  0  0  0  0  0  0  0  0  0  0
    3.6519   -9.1783   16.9039 C   0  0  0  0  0  0  0  0  0  0  0  0
    7.8675   -7.0096   15.9415 C   0  0  0  0  0  0  0  0  0  0  0  0
    5.9733   -9.6553   17.3832 N   0  0  0  0  0  0  0  0  0  0  0  0
   10.2411   -2.9363   23.4301 C   0  0  0  0  0  0  0  0  0  0  0  0
   10.7288   -3.8197   19.9525 C   0  0  0  0  0  0  0  0  0  0  0  0
   10.1189   -5.0054   19.6987 C   0  0  0  0  0  0  0  0  0  0  0  0
  1  3  4  0
  1  7  4  0
  2 21  4  0
  2 27  4  0
  3  9  4  0
  3 10  4  0
  4  8  4  0
  4 18  4  0
  4 25  1  0
  5  9  4  0
  5 12  4  0
  6 13  1  0
  6 27  1  0
  7 28  4  0
  8 11  4  0
  9 29  4  0
 10 12  4  0
 11 24  1  0
 11 26  4  0
 12 25  1  0
 13 28  1  0
 14 20  4  0
 14 23  4  0
 15 17  4  0
 15 21  4  0
 16 19  4  0
 16 23  4  0
 17 22  4  0
 18 26  4  0
 19 24  4  0
 20 24  4  0
 22 27  4  0
 28 29  4  0
M  END
$$$$

 Created by Python create_sdf_string function

 29 33  0  0  0  0  0  0  0  0999 V2000
   10.7215   -3.3326   17.6437 C   0  0  0  0  0  0  0  0  0  0  0  0
    9.9489   -3.4675   24.6487 N   0  0  0  0  0  0  0  0  0  0  0  0
   10.0172   -4.4740   17.4101 C   0  0  0  0  0  0  0  0  0  0  0  0
    6.9051   -7.9575   16.4222 C   0  0  0  0  0  0  0  0  0  0  0  0
    8.9969   -6.3552   17.9668 N   0  0  0  0  0  0  0  0  0  0  0  0
   10.6702   -3.9051   22.4070 C   0  0  0  0  0  0  0  0  0  0  0  0
   11.0625   -3.0028   18.8894 C   0  0  0  0  0  0  0  0  0  0  0  0
    5.6180   -7.9194   16.1754 O   0  0  0  0  0  0  0  0  0  0  0  0
    9.7259   -5.3080   18.4485 C   0  0  0  0  0  0  0  0  0  0  0  0
    9.4578   -5.0200   16.3036 N   0  0  0  0  0  0  0  0  0  0  0  0
    5.0287   -8.9365   16.8223 C   0  0  0  0  0  0  0  0  0  0  0  0
    8.7742   -6.1498   16.6764 C   0  0  0  0  0  0  0  0  0  0  0  0
   10.9418   -3.4032   21.2053 O   0  0  0  0  0  0  0  0  0  0  0  0
    1.4797   -8.6258   16.2950 C   0  0  0  0  0  0  0  0  0  0  0  0
    9.2861   -1.2743   25.3585 C   0  0  0  0  0  0  0  0  0  0  0  0
    1.8892  -10.3985   17.7511 N   0  0  0  0  0  0  0  0  0  0  0  0
    9.6210   -0.6952   24.0976 C   0  0  0  0  0  0  0  0  0  0  0  0
    7.0792   -9.0217   17.1429 C   0  0  0  0  0  0  0  0  0  0  0  0
    3.1713  -10.1816   17.6634 C   0  0  0  0  0  0  0  0  0  0  0  0
    2.7878   -8.3822   16.2137 C   0  0  0  0  0  0  0  0  0  0  0  0
    9.4601   -2.6590   25.6528 C   0  0  0  0  0  0  0  0  0  0  0  0
   10.1182   -1.5672   23.1165 C   0  0  0  0  0  0  0  0  0  0  0  0
    1.0552   -9.6360   17.0650 C   0  0  0  0  0  0  0  0  0  0  0  0
    3.6519   -9.1783   16.9039 C   0  0  0  0  0  0  0  0  0  0  0  0
    7.8675   -7.0096   15.9415 C   0  0  0  0  0  0  0  0  0  0  0  0
    5.9733   -9.6553   17.3832 N   0  0  0  0  0  0  0  0  0  0  0  0
   10.2411   -2.9363   23.4301 C   0  0  0  0  0  0  0  0  0  0  0  0
   10.7288   -3.8197   19.9525 C   0  0  0  0  0  0  0  0  0  0  0  0
   10.1189   -5.0054   19.6987 C   0  0  0  0  0  0  0  0  0  0  0  0
  1  3  4  0
  1  7  4  0
  2 21  4  0
  2 27  4  0
  3  9  4  0
  3 10  4  0
  4  8  4  0
  4 18  4  0
  4 25  1  0
  5  9  4  0
  5 12  4  0
  6 13  1  0
  6 27  1  0
  7 28  4  0
  8 11  4  0
  9 29  4  0
 10 12  4  0
 11 24  1  0
 11 26  4  0
 12 25  1  0
 13 28  1  0
 14 20  4  0
 14 23  4  0
 15 17  4  0
 15 21  4  0
 16 19  4  0
 16 23  4  0
 17 22  4  0
 18 26  4  0
 19 24  4  0
 20 24  4  0
 22 27  4  0
 28 29  4  0
M  END
$$$$

 Created by Python create_sdf_string function

 29 33  0  0  0  0  0  0  0  0999 V2000
   10.7215   -3.3326   17.6437 C   0  0  0  0  0  0  0  0  0  0  0  0
    9.9489   -3.4675   24.6487 N   0  0  0  0  0  0  0  0  0  0  0  0
   10.0172   -4.4740   17.4101 C   0  0  0  0  0  0  0  0  0  0  0  0
    6.9051   -7.9575   16.4222 C   0  0  0  0  0  0  0  0  0  0  0  0
    8.9969   -6.3552   17.9668 N   0  0  0  0  0  0  0  0  0  0  0  0
   10.6702   -3.9051   22.4070 C   0  0  0  0  0  0  0  0  0  0  0  0
   11.0625   -3.0028   18.8894 C   0  0  0  0  0  0  0  0  0  0  0  0
    5.6180   -7.9194   16.1754 O   0  0  0  0  0  0  0  0  0  0  0  0
    9.7259   -5.3080   18.4485 C   0  0  0  0  0  0  0  0  0  0  0  0
    9.4578   -5.0200   16.3036 N   0  0  0  0  0  0  0  0  0  0  0  0
    5.0287   -8.9365   16.8223 C   0  0  0  0  0  0  0  0  0  0  0  0
    8.7742   -6.1498   16.6764 C   0  0  0  0  0  0  0  0  0  0  0  0
   10.9418   -3.4032   21.2053 O   0  0  0  0  0  0  0  0  0  0  0  0
    1.4797   -8.6258   16.2950 C   0  0  0  0  0  0  0  0  0  0  0  0
    9.2861   -1.2743   25.3585 C   0  0  0  0  0  0  0  0  0  0  0  0
    1.8892  -10.3985   17.7511 N   0  0  0  0  0  0  0  0  0  0  0  0
    9.6210   -0.6952   24.0976 C   0  0  0  0  0  0  0  0  0  0  0  0
    7.0792   -9.0217   17.1429 C   0  0  0  0  0  0  0  0  0  0  0  0
    3.1713  -10.1816   17.6634 C   0  0  0  0  0  0  0  0  0  0  0  0
    2.7878   -8.3822   16.2137 C   0  0  0  0  0  0  0  0  0  0  0  0
    9.4601   -2.6590   25.6528 C   0  0  0  0  0  0  0  0  0  0  0  0
   10.1182   -1.5672   23.1165 C   0  0  0  0  0  0  0  0  0  0  0  0
    1.0552   -9.6360   17.0650 C   0  0  0  0  0  0  0  0  0  0  0  0
    3.6519   -9.1783   16.9039 C   0  0  0  0  0  0  0  0  0  0  0  0
    7.8675   -7.0096   15.9415 C   0  0  0  0  0  0  0  0  0  0  0  0
    5.9733   -9.6553   17.3832 N   0  0  0  0  0  0  0  0  0  0  0  0
   10.2411   -2.9363   23.4301 C   0  0  0  0  0  0  0  0  0  0  0  0
   10.7288   -3.8197   19.9525 C   0  0  0  0  0  0  0  0  0  0  0  0
   10.1189   -5.0054   19.6987 C   0  0  0  0  0  0  0  0  0  0  0  0
  1  3  4  0
  1  7  4  0
  2 21  4  0
  2 27  4  0
  3  9  4  0
  3 10  4  0
  4  8  4  0
  4 18  4  0
  4 25  1  0
  5  9  4  0
  5 12  4  0
  6 13  1  0
  6 27  1  0
  7 28  4  0
  8 11  4  0
  9 29  4  0
 10 12  4  0
 11 24  1  0
 11 26  4  0
 12 25  1  0
 13 28  1  0
 14 20  4  0
 14 23  4  0
 15 17  4  0
 15 21  4  0
 16 19  4  0
 16 23  4  0
 17 22  4  0
 18 26  4  0
 19 24  4  0
 20 24  4  0
 22 27  4  0
 28 29  4  0
M  END
$$$$

 Created by Python create_sdf_string function

 29 33  0  0  0  0  0  0  0  0999 V2000
   10.7215   -3.3326   17.6437 C   0  0  0  0  0  0  0  0  0  0  0  0
    9.9489   -3.4675   24.6487 N   0  0  0  0  0  0  0  0  0  0  0  0
   10.0172   -4.4740   17.4101 C   0  0  0  0  0  0  0  0  0  0  0  0
    6.9051   -7.9575   16.4222 C   0  0  0  0  0  0  0  0  0  0  0  0
    8.9969   -6.3552   17.9668 N   0  0  0  0  0  0  0  0  0  0  0  0
   10.6702   -3.9051   22.4070 C   0  0  0  0  0  0  0  0  0  0  0  0
   11.0625   -3.0028   18.8894 C   0  0  0  0  0  0  0  0  0  0  0  0
    5.6180   -7.9194   16.1754 O   0  0  0  0  0  0  0  0  0  0  0  0
    9.7259   -5.3080   18.4485 C   0  0  0  0  0  0  0  0  0  0  0  0
    9.4578   -5.0200   16.3036 N   0  0  0  0  0  0  0  0  0  0  0  0
    5.0287   -8.9365   16.8223 C   0  0  0  0  0  0  0  0  0  0  0  0
    8.7742   -6.1498   16.6764 C   0  0  0  0  0  0  0  0  0  0  0  0
   10.9418   -3.4032   21.2053 O   0  0  0  0  0  0  0  0  0  0  0  0
    1.4797   -8.6258   16.2950 C   0  0  0  0  0  0  0  0  0  0  0  0
    9.2861   -1.2743   25.3585 C   0  0  0  0  0  0  0  0  0  0  0  0
    1.8892  -10.3985   17.7511 N   0  0  0  0  0  0  0  0  0  0  0  0
    9.6210   -0.6952   24.0976 C   0  0  0  0  0  0  0  0  0  0  0  0
    7.0792   -9.0217   17.1429 C   0  0  0  0  0  0  0  0  0  0  0  0
    3.1713  -10.1816   17.6634 C   0  0  0  0  0  0  0  0  0  0  0  0
    2.7878   -8.3822   16.2137 C   0  0  0  0  0  0  0  0  0  0  0  0
    9.4601   -2.6590   25.6528 C   0  0  0  0  0  0  0  0  0  0  0  0
   10.1182   -1.5672   23.1165 C   0  0  0  0  0  0  0  0  0  0  0  0
    1.0552   -9.6360   17.0650 C   0  0  0  0  0  0  0  0  0  0  0  0
    3.6519   -9.1783   16.9039 C   0  0  0  0  0  0  0  0  0  0  0  0
    7.8675   -7.0096   15.9415 C   0  0  0  0  0  0  0  0  0  0  0  0
    5.9733   -9.6553   17.3832 N   0  0  0  0  0  0  0  0  0  0  0  0
   10.2411   -2.9363   23.4301 C   0  0  0  0  0  0  0  0  0  0  0  0
   10.7288   -3.8197   19.9525 C   0  0  0  0  0  0  0  0  0  0  0  0
   10.1189   -5.0054   19.6987 C   0  0  0  0  0  0  0  0  0  0  0  0
  1  3  4  0
  1  7  4  0
  2 21  4  0
  2 27  4  0
  3  9  4  0
  3 10  4  0
  4  8  4  0
  4 18  4  0
  4 25  1  0
  5  9  4  0
  5 12  4  0
  6 13  1  0
  6 27  1  0
  7 28  4  0
  8 11  4  0
  9 29  4  0
 10 12  4  0
 11 24  1  0
 11 26  4  0
 12 25  1  0
 13 28  1  0
 14 20  4  0
 14 23  4  0
 15 17  4  0
 15 21  4  0
 16 19  4  0
 16 23  4  0
 17 22  4  0
 18 26  4  0
 19 24  4  0
 20 24  4  0
 22 27  4  0
 28 29  4  0
M  END
$$$$

 Created by Python create_sdf_string function

 29 33  0  0  0  0  0  0  0  0999 V2000
   10.7215   -3.3326   17.6437 C   0  0  0  0  0  0  0  0  0  0  0  0
    9.9489   -3.4675   24.6487 N   0  0  0  0  0  0  0  0  0  0  0  0
   10.0172   -4.4740   17.4101 C   0  0  0  0  0  0  0  0  0  0  0  0
    6.9051   -7.9575   16.4222 C   0  0  0  0  0  0  0  0  0  0  0  0
    8.9969   -6.3552   17.9668 N   0  0  0  0  0  0  0  0  0  0  0  0
   10.6702   -3.9051   22.4070 C   0  0  0  0  0  0  0  0  0  0  0  0
   11.0625   -3.0028   18.8894 C   0  0  0  0  0  0  0  0  0  0  0  0
    5.6180   -7.9194   16.1754 O   0  0  0  0  0  0  0  0  0  0  0  0
    9.7259   -5.3080   18.4485 C   0  0  0  0  0  0  0  0  0  0  0  0
    9.4578   -5.0200   16.3036 N   0  0  0  0  0  0  0  0  0  0  0  0
    5.0287   -8.9365   16.8223 C   0  0  0  0  0  0  0  0  0  0  0  0
    8.7742   -6.1498   16.6764 C   0  0  0  0  0  0  0  0  0  0  0  0
   10.9418   -3.4032   21.2053 O   0  0  0  0  0  0  0  0  0  0  0  0
    1.4797   -8.6258   16.2950 C   0  0  0  0  0  0  0  0  0  0  0  0
    9.2861   -1.2743   25.3585 C   0  0  0  0  0  0  0  0  0  0  0  0
    1.8892  -10.3985   17.7511 N   0  0  0  0  0  0  0  0  0  0  0  0
    9.6210   -0.6952   24.0976 C   0  0  0  0  0  0  0  0  0  0  0  0
    7.0792   -9.0217   17.1429 C   0  0  0  0  0  0  0  0  0  0  0  0
    3.1713  -10.1816   17.6634 C   0  0  0  0  0  0  0  0  0  0  0  0
    2.7878   -8.3822   16.2137 C   0  0  0  0  0  0  0  0  0  0  0  0
    9.4601   -2.6590   25.6528 C   0  0  0  0  0  0  0  0  0  0  0  0
   10.1182   -1.5672   23.1165 C   0  0  0  0  0  0  0  0  0  0  0  0
    1.0552   -9.6360   17.0650 C   0  0  0  0  0  0  0  0  0  0  0  0
    3.6519   -9.1783   16.9039 C   0  0  0  0  0  0  0  0  0  0  0  0
    7.8675   -7.0096   15.9415 C   0  0  0  0  0  0  0  0  0  0  0  0
    5.9733   -9.6553   17.3832 N   0  0  0  0  0  0  0  0  0  0  0  0
   10.2411   -2.9363   23.4301 C   0  0  0  0  0  0  0  0  0  0  0  0
   10.7288   -3.8197   19.9525 C   0  0  0  0  0  0  0  0  0  0  0  0
   10.1189   -5.0054   19.6987 C   0  0  0  0  0  0  0  0  0  0  0  0
  1  3  4  0
  1  7  4  0
  2 21  4  0
  2 27  4  0
  3  9  4  0
  3 10  4  0
  4  8  4  0
  4 18  4  0
  4 25  1  0
  5  9  4  0
  5 12  4  0
  6 13  1  0
  6 27  1  0
  7 28  4  0
  8 11  4  0
  9 29  4  0
 10 12  4  0
 11 24  1  0
 11 26  4  0
 12 25  1  0
 13 28  1  0
 14 20  4  0
 14 23  4  0
 15 17  4  0
 15 21  4  0
 16 19  4  0
 16 23  4  0
 17 22  4  0
 18 26  4  0
 19 24  4  0
 20 24  4  0
 22 27  4  0
 28 29  4  0
M  END
$$$$

 Created by Python create_sdf_string function

 29 33  0  0  0  0  0  0  0  0999 V2000
   10.7215   -3.3326   17.6437 C   0  0  0  0  0  0  0  0  0  0  0  0
    9.9489   -3.4675   24.6487 N   0  0  0  0  0  0  0  0  0  0  0  0
   10.0172   -4.4740   17.4101 C   0  0  0  0  0  0  0  0  0  0  0  0
    6.9051   -7.9575   16.4222 C   0  0  0  0  0  0  0  0  0  0  0  0
    8.9969   -6.3552   17.9668 N   0  0  0  0  0  0  0  0  0  0  0  0
   10.6702   -3.9051   22.4070 C   0  0  0  0  0  0  0  0  0  0  0  0
   11.0625   -3.0028   18.8894 C   0  0  0  0  0  0  0  0  0  0  0  0
    5.6180   -7.9194   16.1754 O   0  0  0  0  0  0  0  0  0  0  0  0
    9.7259   -5.3080   18.4485 C   0  0  0  0  0  0  0  0  0  0  0  0
    9.4578   -5.0200   16.3036 N   0  0  0  0  0  0  0  0  0  0  0  0
    5.0287   -8.9365   16.8223 C   0  0  0  0  0  0  0  0  0  0  0  0
    8.7742   -6.1498   16.6764 C   0  0  0  0  0  0  0  0  0  0  0  0
   10.9418   -3.4032   21.2053 O   0  0  0  0  0  0  0  0  0  0  0  0
    1.4797   -8.6258   16.2950 C   0  0  0  0  0  0  0  0  0  0  0  0
    9.2861   -1.2743   25.3585 C   0  0  0  0  0  0  0  0  0  0  0  0
    1.8892  -10.3985   17.7511 N   0  0  0  0  0  0  0  0  0  0  0  0
    9.6210   -0.6952   24.0976 C   0  0  0  0  0  0  0  0  0  0  0  0
    7.0792   -9.0217   17.1429 C   0  0  0  0  0  0  0  0  0  0  0  0
    3.1713  -10.1816   17.6634 C   0  0  0  0  0  0  0  0  0  0  0  0
    2.7878   -8.3822   16.2137 C   0  0  0  0  0  0  0  0  0  0  0  0
    9.4601   -2.6590   25.6528 C   0  0  0  0  0  0  0  0  0  0  0  0
   10.1182   -1.5672   23.1165 C   0  0  0  0  0  0  0  0  0  0  0  0
    1.0552   -9.6360   17.0650 C   0  0  0  0  0  0  0  0  0  0  0  0
    3.6519   -9.1783   16.9039 C   0  0  0  0  0  0  0  0  0  0  0  0
    7.8675   -7.0096   15.9415 C   0  0  0  0  0  0  0  0  0  0  0  0
    5.9733   -9.6553   17.3832 N   0  0  0  0  0  0  0  0  0  0  0  0
   10.2411   -2.9363   23.4301 C   0  0  0  0  0  0  0  0  0  0  0  0
   10.7288   -3.8197   19.9525 C   0  0  0  0  0  0  0  0  0  0  0  0
   10.1189   -5.0054   19.6987 C   0  0  0  0  0  0  0  0  0  0  0  0
  1  3  4  0
  1  7  4  0
  2 21  4  0
  2 27  4  0
  3  9  4  0
  3 10  4  0
  4  8  4  0
  4 18  4  0
  4 25  1  0
  5  9  4  0
  5 12  4  0
  6 13  1  0
  6 27  1  0
  7 28  4  0
  8 11  4  0
  9 29  4  0
 10 12  4  0
 11 24  1  0
 11 26  4  0
 12 25  1  0
 13 28  1  0
 14 20  4  0
 14 23  4  0
 15 17  4  0
 15 21  4  0
 16 19  4  0
 16 23  4  0
 17 22  4  0
 18 26  4  0
 19 24  4  0
 20 24  4  0
 22 27  4  0
 28 29  4  0
M  END
$$$$

 Created by Python create_sdf_string function

 29 33  0  0  0  0  0  0  0  0999 V2000
   10.7215   -3.3326   17.6437 C   0  0  0  0  0  0  0  0  0  0  0  0
    9.9489   -3.4675   24.6487 N   0  0  0  0  0  0  0  0  0  0  0  0
   10.0172   -4.4740   17.4101 C   0  0  0  0  0  0  0  0  0  0  0  0
    6.9051   -7.9575   16.4222 C   0  0  0  0  0  0  0  0  0  0  0  0
    8.9969   -6.3552   17.9668 N   0  0  0  0  0  0  0  0  0  0  0  0
   10.6702   -3.9051   22.4070 C   0  0  0  0  0  0  0  0  0  0  0  0
   11.0625   -3.0028   18.8894 C   0  0  0  0  0  0  0  0  0  0  0  0
    5.6180   -7.9194   16.1754 O   0  0  0  0  0  0  0  0  0  0  0  0
    9.7259   -5.3080   18.4485 C   0  0  0  0  0  0  0  0  0  0  0  0
    9.4578   -5.0200   16.3036 N   0  0  0  0  0  0  0  0  0  0  0  0
    5.0287   -8.9365   16.8223 C   0  0  0  0  0  0  0  0  0  0  0  0
    8.7742   -6.1498   16.6764 C   0  0  0  0  0  0  0  0  0  0  0  0
   10.9418   -3.4032   21.2053 O   0  0  0  0  0  0  0  0  0  0  0  0
    1.4797   -8.6258   16.2950 C   0  0  0  0  0  0  0  0  0  0  0  0
    9.2861   -1.2743   25.3585 C   0  0  0  0  0  0  0  0  0  0  0  0
    1.8892  -10.3985   17.7511 N   0  0  0  0  0  0  0  0  0  0  0  0
    9.6210   -0.6952   24.0976 C   0  0  0  0  0  0  0  0  0  0  0  0
    7.0792   -9.0217   17.1429 C   0  0  0  0  0  0  0  0  0  0  0  0
    3.1713  -10.1816   17.6634 C   0  0  0  0  0  0  0  0  0  0  0  0
    2.7878   -8.3822   16.2137 C   0  0  0  0  0  0  0  0  0  0  0  0
    9.4601   -2.6590   25.6528 C   0  0  0  0  0  0  0  0  0  0  0  0
   10.1182   -1.5672   23.1165 C   0  0  0  0  0  0  0  0  0  0  0  0
    1.0552   -9.6360   17.0650 C   0  0  0  0  0  0  0  0  0  0  0  0
    3.6519   -9.1783   16.9039 C   0  0  0  0  0  0  0  0  0  0  0  0
    7.8675   -7.0096   15.9415 C   0  0  0  0  0  0  0  0  0  0  0  0
    5.9733   -9.6553   17.3832 N   0  0  0  0  0  0  0  0  0  0  0  0
   10.2411   -2.9363   23.4301 C   0  0  0  0  0  0  0  0  0  0  0  0
   10.7288   -3.8197   19.9525 C   0  0  0  0  0  0  0  0  0  0  0  0
   10.1189   -5.0054   19.6987 C   0  0  0  0  0  0  0  0  0  0  0  0
  1  3  4  0
  1  7  4  0
  2 21  4  0
  2 27  4  0
  3  9  4  0
  3 10  4  0
  4  8  4  0
  4 18  4  0
  4 25  1  0
  5  9  4  0
  5 12  4  0
  6 13  1  0
  6 27  1  0
  7 28  4  0
  8 11  4  0
  9 29  4  0
 10 12  4  0
 11 24  1  0
 11 26  4  0
 12 25  1  0
 13 28  1  0
 14 20  4  0
 14 23  4  0
 15 17  4  0
 15 21  4  0
 16 19  4  0
 16 23  4  0
 17 22  4  0
 18 26  4  0
 19 24  4  0
 20 24  4  0
 22 27  4  0
 28 29  4  0
M  END
$$$$

 Created by Python create_sdf_string function

 29 33  0  0  0  0  0  0  0  0999 V2000
   10.7215   -3.3326   17.6437 C   0  0  0  0  0  0  0  0  0  0  0  0
    9.9489   -3.4675   24.6487 N   0  0  0  0  0  0  0  0  0  0  0  0
   10.0172   -4.4740   17.4101 C   0  0  0  0  0  0  0  0  0  0  0  0
    6.9051   -7.9575   16.4222 C   0  0  0  0  0  0  0  0  0  0  0  0
    8.9969   -6.3552   17.9668 N   0  0  0  0  0  0  0  0  0  0  0  0
   10.6702   -3.9051   22.4070 C   0  0  0  0  0  0  0  0  0  0  0  0
   11.0625   -3.0028   18.8894 C   0  0  0  0  0  0  0  0  0  0  0  0
    5.6180   -7.9194   16.1754 O   0  0  0  0  0  0  0  0  0  0  0  0
    9.7259   -5.3080   18.4485 C   0  0  0  0  0  0  0  0  0  0  0  0
    9.4578   -5.0200   16.3036 N   0  0  0  0  0  0  0  0  0  0  0  0
    5.0287   -8.9365   16.8223 C   0  0  0  0  0  0  0  0  0  0  0  0
    8.7742   -6.1498   16.6764 C   0  0  0  0  0  0  0  0  0  0  0  0
   10.9418   -3.4032   21.2053 O   0  0  0  0  0  0  0  0  0  0  0  0
    1.4797   -8.6258   16.2950 C   0  0  0  0  0  0  0  0  0  0  0  0
    9.2861   -1.2743   25.3585 C   0  0  0  0  0  0  0  0  0  0  0  0
    1.8892  -10.3985   17.7511 N   0  0  0  0  0  0  0  0  0  0  0  0
    9.6210   -0.6952   24.0976 C   0  0  0  0  0  0  0  0  0  0  0  0
    7.0792   -9.0217   17.1429 C   0  0  0  0  0  0  0  0  0  0  0  0
    3.1713  -10.1816   17.6634 C   0  0  0  0  0  0  0  0  0  0  0  0
    2.7878   -8.3822   16.2137 C   0  0  0  0  0  0  0  0  0  0  0  0
    9.4601   -2.6590   25.6528 C   0  0  0  0  0  0  0  0  0  0  0  0
   10.1182   -1.5672   23.1165 C   0  0  0  0  0  0  0  0  0  0  0  0
    1.0552   -9.6360   17.0650 C   0  0  0  0  0  0  0  0  0  0  0  0
    3.6519   -9.1783   16.9039 C   0  0  0  0  0  0  0  0  0  0  0  0
    7.8675   -7.0096   15.9415 C   0  0  0  0  0  0  0  0  0  0  0  0
    5.9733   -9.6553   17.3832 N   0  0  0  0  0  0  0  0  0  0  0  0
   10.2411   -2.9363   23.4301 C   0  0  0  0  0  0  0  0  0  0  0  0
   10.7288   -3.8197   19.9525 C   0  0  0  0  0  0  0  0  0  0  0  0
   10.1189   -5.0054   19.6987 C   0  0  0  0  0  0  0  0  0  0  0  0
  1  3  4  0
  1  7  4  0
  2 21  4  0
  2 27  4  0
  3  9  4  0
  3 10  4  0
  4  8  4  0
  4 18  4  0
  4 25  1  0
  5  9  4  0
  5 12  4  0
  6 13  1  0
  6 27  1  0
  7 28  4  0
  8 11  4  0
  9 29  4  0
 10 12  4  0
 11 24  1  0
 11 26  4  0
 12 25  1  0
 13 28  1  0
 14 20  4  0
 14 23  4  0
 15 17  4  0
 15 21  4  0
 16 19  4  0
 16 23  4  0
 17 22  4  0
 18 26  4  0
 19 24  4  0
 20 24  4  0
 22 27  4  0
 28 29  4  0
M  END
$$$$

 Created by Python create_sdf_string function

 29 33  0  0  0  0  0  0  0  0999 V2000
   10.7215   -3.3326   17.6437 C   0  0  0  0  0  0  0  0  0  0  0  0
    9.9489   -3.4675   24.6487 N   0  0  0  0  0  0  0  0  0  0  0  0
   10.0172   -4.4740   17.4101 C   0  0  0  0  0  0  0  0  0  0  0  0
    6.9051   -7.9575   16.4222 C   0  0  0  0  0  0  0  0  0  0  0  0
    8.9969   -6.3552   17.9668 N   0  0  0  0  0  0  0  0  0  0  0  0
   10.6702   -3.9051   22.4070 C   0  0  0  0  0  0  0  0  0  0  0  0
   11.0625   -3.0028   18.8894 C   0  0  0  0  0  0  0  0  0  0  0  0
    5.6180   -7.9194   16.1754 O   0  0  0  0  0  0  0  0  0  0  0  0
    9.7259   -5.3080   18.4485 C   0  0  0  0  0  0  0  0  0  0  0  0
    9.4578   -5.0200   16.3036 N   0  0  0  0  0  0  0  0  0  0  0  0
    5.0287   -8.9365   16.8223 C   0  0  0  0  0  0  0  0  0  0  0  0
    8.7742   -6.1498   16.6764 C   0  0  0  0  0  0  0  0  0  0  0  0
   10.9418   -3.4032   21.2053 O   0  0  0  0  0  0  0  0  0  0  0  0
    1.4797   -8.6258   16.2950 C   0  0  0  0  0  0  0  0  0  0  0  0
    9.2861   -1.2743   25.3585 C   0  0  0  0  0  0  0  0  0  0  0  0
    1.8892  -10.3985   17.7511 N   0  0  0  0  0  0  0  0  0  0  0  0
    9.6210   -0.6952   24.0976 C   0  0  0  0  0  0  0  0  0  0  0  0
    7.0792   -9.0217   17.1429 C   0  0  0  0  0  0  0  0  0  0  0  0
    3.1713  -10.1816   17.6634 C   0  0  0  0  0  0  0  0  0  0  0  0
    2.7878   -8.3822   16.2137 C   0  0  0  0  0  0  0  0  0  0  0  0
    9.4601   -2.6590   25.6528 C   0  0  0  0  0  0  0  0  0  0  0  0
   10.1182   -1.5672   23.1165 C   0  0  0  0  0  0  0  0  0  0  0  0
    1.0552   -9.6360   17.0650 C   0  0  0  0  0  0  0  0  0  0  0  0
    3.6519   -9.1783   16.9039 C   0  0  0  0  0  0  0  0  0  0  0  0
    7.8675   -7.0096   15.9415 C   0  0  0  0  0  0  0  0  0  0  0  0
    5.9733   -9.6553   17.3832 N   0  0  0  0  0  0  0  0  0  0  0  0
   10.2411   -2.9363   23.4301 C   0  0  0  0  0  0  0  0  0  0  0  0
   10.7288   -3.8197   19.9525 C   0  0  0  0  0  0  0  0  0  0  0  0
   10.1189   -5.0054   19.6987 C   0  0  0  0  0  0  0  0  0  0  0  0
  1  3  4  0
  1  7  4  0
  2 21  4  0
  2 27  4  0
  3  9  4  0
  3 10  4  0
  4  8  4  0
  4 18  4  0
  4 25  1  0
  5  9  4  0
  5 12  4  0
  6 13  1  0
  6 27  1  0
  7 28  4  0
  8 11  4  0
  9 29  4  0
 10 12  4  0
 11 24  1  0
 11 26  4  0
 12 25  1  0
 13 28  1  0
 14 20  4  0
 14 23  4  0
 15 17  4  0
 15 21  4  0
 16 19  4  0
 16 23  4  0
 17 22  4  0
 18 26  4  0
 19 24  4  0
 20 24  4  0
 22 27  4  0
 28 29  4  0
M  END
$$$$

 Created by Python create_sdf_string function

 29 33  0  0  0  0  0  0  0  0999 V2000
   10.7215   -3.3326   17.6437 C   0  0  0  0  0  0  0  0  0  0  0  0
    9.9489   -3.4675   24.6487 N   0  0  0  0  0  0  0  0  0  0  0  0
   10.0172   -4.4740   17.4101 C   0  0  0  0  0  0  0  0  0  0  0  0
    6.9051   -7.9575   16.4222 C   0  0  0  0  0  0  0  0  0  0  0  0
    8.9969   -6.3552   17.9668 N   0  0  0  0  0  0  0  0  0  0  0  0
   10.6702   -3.9051   22.4070 C   0  0  0  0  0  0  0  0  0  0  0  0
   11.0625   -3.0028   18.8894 C   0  0  0  0  0  0  0  0  0  0  0  0
    5.6180   -7.9194   16.1754 O   0  0  0  0  0  0  0  0  0  0  0  0
    9.7259   -5.3080   18.4485 C   0  0  0  0  0  0  0  0  0  0  0  0
    9.4578   -5.0200   16.3036 N   0  0  0  0  0  0  0  0  0  0  0  0
    5.0287   -8.9365   16.8223 C   0  0  0  0  0  0  0  0  0  0  0  0
    8.7742   -6.1498   16.6764 C   0  0  0  0  0  0  0  0  0  0  0  0
   10.9418   -3.4032   21.2053 O   0  0  0  0  0  0  0  0  0  0  0  0
    1.4797   -8.6258   16.2950 C   0  0  0  0  0  0  0  0  0  0  0  0
    9.2861   -1.2743   25.3585 C   0  0  0  0  0  0  0  0  0  0  0  0
    1.8892  -10.3985   17.7511 N   0  0  0  0  0  0  0  0  0  0  0  0
    9.6210   -0.6952   24.0976 C   0  0  0  0  0  0  0  0  0  0  0  0
    7.0792   -9.0217   17.1429 C   0  0  0  0  0  0  0  0  0  0  0  0
    3.1713  -10.1816   17.6634 C   0  0  0  0  0  0  0  0  0  0  0  0
    2.7878   -8.3822   16.2137 C   0  0  0  0  0  0  0  0  0  0  0  0
    9.4601   -2.6590   25.6528 C   0  0  0  0  0  0  0  0  0  0  0  0
   10.1182   -1.5672   23.1165 C   0  0  0  0  0  0  0  0  0  0  0  0
    1.0552   -9.6360   17.0650 C   0  0  0  0  0  0  0  0  0  0  0  0
    3.6519   -9.1783   16.9039 C   0  0  0  0  0  0  0  0  0  0  0  0
    7.8675   -7.0096   15.9415 C   0  0  0  0  0  0  0  0  0  0  0  0
    5.9733   -9.6553   17.3832 N   0  0  0  0  0  0  0  0  0  0  0  0
   10.2411   -2.9363   23.4301 C   0  0  0  0  0  0  0  0  0  0  0  0
   10.7288   -3.8197   19.9525 C   0  0  0  0  0  0  0  0  0  0  0  0
   10.1189   -5.0054   19.6987 C   0  0  0  0  0  0  0  0  0  0  0  0
  1  3  4  0
  1  7  4  0
  2 21  4  0
  2 27  4  0
  3  9  4  0
  3 10  4  0
  4  8  4  0
  4 18  4  0
  4 25  1  0
  5  9  4  0
  5 12  4  0
  6 13  1  0
  6 27  1  0
  7 28  4  0
  8 11  4  0
  9 29  4  0
 10 12  4  0
 11 24  1  0
 11 26  4  0
 12 25  1  0
 13 28  1  0
 14 20  4  0
 14 23  4  0
 15 17  4  0
 15 21  4  0
 16 19  4  0
 16 23  4  0
 17 22  4  0
 18 26  4  0
 19 24  4  0
 20 24  4  0
 22 27  4  0
 28 29  4  0
M  END
$$$$

 Created by Python create_sdf_string function

 29 33  0  0  0  0  0  0  0  0999 V2000
   10.7215   -3.3326   17.6437 C   0  0  0  0  0  0  0  0  0  0  0  0
    9.9489   -3.4675   24.6487 N   0  0  0  0  0  0  0  0  0  0  0  0
   10.0172   -4.4740   17.4101 C   0  0  0  0  0  0  0  0  0  0  0  0
    6.9051   -7.9575   16.4222 C   0  0  0  0  0  0  0  0  0  0  0  0
    8.9969   -6.3552   17.9668 N   0  0  0  0  0  0  0  0  0  0  0  0
   10.6702   -3.9051   22.4070 C   0  0  0  0  0  0  0  0  0  0  0  0
   11.0625   -3.0028   18.8894 C   0  0  0  0  0  0  0  0  0  0  0  0
    5.6180   -7.9194   16.1754 O   0  0  0  0  0  0  0  0  0  0  0  0
    9.7259   -5.3080   18.4485 C   0  0  0  0  0  0  0  0  0  0  0  0
    9.4578   -5.0200   16.3036 N   0  0  0  0  0  0  0  0  0  0  0  0
    5.0287   -8.9365   16.8223 C   0  0  0  0  0  0  0  0  0  0  0  0
    8.7742   -6.1498   16.6764 C   0  0  0  0  0  0  0  0  0  0  0  0
   10.9418   -3.4032   21.2053 O   0  0  0  0  0  0  0  0  0  0  0  0
    1.4797   -8.6258   16.2950 C   0  0  0  0  0  0  0  0  0  0  0  0
    9.2861   -1.2743   25.3585 C   0  0  0  0  0  0  0  0  0  0  0  0
    1.8892  -10.3985   17.7511 N   0  0  0  0  0  0  0  0  0  0  0  0
    9.6210   -0.6952   24.0976 C   0  0  0  0  0  0  0  0  0  0  0  0
    7.0792   -9.0217   17.1429 C   0  0  0  0  0  0  0  0  0  0  0  0
    3.1713  -10.1816   17.6634 C   0  0  0  0  0  0  0  0  0  0  0  0
    2.7878   -8.3822   16.2137 C   0  0  0  0  0  0  0  0  0  0  0  0
    9.4601   -2.6590   25.6528 C   0  0  0  0  0  0  0  0  0  0  0  0
   10.1182   -1.5672   23.1165 C   0  0  0  0  0  0  0  0  0  0  0  0
    1.0552   -9.6360   17.0650 C   0  0  0  0  0  0  0  0  0  0  0  0
    3.6519   -9.1783   16.9039 C   0  0  0  0  0  0  0  0  0  0  0  0
    7.8675   -7.0096   15.9415 C   0  0  0  0  0  0  0  0  0  0  0  0
    5.9733   -9.6553   17.3832 N   0  0  0  0  0  0  0  0  0  0  0  0
   10.2411   -2.9363   23.4301 C   0  0  0  0  0  0  0  0  0  0  0  0
   10.7288   -3.8197   19.9525 C   0  0  0  0  0  0  0  0  0  0  0  0
   10.1189   -5.0054   19.6987 C   0  0  0  0  0  0  0  0  0  0  0  0
  1  3  4  0
  1  7  4  0
  2 21  4  0
  2 27  4  0
  3  9  4  0
  3 10  4  0
  4  8  4  0
  4 18  4  0
  4 25  1  0
  5  9  4  0
  5 12  4  0
  6 13  1  0
  6 27  1  0
  7 28  4  0
  8 11  4  0
  9 29  4  0
 10 12  4  0
 11 24  1  0
 11 26  4  0
 12 25  1  0
 13 28  1  0
 14 20  4  0
 14 23  4  0
 15 17  4  0
 15 21  4  0
 16 19  4  0
 16 23  4  0
 17 22  4  0
 18 26  4  0
 19 24  4  0
 20 24  4  0
 22 27  4  0
 28 29  4  0
M  END
$$$$

 Created by Python create_sdf_string function

 29 33  0  0  0  0  0  0  0  0999 V2000
   10.7215   -3.3326   17.6437 C   0  0  0  0  0  0  0  0  0  0  0  0
    9.9489   -3.4675   24.6487 N   0  0  0  0  0  0  0  0  0  0  0  0
   10.0172   -4.4740   17.4101 C   0  0  0  0  0  0  0  0  0  0  0  0
    6.9051   -7.9575   16.4222 C   0  0  0  0  0  0  0  0  0  0  0  0
    8.9969   -6.3552   17.9668 N   0  0  0  0  0  0  0  0  0  0  0  0
   10.6702   -3.9051   22.4070 C   0  0  0  0  0  0  0  0  0  0  0  0
   11.0625   -3.0028   18.8894 C   0  0  0  0  0  0  0  0  0  0  0  0
    5.6180   -7.9194   16.1754 O   0  0  0  0  0  0  0  0  0  0  0  0
    9.7259   -5.3080   18.4485 C   0  0  0  0  0  0  0  0  0  0  0  0
    9.4578   -5.0200   16.3036 N   0  0  0  0  0  0  0  0  0  0  0  0
    5.0287   -8.9365   16.8223 C   0  0  0  0  0  0  0  0  0  0  0  0
    8.7742   -6.1498   16.6764 C   0  0  0  0  0  0  0  0  0  0  0  0
   10.9418   -3.4032   21.2053 O   0  0  0  0  0  0  0  0  0  0  0  0
    1.4797   -8.6258   16.2950 C   0  0  0  0  0  0  0  0  0  0  0  0
    9.2861   -1.2743   25.3585 C   0  0  0  0  0  0  0  0  0  0  0  0
    1.8892  -10.3985   17.7511 N   0  0  0  0  0  0  0  0  0  0  0  0
    9.6210   -0.6952   24.0976 C   0  0  0  0  0  0  0  0  0  0  0  0
    7.0792   -9.0217   17.1429 C   0  0  0  0  0  0  0  0  0  0  0  0
    3.1713  -10.1816   17.6634 C   0  0  0  0  0  0  0  0  0  0  0  0
    2.7878   -8.3822   16.2137 C   0  0  0  0  0  0  0  0  0  0  0  0
    9.4601   -2.6590   25.6528 C   0  0  0  0  0  0  0  0  0  0  0  0
   10.1182   -1.5672   23.1165 C   0  0  0  0  0  0  0  0  0  0  0  0
    1.0552   -9.6360   17.0650 C   0  0  0  0  0  0  0  0  0  0  0  0
    3.6519   -9.1783   16.9039 C   0  0  0  0  0  0  0  0  0  0  0  0
    7.8675   -7.0096   15.9415 C   0  0  0  0  0  0  0  0  0  0  0  0
    5.9733   -9.6553   17.3832 N   0  0  0  0  0  0  0  0  0  0  0  0
   10.2411   -2.9363   23.4301 C   0  0  0  0  0  0  0  0  0  0  0  0
   10.7288   -3.8197   19.9525 C   0  0  0  0  0  0  0  0  0  0  0  0
   10.1189   -5.0054   19.6987 C   0  0  0  0  0  0  0  0  0  0  0  0
  1  3  4  0
  1  7  4  0
  2 21  4  0
  2 27  4  0
  3  9  4  0
  3 10  4  0
  4  8  4  0
  4 18  4  0
  4 25  1  0
  5  9  4  0
  5 12  4  0
  6 13  1  0
  6 27  1  0
  7 28  4  0
  8 11  4  0
  9 29  4  0
 10 12  4  0
 11 24  1  0
 11 26  4  0
 12 25  1  0
 13 28  1  0
 14 20  4  0
 14 23  4  0
 15 17  4  0
 15 21  4  0
 16 19  4  0
 16 23  4  0
 17 22  4  0
 18 26  4  0
 19 24  4  0
 20 24  4  0
 22 27  4  0
 28 29  4  0
M  END
$$$$

 Created by Python create_sdf_string function

 29 33  0  0  0  0  0  0  0  0999 V2000
   10.7215   -3.3326   17.6437 C   0  0  0  0  0  0  0  0  0  0  0  0
    9.9489   -3.4675   24.6487 N   0  0  0  0  0  0  0  0  0  0  0  0
   10.0172   -4.4740   17.4101 C   0  0  0  0  0  0  0  0  0  0  0  0
    6.9051   -7.9575   16.4222 C   0  0  0  0  0  0  0  0  0  0  0  0
    8.9969   -6.3552   17.9668 N   0  0  0  0  0  0  0  0  0  0  0  0
   10.6702   -3.9051   22.4070 C   0  0  0  0  0  0  0  0  0  0  0  0
   11.0625   -3.0028   18.8894 C   0  0  0  0  0  0  0  0  0  0  0  0
    5.6180   -7.9194   16.1754 O   0  0  0  0  0  0  0  0  0  0  0  0
    9.7259   -5.3080   18.4485 C   0  0  0  0  0  0  0  0  0  0  0  0
    9.4578   -5.0200   16.3036 N   0  0  0  0  0  0  0  0  0  0  0  0
    5.0287   -8.9365   16.8223 C   0  0  0  0  0  0  0  0  0  0  0  0
    8.7742   -6.1498   16.6764 C   0  0  0  0  0  0  0  0  0  0  0  0
   10.9418   -3.4032   21.2053 O   0  0  0  0  0  0  0  0  0  0  0  0
    1.4797   -8.6258   16.2950 C   0  0  0  0  0  0  0  0  0  0  0  0
    9.2861   -1.2743   25.3585 C   0  0  0  0  0  0  0  0  0  0  0  0
    1.8892  -10.3985   17.7511 N   0  0  0  0  0  0  0  0  0  0  0  0
    9.6210   -0.6952   24.0976 C   0  0  0  0  0  0  0  0  0  0  0  0
    7.0792   -9.0217   17.1429 C   0  0  0  0  0  0  0  0  0  0  0  0
    3.1713  -10.1816   17.6634 C   0  0  0  0  0  0  0  0  0  0  0  0
    2.7878   -8.3822   16.2137 C   0  0  0  0  0  0  0  0  0  0  0  0
    9.4601   -2.6590   25.6528 C   0  0  0  0  0  0  0  0  0  0  0  0
   10.1182   -1.5672   23.1165 C   0  0  0  0  0  0  0  0  0  0  0  0
    1.0552   -9.6360   17.0650 C   0  0  0  0  0  0  0  0  0  0  0  0
    3.6519   -9.1783   16.9039 C   0  0  0  0  0  0  0  0  0  0  0  0
    7.8675   -7.0096   15.9415 C   0  0  0  0  0  0  0  0  0  0  0  0
    5.9733   -9.6553   17.3832 N   0  0  0  0  0  0  0  0  0  0  0  0
   10.2411   -2.9363   23.4301 C   0  0  0  0  0  0  0  0  0  0  0  0
   10.7288   -3.8197   19.9525 C   0  0  0  0  0  0  0  0  0  0  0  0
   10.1189   -5.0054   19.6987 C   0  0  0  0  0  0  0  0  0  0  0  0
  1  3  4  0
  1  7  4  0
  2 21  4  0
  2 27  4  0
  3  9  4  0
  3 10  4  0
  4  8  4  0
  4 18  4  0
  4 25  1  0
  5  9  4  0
  5 12  4  0
  6 13  1  0
  6 27  1  0
  7 28  4  0
  8 11  4  0
  9 29  4  0
 10 12  4  0
 11 24  1  0
 11 26  4  0
 12 25  1  0
 13 28  1  0
 14 20  4  0
 14 23  4  0
 15 17  4  0
 15 21  4  0
 16 19  4  0
 16 23  4  0
 17 22  4  0
 18 26  4  0
 19 24  4  0
 20 24  4  0
 22 27  4  0
 28 29  4  0
M  END
$$$$

 Created by Python create_sdf_string function

 29 33  0  0  0  0  0  0  0  0999 V2000
   10.7215   -3.3326   17.6437 C   0  0  0  0  0  0  0  0  0  0  0  0
    9.9489   -3.4675   24.6487 N   0  0  0  0  0  0  0  0  0  0  0  0
   10.0172   -4.4740   17.4101 C   0  0  0  0  0  0  0  0  0  0  0  0
    6.9051   -7.9575   16.4222 C   0  0  0  0  0  0  0  0  0  0  0  0
    8.9969   -6.3552   17.9668 N   0  0  0  0  0  0  0  0  0  0  0  0
   10.6702   -3.9051   22.4070 C   0  0  0  0  0  0  0  0  0  0  0  0
   11.0625   -3.0028   18.8894 C   0  0  0  0  0  0  0  0  0  0  0  0
    5.6180   -7.9194   16.1754 O   0  0  0  0  0  0  0  0  0  0  0  0
    9.7259   -5.3080   18.4485 C   0  0  0  0  0  0  0  0  0  0  0  0
    9.4578   -5.0200   16.3036 N   0  0  0  0  0  0  0  0  0  0  0  0
    5.0287   -8.9365   16.8223 C   0  0  0  0  0  0  0  0  0  0  0  0
    8.7742   -6.1498   16.6764 C   0  0  0  0  0  0  0  0  0  0  0  0
   10.9418   -3.4032   21.2053 O   0  0  0  0  0  0  0  0  0  0  0  0
    1.4797   -8.6258   16.2950 C   0  0  0  0  0  0  0  0  0  0  0  0
    9.2861   -1.2743   25.3585 C   0  0  0  0  0  0  0  0  0  0  0  0
    1.8892  -10.3985   17.7511 N   0  0  0  0  0  0  0  0  0  0  0  0
    9.6210   -0.6952   24.0976 C   0  0  0  0  0  0  0  0  0  0  0  0
    7.0792   -9.0217   17.1429 C   0  0  0  0  0  0  0  0  0  0  0  0
    3.1713  -10.1816   17.6634 C   0  0  0  0  0  0  0  0  0  0  0  0
    2.7878   -8.3822   16.2137 C   0  0  0  0  0  0  0  0  0  0  0  0
    9.4601   -2.6590   25.6528 C   0  0  0  0  0  0  0  0  0  0  0  0
   10.1182   -1.5672   23.1165 C   0  0  0  0  0  0  0  0  0  0  0  0
    1.0552   -9.6360   17.0650 C   0  0  0  0  0  0  0  0  0  0  0  0
    3.6519   -9.1783   16.9039 C   0  0  0  0  0  0  0  0  0  0  0  0
    7.8675   -7.0096   15.9415 C   0  0  0  0  0  0  0  0  0  0  0  0
    5.9733   -9.6553   17.3832 N   0  0  0  0  0  0  0  0  0  0  0  0
   10.2411   -2.9363   23.4301 C   0  0  0  0  0  0  0  0  0  0  0  0
   10.7288   -3.8197   19.9525 C   0  0  0  0  0  0  0  0  0  0  0  0
   10.1189   -5.0054   19.6987 C   0  0  0  0  0  0  0  0  0  0  0  0
  1  3  4  0
  1  7  4  0
  2 21  4  0
  2 27  4  0
  3  9  4  0
  3 10  4  0
  4  8  4  0
  4 18  4  0
  4 25  1  0
  5  9  4  0
  5 12  4  0
  6 13  1  0
  6 27  1  0
  7 28  4  0
  8 11  4  0
  9 29  4  0
 10 12  4  0
 11 24  1  0
 11 26  4  0
 12 25  1  0
 13 28  1  0
 14 20  4  0
 14 23  4  0
 15 17  4  0
 15 21  4  0
 16 19  4  0
 16 23  4  0
 17 22  4  0
 18 26  4  0
 19 24  4  0
 20 24  4  0
 22 27  4  0
 28 29  4  0
M  END
$$$$

 Created by Python create_sdf_string function

 29 33  0  0  0  0  0  0  0  0999 V2000
   10.7215   -3.3326   17.6437 C   0  0  0  0  0  0  0  0  0  0  0  0
    9.9489   -3.4675   24.6487 N   0  0  0  0  0  0  0  0  0  0  0  0
   10.0172   -4.4740   17.4101 C   0  0  0  0  0  0  0  0  0  0  0  0
    6.9051   -7.9575   16.4222 C   0  0  0  0  0  0  0  0  0  0  0  0
    8.9969   -6.3552   17.9668 N   0  0  0  0  0  0  0  0  0  0  0  0
   10.6702   -3.9051   22.4070 C   0  0  0  0  0  0  0  0  0  0  0  0
   11.0625   -3.0028   18.8894 C   0  0  0  0  0  0  0  0  0  0  0  0
    5.6180   -7.9194   16.1754 O   0  0  0  0  0  0  0  0  0  0  0  0
    9.7259   -5.3080   18.4485 C   0  0  0  0  0  0  0  0  0  0  0  0
    9.4578   -5.0200   16.3036 N   0  0  0  0  0  0  0  0  0  0  0  0
    5.0287   -8.9365   16.8223 C   0  0  0  0  0  0  0  0  0  0  0  0
    8.7742   -6.1498   16.6764 C   0  0  0  0  0  0  0  0  0  0  0  0
   10.9418   -3.4032   21.2053 O   0  0  0  0  0  0  0  0  0  0  0  0
    1.4797   -8.6258   16.2950 C   0  0  0  0  0  0  0  0  0  0  0  0
    9.2861   -1.2743   25.3585 C   0  0  0  0  0  0  0  0  0  0  0  0
    1.8892  -10.3985   17.7511 N   0  0  0  0  0  0  0  0  0  0  0  0
    9.6210   -0.6952   24.0976 C   0  0  0  0  0  0  0  0  0  0  0  0
    7.0792   -9.0217   17.1429 C   0  0  0  0  0  0  0  0  0  0  0  0
    3.1713  -10.1816   17.6634 C   0  0  0  0  0  0  0  0  0  0  0  0
    2.7878   -8.3822   16.2137 C   0  0  0  0  0  0  0  0  0  0  0  0
    9.4601   -2.6590   25.6528 C   0  0  0  0  0  0  0  0  0  0  0  0
   10.1182   -1.5672   23.1165 C   0  0  0  0  0  0  0  0  0  0  0  0
    1.0552   -9.6360   17.0650 C   0  0  0  0  0  0  0  0  0  0  0  0
    3.6519   -9.1783   16.9039 C   0  0  0  0  0  0  0  0  0  0  0  0
    7.8675   -7.0096   15.9415 C   0  0  0  0  0  0  0  0  0  0  0  0
    5.9733   -9.6553   17.3832 N   0  0  0  0  0  0  0  0  0  0  0  0
   10.2411   -2.9363   23.4301 C   0  0  0  0  0  0  0  0  0  0  0  0
   10.7288   -3.8197   19.9525 C   0  0  0  0  0  0  0  0  0  0  0  0
   10.1189   -5.0054   19.6987 C   0  0  0  0  0  0  0  0  0  0  0  0
  1  3  4  0
  1  7  4  0
  2 21  4  0
  2 27  4  0
  3  9  4  0
  3 10  4  0
  4  8  4  0
  4 18  4  0
  4 25  1  0
  5  9  4  0
  5 12  4  0
  6 13  1  0
  6 27  1  0
  7 28  4  0
  8 11  4  0
  9 29  4  0
 10 12  4  0
 11 24  1  0
 11 26  4  0
 12 25  1  0
 13 28  1  0
 14 20  4  0
 14 23  4  0
 15 17  4  0
 15 21  4  0
 16 19  4  0
 16 23  4  0
 17 22  4  0
 18 26  4  0
 19 24  4  0
 20 24  4  0
 22 27  4  0
 28 29  4  0
M  END
$$$$

 Created by Python create_sdf_string function

 29 33  0  0  0  0  0  0  0  0999 V2000
   10.7215   -3.3326   17.6437 C   0  0  0  0  0  0  0  0  0  0  0  0
    9.9489   -3.4675   24.6487 N   0  0  0  0  0  0  0  0  0  0  0  0
   10.0172   -4.4740   17.4101 C   0  0  0  0  0  0  0  0  0  0  0  0
    6.9051   -7.9575   16.4222 C   0  0  0  0  0  0  0  0  0  0  0  0
    8.9969   -6.3552   17.9668 N   0  0  0  0  0  0  0  0  0  0  0  0
   10.6702   -3.9051   22.4070 C   0  0  0  0  0  0  0  0  0  0  0  0
   11.0625   -3.0028   18.8894 C   0  0  0  0  0  0  0  0  0  0  0  0
    5.6180   -7.9194   16.1754 O   0  0  0  0  0  0  0  0  0  0  0  0
    9.7259   -5.3080   18.4485 C   0  0  0  0  0  0  0  0  0  0  0  0
    9.4578   -5.0200   16.3036 N   0  0  0  0  0  0  0  0  0  0  0  0
    5.0287   -8.9365   16.8223 C   0  0  0  0  0  0  0  0  0  0  0  0
    8.7742   -6.1498   16.6764 C   0  0  0  0  0  0  0  0  0  0  0  0
   10.9418   -3.4032   21.2053 O   0  0  0  0  0  0  0  0  0  0  0  0
    1.4797   -8.6258   16.2950 C   0  0  0  0  0  0  0  0  0  0  0  0
    9.2861   -1.2743   25.3585 C   0  0  0  0  0  0  0  0  0  0  0  0
    1.8892  -10.3985   17.7511 N   0  0  0  0  0  0  0  0  0  0  0  0
    9.6210   -0.6952   24.0976 C   0  0  0  0  0  0  0  0  0  0  0  0
    7.0792   -9.0217   17.1429 C   0  0  0  0  0  0  0  0  0  0  0  0
    3.1713  -10.1816   17.6634 C   0  0  0  0  0  0  0  0  0  0  0  0
    2.7878   -8.3822   16.2137 C   0  0  0  0  0  0  0  0  0  0  0  0
    9.4601   -2.6590   25.6528 C   0  0  0  0  0  0  0  0  0  0  0  0
   10.1182   -1.5672   23.1165 C   0  0  0  0  0  0  0  0  0  0  0  0
    1.0552   -9.6360   17.0650 C   0  0  0  0  0  0  0  0  0  0  0  0
    3.6519   -9.1783   16.9039 C   0  0  0  0  0  0  0  0  0  0  0  0
    7.8675   -7.0096   15.9415 C   0  0  0  0  0  0  0  0  0  0  0  0
    5.9733   -9.6553   17.3832 N   0  0  0  0  0  0  0  0  0  0  0  0
   10.2411   -2.9363   23.4301 C   0  0  0  0  0  0  0  0  0  0  0  0
   10.7288   -3.8197   19.9525 C   0  0  0  0  0  0  0  0  0  0  0  0
   10.1189   -5.0054   19.6987 C   0  0  0  0  0  0  0  0  0  0  0  0
  1  3  4  0
  1  7  4  0
  2 21  4  0
  2 27  4  0
  3  9  4  0
  3 10  4  0
  4  8  4  0
  4 18  4  0
  4 25  1  0
  5  9  4  0
  5 12  4  0
  6 13  1  0
  6 27  1  0
  7 28  4  0
  8 11  4  0
  9 29  4  0
 10 12  4  0
 11 24  1  0
 11 26  4  0
 12 25  1  0
 13 28  1  0
 14 20  4  0
 14 23  4  0
 15 17  4  0
 15 21  4  0
 16 19  4  0
 16 23  4  0
 17 22  4  0
 18 26  4  0
 19 24  4  0
 20 24  4  0
 22 27  4  0
 28 29  4  0
M  END
$$$$

 Created by Python create_sdf_string function

 29 33  0  0  0  0  0  0  0  0999 V2000
   10.7215   -3.3326   17.6437 C   0  0  0  0  0  0  0  0  0  0  0  0
    9.9489   -3.4675   24.6487 N   0  0  0  0  0  0  0  0  0  0  0  0
   10.0172   -4.4740   17.4101 C   0  0  0  0  0  0  0  0  0  0  0  0
    6.9051   -7.9575   16.4222 C   0  0  0  0  0  0  0  0  0  0  0  0
    8.9969   -6.3552   17.9668 N   0  0  0  0  0  0  0  0  0  0  0  0
   10.6702   -3.9051   22.4070 C   0  0  0  0  0  0  0  0  0  0  0  0
   11.0625   -3.0028   18.8894 C   0  0  0  0  0  0  0  0  0  0  0  0
    5.6180   -7.9194   16.1754 O   0  0  0  0  0  0  0  0  0  0  0  0
    9.7259   -5.3080   18.4485 C   0  0  0  0  0  0  0  0  0  0  0  0
    9.4578   -5.0200   16.3036 N   0  0  0  0  0  0  0  0  0  0  0  0
    5.0287   -8.9365   16.8223 C   0  0  0  0  0  0  0  0  0  0  0  0
    8.7742   -6.1498   16.6764 C   0  0  0  0  0  0  0  0  0  0  0  0
   10.9418   -3.4032   21.2053 O   0  0  0  0  0  0  0  0  0  0  0  0
    1.4797   -8.6258   16.2950 C   0  0  0  0  0  0  0  0  0  0  0  0
    9.2861   -1.2743   25.3585 C   0  0  0  0  0  0  0  0  0  0  0  0
    1.8892  -10.3985   17.7511 N   0  0  0  0  0  0  0  0  0  0  0  0
    9.6210   -0.6952   24.0976 C   0  0  0  0  0  0  0  0  0  0  0  0
    7.0792   -9.0217   17.1429 C   0  0  0  0  0  0  0  0  0  0  0  0
    3.1713  -10.1816   17.6634 C   0  0  0  0  0  0  0  0  0  0  0  0
    2.7878   -8.3822   16.2137 C   0  0  0  0  0  0  0  0  0  0  0  0
    9.4601   -2.6590   25.6528 C   0  0  0  0  0  0  0  0  0  0  0  0
   10.1182   -1.5672   23.1165 C   0  0  0  0  0  0  0  0  0  0  0  0
    1.0552   -9.6360   17.0650 C   0  0  0  0  0  0  0  0  0  0  0  0
    3.6519   -9.1783   16.9039 C   0  0  0  0  0  0  0  0  0  0  0  0
    7.8675   -7.0096   15.9415 C   0  0  0  0  0  0  0  0  0  0  0  0
    5.9733   -9.6553   17.3832 N   0  0  0  0  0  0  0  0  0  0  0  0
   10.2411   -2.9363   23.4301 C   0  0  0  0  0  0  0  0  0  0  0  0
   10.7288   -3.8197   19.9525 C   0  0  0  0  0  0  0  0  0  0  0  0
   10.1189   -5.0054   19.6987 C   0  0  0  0  0  0  0  0  0  0  0  0
  1  3  4  0
  1  7  4  0
  2 21  4  0
  2 27  4  0
  3  9  4  0
  3 10  4  0
  4  8  4  0
  4 18  4  0
  4 25  1  0
  5  9  4  0
  5 12  4  0
  6 13  1  0
  6 27  1  0
  7 28  4  0
  8 11  4  0
  9 29  4  0
 10 12  4  0
 11 24  1  0
 11 26  4  0
 12 25  1  0
 13 28  1  0
 14 20  4  0
 14 23  4  0
 15 17  4  0
 15 21  4  0
 16 19  4  0
 16 23  4  0
 17 22  4  0
 18 26  4  0
 19 24  4  0
 20 24  4  0
 22 27  4  0
 28 29  4  0
M  END
$$$$

 Created by Python create_sdf_string function

 29 33  0  0  0  0  0  0  0  0999 V2000
   10.7215   -3.3326   17.6437 C   0  0  0  0  0  0  0  0  0  0  0  0
    9.9489   -3.4675   24.6487 N   0  0  0  0  0  0  0  0  0  0  0  0
   10.0172   -4.4740   17.4101 C   0  0  0  0  0  0  0  0  0  0  0  0
    6.9051   -7.9575   16.4222 C   0  0  0  0  0  0  0  0  0  0  0  0
    8.9969   -6.3552   17.9668 N   0  0  0  0  0  0  0  0  0  0  0  0
   10.6702   -3.9051   22.4070 C   0  0  0  0  0  0  0  0  0  0  0  0
   11.0625   -3.0028   18.8894 C   0  0  0  0  0  0  0  0  0  0  0  0
    5.6180   -7.9194   16.1754 O   0  0  0  0  0  0  0  0  0  0  0  0
    9.7259   -5.3080   18.4485 C   0  0  0  0  0  0  0  0  0  0  0  0
    9.4578   -5.0200   16.3036 N   0  0  0  0  0  0  0  0  0  0  0  0
    5.0287   -8.9365   16.8223 C   0  0  0  0  0  0  0  0  0  0  0  0
    8.7742   -6.1498   16.6764 C   0  0  0  0  0  0  0  0  0  0  0  0
   10.9418   -3.4032   21.2053 O   0  0  0  0  0  0  0  0  0  0  0  0
    1.4797   -8.6258   16.2950 C   0  0  0  0  0  0  0  0  0  0  0  0
    9.2861   -1.2743   25.3585 C   0  0  0  0  0  0  0  0  0  0  0  0
    1.8892  -10.3985   17.7511 N   0  0  0  0  0  0  0  0  0  0  0  0
    9.6210   -0.6952   24.0976 C   0  0  0  0  0  0  0  0  0  0  0  0
    7.0792   -9.0217   17.1429 C   0  0  0  0  0  0  0  0  0  0  0  0
    3.1713  -10.1816   17.6634 C   0  0  0  0  0  0  0  0  0  0  0  0
    2.7878   -8.3822   16.2137 C   0  0  0  0  0  0  0  0  0  0  0  0
    9.4601   -2.6590   25.6528 C   0  0  0  0  0  0  0  0  0  0  0  0
   10.1182   -1.5672   23.1165 C   0  0  0  0  0  0  0  0  0  0  0  0
    1.0552   -9.6360   17.0650 C   0  0  0  0  0  0  0  0  0  0  0  0
    3.6519   -9.1783   16.9039 C   0  0  0  0  0  0  0  0  0  0  0  0
    7.8675   -7.0096   15.9415 C   0  0  0  0  0  0  0  0  0  0  0  0
    5.9733   -9.6553   17.3832 N   0  0  0  0  0  0  0  0  0  0  0  0
   10.2411   -2.9363   23.4301 C   0  0  0  0  0  0  0  0  0  0  0  0
   10.7288   -3.8197   19.9525 C   0  0  0  0  0  0  0  0  0  0  0  0
   10.1189   -5.0054   19.6987 C   0  0  0  0  0  0  0  0  0  0  0  0
  1  3  4  0
  1  7  4  0
  2 21  4  0
  2 27  4  0
  3  9  4  0
  3 10  4  0
  4  8  4  0
  4 18  4  0
  4 25  1  0
  5  9  4  0
  5 12  4  0
  6 13  1  0
  6 27  1  0
  7 28  4  0
  8 11  4  0
  9 29  4  0
 10 12  4  0
 11 24  1  0
 11 26  4  0
 12 25  1  0
 13 28  1  0
 14 20  4  0
 14 23  4  0
 15 17  4  0
 15 21  4  0
 16 19  4  0
 16 23  4  0
 17 22  4  0
 18 26  4  0
 19 24  4  0
 20 24  4  0
 22 27  4  0
 28 29  4  0
M  END
$$$$

 Created by Python create_sdf_string function

 29 33  0  0  0  0  0  0  0  0999 V2000
   10.7215   -3.3326   17.6437 C   0  0  0  0  0  0  0  0  0  0  0  0
    9.9489   -3.4675   24.6487 N   0  0  0  0  0  0  0  0  0  0  0  0
   10.0172   -4.4740   17.4101 C   0  0  0  0  0  0  0  0  0  0  0  0
    6.9051   -7.9575   16.4222 C   0  0  0  0  0  0  0  0  0  0  0  0
    8.9969   -6.3552   17.9668 N   0  0  0  0  0  0  0  0  0  0  0  0
   10.6702   -3.9051   22.4070 C   0  0  0  0  0  0  0  0  0  0  0  0
   11.0625   -3.0028   18.8894 C   0  0  0  0  0  0  0  0  0  0  0  0
    5.6180   -7.9194   16.1754 O   0  0  0  0  0  0  0  0  0  0  0  0
    9.7259   -5.3080   18.4485 C   0  0  0  0  0  0  0  0  0  0  0  0
    9.4578   -5.0200   16.3036 N   0  0  0  0  0  0  0  0  0  0  0  0
    5.0287   -8.9365   16.8223 C   0  0  0  0  0  0  0  0  0  0  0  0
    8.7742   -6.1498   16.6764 C   0  0  0  0  0  0  0  0  0  0  0  0
   10.9418   -3.4032   21.2053 O   0  0  0  0  0  0  0  0  0  0  0  0
    1.4797   -8.6258   16.2950 C   0  0  0  0  0  0  0  0  0  0  0  0
    9.2861   -1.2743   25.3585 C   0  0  0  0  0  0  0  0  0  0  0  0
    1.8892  -10.3985   17.7511 N   0  0  0  0  0  0  0  0  0  0  0  0
    9.6210   -0.6952   24.0976 C   0  0  0  0  0  0  0  0  0  0  0  0
    7.0792   -9.0217   17.1429 C   0  0  0  0  0  0  0  0  0  0  0  0
    3.1713  -10.1816   17.6634 C   0  0  0  0  0  0  0  0  0  0  0  0
    2.7878   -8.3822   16.2137 C   0  0  0  0  0  0  0  0  0  0  0  0
    9.4601   -2.6590   25.6528 C   0  0  0  0  0  0  0  0  0  0  0  0
   10.1182   -1.5672   23.1165 C   0  0  0  0  0  0  0  0  0  0  0  0
    1.0552   -9.6360   17.0650 C   0  0  0  0  0  0  0  0  0  0  0  0
    3.6519   -9.1783   16.9039 C   0  0  0  0  0  0  0  0  0  0  0  0
    7.8675   -7.0096   15.9415 C   0  0  0  0  0  0  0  0  0  0  0  0
    5.9733   -9.6553   17.3832 N   0  0  0  0  0  0  0  0  0  0  0  0
   10.2411   -2.9363   23.4301 C   0  0  0  0  0  0  0  0  0  0  0  0
   10.7288   -3.8197   19.9525 C   0  0  0  0  0  0  0  0  0  0  0  0
   10.1189   -5.0054   19.6987 C   0  0  0  0  0  0  0  0  0  0  0  0
  1  3  4  0
  1  7  4  0
  2 21  4  0
  2 27  4  0
  3  9  4  0
  3 10  4  0
  4  8  4  0
  4 18  4  0
  4 25  1  0
  5  9  4  0
  5 12  4  0
  6 13  1  0
  6 27  1  0
  7 28  4  0
  8 11  4  0
  9 29  4  0
 10 12  4  0
 11 24  1  0
 11 26  4  0
 12 25  1  0
 13 28  1  0
 14 20  4  0
 14 23  4  0
 15 17  4  0
 15 21  4  0
 16 19  4  0
 16 23  4  0
 17 22  4  0
 18 26  4  0
 19 24  4  0
 20 24  4  0
 22 27  4  0
 28 29  4  0
M  END
$$$$

 Created by Python create_sdf_string function

 29 33  0  0  0  0  0  0  0  0999 V2000
   10.7215   -3.3326   17.6437 C   0  0  0  0  0  0  0  0  0  0  0  0
    9.9489   -3.4675   24.6487 N   0  0  0  0  0  0  0  0  0  0  0  0
   10.0172   -4.4740   17.4101 C   0  0  0  0  0  0  0  0  0  0  0  0
    6.9051   -7.9575   16.4222 C   0  0  0  0  0  0  0  0  0  0  0  0
    8.9969   -6.3552   17.9668 N   0  0  0  0  0  0  0  0  0  0  0  0
   10.6702   -3.9051   22.4070 C   0  0  0  0  0  0  0  0  0  0  0  0
   11.0625   -3.0028   18.8894 C   0  0  0  0  0  0  0  0  0  0  0  0
    5.6180   -7.9194   16.1754 O   0  0  0  0  0  0  0  0  0  0  0  0
    9.7259   -5.3080   18.4485 C   0  0  0  0  0  0  0  0  0  0  0  0
    9.4578   -5.0200   16.3036 N   0  0  0  0  0  0  0  0  0  0  0  0
    5.0287   -8.9365   16.8223 C   0  0  0  0  0  0  0  0  0  0  0  0
    8.7742   -6.1498   16.6764 C   0  0  0  0  0  0  0  0  0  0  0  0
   10.9418   -3.4032   21.2053 O   0  0  0  0  0  0  0  0  0  0  0  0
    1.4797   -8.6258   16.2950 C   0  0  0  0  0  0  0  0  0  0  0  0
    9.2861   -1.2743   25.3585 C   0  0  0  0  0  0  0  0  0  0  0  0
    1.8892  -10.3985   17.7511 N   0  0  0  0  0  0  0  0  0  0  0  0
    9.6210   -0.6952   24.0976 C   0  0  0  0  0  0  0  0  0  0  0  0
    7.0792   -9.0217   17.1429 C   0  0  0  0  0  0  0  0  0  0  0  0
    3.1713  -10.1816   17.6634 C   0  0  0  0  0  0  0  0  0  0  0  0
    2.7878   -8.3822   16.2137 C   0  0  0  0  0  0  0  0  0  0  0  0
    9.4601   -2.6590   25.6528 C   0  0  0  0  0  0  0  0  0  0  0  0
   10.1182   -1.5672   23.1165 C   0  0  0  0  0  0  0  0  0  0  0  0
    1.0552   -9.6360   17.0650 C   0  0  0  0  0  0  0  0  0  0  0  0
    3.6519   -9.1783   16.9039 C   0  0  0  0  0  0  0  0  0  0  0  0
    7.8675   -7.0096   15.9415 C   0  0  0  0  0  0  0  0  0  0  0  0
    5.9733   -9.6553   17.3832 N   0  0  0  0  0  0  0  0  0  0  0  0
   10.2411   -2.9363   23.4301 C   0  0  0  0  0  0  0  0  0  0  0  0
   10.7288   -3.8197   19.9525 C   0  0  0  0  0  0  0  0  0  0  0  0
   10.1189   -5.0054   19.6987 C   0  0  0  0  0  0  0  0  0  0  0  0
  1  3  4  0
  1  7  4  0
  2 21  4  0
  2 27  4  0
  3  9  4  0
  3 10  4  0
  4  8  4  0
  4 18  4  0
  4 25  1  0
  5  9  4  0
  5 12  4  0
  6 13  1  0
  6 27  1  0
  7 28  4  0
  8 11  4  0
  9 29  4  0
 10 12  4  0
 11 24  1  0
 11 26  4  0
 12 25  1  0
 13 28  1  0
 14 20  4  0
 14 23  4  0
 15 17  4  0
 15 21  4  0
 16 19  4  0
 16 23  4  0
 17 22  4  0
 18 26  4  0
 19 24  4  0
 20 24  4  0
 22 27  4  0
 28 29  4  0
M  END
$$$$

 Created by Python create_sdf_string function

 29 33  0  0  0  0  0  0  0  0999 V2000
   10.7215   -3.3326   17.6437 C   0  0  0  0  0  0  0  0  0  0  0  0
    9.9489   -3.4675   24.6487 N   0  0  0  0  0  0  0  0  0  0  0  0
   10.0172   -4.4740   17.4101 C   0  0  0  0  0  0  0  0  0  0  0  0
    6.9051   -7.9575   16.4222 C   0  0  0  0  0  0  0  0  0  0  0  0
    8.9969   -6.3552   17.9668 N   0  0  0  0  0  0  0  0  0  0  0  0
   10.6702   -3.9051   22.4070 C   0  0  0  0  0  0  0  0  0  0  0  0
   11.0625   -3.0028   18.8894 C   0  0  0  0  0  0  0  0  0  0  0  0
    5.6180   -7.9194   16.1754 O   0  0  0  0  0  0  0  0  0  0  0  0
    9.7259   -5.3080   18.4485 C   0  0  0  0  0  0  0  0  0  0  0  0
    9.4578   -5.0200   16.3036 N   0  0  0  0  0  0  0  0  0  0  0  0
    5.0287   -8.9365   16.8223 C   0  0  0  0  0  0  0  0  0  0  0  0
    8.7742   -6.1498   16.6764 C   0  0  0  0  0  0  0  0  0  0  0  0
   10.9418   -3.4032   21.2053 O   0  0  0  0  0  0  0  0  0  0  0  0
    1.4797   -8.6258   16.2950 C   0  0  0  0  0  0  0  0  0  0  0  0
    9.2861   -1.2743   25.3585 C   0  0  0  0  0  0  0  0  0  0  0  0
    1.8892  -10.3985   17.7511 N   0  0  0  0  0  0  0  0  0  0  0  0
    9.6210   -0.6952   24.0976 C   0  0  0  0  0  0  0  0  0  0  0  0
    7.0792   -9.0217   17.1429 C   0  0  0  0  0  0  0  0  0  0  0  0
    3.1713  -10.1816   17.6634 C   0  0  0  0  0  0  0  0  0  0  0  0
    2.7878   -8.3822   16.2137 C   0  0  0  0  0  0  0  0  0  0  0  0
    9.4601   -2.6590   25.6528 C   0  0  0  0  0  0  0  0  0  0  0  0
   10.1182   -1.5672   23.1165 C   0  0  0  0  0  0  0  0  0  0  0  0
    1.0552   -9.6360   17.0650 C   0  0  0  0  0  0  0  0  0  0  0  0
    3.6519   -9.1783   16.9039 C   0  0  0  0  0  0  0  0  0  0  0  0
    7.8675   -7.0096   15.9415 C   0  0  0  0  0  0  0  0  0  0  0  0
    5.9733   -9.6553   17.3832 N   0  0  0  0  0  0  0  0  0  0  0  0
   10.2411   -2.9363   23.4301 C   0  0  0  0  0  0  0  0  0  0  0  0
   10.7288   -3.8197   19.9525 C   0  0  0  0  0  0  0  0  0  0  0  0
   10.1189   -5.0054   19.6987 C   0  0  0  0  0  0  0  0  0  0  0  0
  1  3  4  0
  1  7  4  0
  2 21  4  0
  2 27  4  0
  3  9  4  0
  3 10  4  0
  4  8  4  0
  4 18  4  0
  4 25  1  0
  5  9  4  0
  5 12  4  0
  6 13  1  0
  6 27  1  0
  7 28  4  0
  8 11  4  0
  9 29  4  0
 10 12  4  0
 11 24  1  0
 11 26  4  0
 12 25  1  0
 13 28  1  0
 14 20  4  0
 14 23  4  0
 15 17  4  0
 15 21  4  0
 16 19  4  0
 16 23  4  0
 17 22  4  0
 18 26  4  0
 19 24  4  0
 20 24  4  0
 22 27  4  0
 28 29  4  0
M  END
$$$$

 Created by Python create_sdf_string function

 29 33  0  0  0  0  0  0  0  0999 V2000
   10.7215   -3.3326   17.6437 C   0  0  0  0  0  0  0  0  0  0  0  0
    9.9489   -3.4675   24.6487 N   0  0  0  0  0  0  0  0  0  0  0  0
   10.0172   -4.4740   17.4101 C   0  0  0  0  0  0  0  0  0  0  0  0
    6.9051   -7.9575   16.4222 C   0  0  0  0  0  0  0  0  0  0  0  0
    8.9969   -6.3552   17.9668 N   0  0  0  0  0  0  0  0  0  0  0  0
   10.6702   -3.9051   22.4070 C   0  0  0  0  0  0  0  0  0  0  0  0
   11.0625   -3.0028   18.8894 C   0  0  0  0  0  0  0  0  0  0  0  0
    5.6180   -7.9194   16.1754 O   0  0  0  0  0  0  0  0  0  0  0  0
    9.7259   -5.3080   18.4485 C   0  0  0  0  0  0  0  0  0  0  0  0
    9.4578   -5.0200   16.3036 N   0  0  0  0  0  0  0  0  0  0  0  0
    5.0287   -8.9365   16.8223 C   0  0  0  0  0  0  0  0  0  0  0  0
    8.7742   -6.1498   16.6764 C   0  0  0  0  0  0  0  0  0  0  0  0
   10.9418   -3.4032   21.2053 O   0  0  0  0  0  0  0  0  0  0  0  0
    1.4797   -8.6258   16.2950 C   0  0  0  0  0  0  0  0  0  0  0  0
    9.2861   -1.2743   25.3585 C   0  0  0  0  0  0  0  0  0  0  0  0
    1.8892  -10.3985   17.7511 N   0  0  0  0  0  0  0  0  0  0  0  0
    9.6210   -0.6952   24.0976 C   0  0  0  0  0  0  0  0  0  0  0  0
    7.0792   -9.0217   17.1429 C   0  0  0  0  0  0  0  0  0  0  0  0
    3.1713  -10.1816   17.6634 C   0  0  0  0  0  0  0  0  0  0  0  0
    2.7878   -8.3822   16.2137 C   0  0  0  0  0  0  0  0  0  0  0  0
    9.4601   -2.6590   25.6528 C   0  0  0  0  0  0  0  0  0  0  0  0
   10.1182   -1.5672   23.1165 C   0  0  0  0  0  0  0  0  0  0  0  0
    1.0552   -9.6360   17.0650 C   0  0  0  0  0  0  0  0  0  0  0  0
    3.6519   -9.1783   16.9039 C   0  0  0  0  0  0  0  0  0  0  0  0
    7.8675   -7.0096   15.9415 C   0  0  0  0  0  0  0  0  0  0  0  0
    5.9733   -9.6553   17.3832 N   0  0  0  0  0  0  0  0  0  0  0  0
   10.2411   -2.9363   23.4301 C   0  0  0  0  0  0  0  0  0  0  0  0
   10.7288   -3.8197   19.9525 C   0  0  0  0  0  0  0  0  0  0  0  0
   10.1189   -5.0054   19.6987 C   0  0  0  0  0  0  0  0  0  0  0  0
  1  3  4  0
  1  7  4  0
  2 21  4  0
  2 27  4  0
  3  9  4  0
  3 10  4  0
  4  8  4  0
  4 18  4  0
  4 25  1  0
  5  9  4  0
  5 12  4  0
  6 13  1  0
  6 27  1  0
  7 28  4  0
  8 11  4  0
  9 29  4  0
 10 12  4  0
 11 24  1  0
 11 26  4  0
 12 25  1  0
 13 28  1  0
 14 20  4  0
 14 23  4  0
 15 17  4  0
 15 21  4  0
 16 19  4  0
 16 23  4  0
 17 22  4  0
 18 26  4  0
 19 24  4  0
 20 24  4  0
 22 27  4  0
 28 29  4  0
M  END
$$$$

 Created by Python create_sdf_string function

 29 33  0  0  0  0  0  0  0  0999 V2000
   10.7215   -3.3326   17.6437 C   0  0  0  0  0  0  0  0  0  0  0  0
    9.9489   -3.4675   24.6487 N   0  0  0  0  0  0  0  0  0  0  0  0
   10.0172   -4.4740   17.4101 C   0  0  0  0  0  0  0  0  0  0  0  0
    6.9051   -7.9575   16.4222 C   0  0  0  0  0  0  0  0  0  0  0  0
    8.9969   -6.3552   17.9668 N   0  0  0  0  0  0  0  0  0  0  0  0
   10.6702   -3.9051   22.4070 C   0  0  0  0  0  0  0  0  0  0  0  0
   11.0625   -3.0028   18.8894 C   0  0  0  0  0  0  0  0  0  0  0  0
    5.6180   -7.9194   16.1754 O   0  0  0  0  0  0  0  0  0  0  0  0
    9.7259   -5.3080   18.4485 C   0  0  0  0  0  0  0  0  0  0  0  0
    9.4578   -5.0200   16.3036 N   0  0  0  0  0  0  0  0  0  0  0  0
    5.0287   -8.9365   16.8223 C   0  0  0  0  0  0  0  0  0  0  0  0
    8.7742   -6.1498   16.6764 C   0  0  0  0  0  0  0  0  0  0  0  0
   10.9418   -3.4032   21.2053 O   0  0  0  0  0  0  0  0  0  0  0  0
    1.4797   -8.6258   16.2950 C   0  0  0  0  0  0  0  0  0  0  0  0
    9.2861   -1.2743   25.3585 C   0  0  0  0  0  0  0  0  0  0  0  0
    1.8892  -10.3985   17.7511 N   0  0  0  0  0  0  0  0  0  0  0  0
    9.6210   -0.6952   24.0976 C   0  0  0  0  0  0  0  0  0  0  0  0
    7.0792   -9.0217   17.1429 C   0  0  0  0  0  0  0  0  0  0  0  0
    3.1713  -10.1816   17.6634 C   0  0  0  0  0  0  0  0  0  0  0  0
    2.7878   -8.3822   16.2137 C   0  0  0  0  0  0  0  0  0  0  0  0
    9.4601   -2.6590   25.6528 C   0  0  0  0  0  0  0  0  0  0  0  0
   10.1182   -1.5672   23.1165 C   0  0  0  0  0  0  0  0  0  0  0  0
    1.0552   -9.6360   17.0650 C   0  0  0  0  0  0  0  0  0  0  0  0
    3.6519   -9.1783   16.9039 C   0  0  0  0  0  0  0  0  0  0  0  0
    7.8675   -7.0096   15.9415 C   0  0  0  0  0  0  0  0  0  0  0  0
    5.9733   -9.6553   17.3832 N   0  0  0  0  0  0  0  0  0  0  0  0
   10.2411   -2.9363   23.4301 C   0  0  0  0  0  0  0  0  0  0  0  0
   10.7288   -3.8197   19.9525 C   0  0  0  0  0  0  0  0  0  0  0  0
   10.1189   -5.0054   19.6987 C   0  0  0  0  0  0  0  0  0  0  0  0
  1  3  4  0
  1  7  4  0
  2 21  4  0
  2 27  4  0
  3  9  4  0
  3 10  4  0
  4  8  4  0
  4 18  4  0
  4 25  1  0
  5  9  4  0
  5 12  4  0
  6 13  1  0
  6 27  1  0
  7 28  4  0
  8 11  4  0
  9 29  4  0
 10 12  4  0
 11 24  1  0
 11 26  4  0
 12 25  1  0
 13 28  1  0
 14 20  4  0
 14 23  4  0
 15 17  4  0
 15 21  4  0
 16 19  4  0
 16 23  4  0
 17 22  4  0
 18 26  4  0
 19 24  4  0
 20 24  4  0
 22 27  4  0
 28 29  4  0
M  END
$$$$

 Created by Python create_sdf_string function

 29 33  0  0  0  0  0  0  0  0999 V2000
   10.7215   -3.3326   17.6437 C   0  0  0  0  0  0  0  0  0  0  0  0
    9.9489   -3.4675   24.6487 N   0  0  0  0  0  0  0  0  0  0  0  0
   10.0172   -4.4740   17.4101 C   0  0  0  0  0  0  0  0  0  0  0  0
    6.9051   -7.9575   16.4222 C   0  0  0  0  0  0  0  0  0  0  0  0
    8.9969   -6.3552   17.9668 N   0  0  0  0  0  0  0  0  0  0  0  0
   10.6702   -3.9051   22.4070 C   0  0  0  0  0  0  0  0  0  0  0  0
   11.0625   -3.0028   18.8894 C   0  0  0  0  0  0  0  0  0  0  0  0
    5.6180   -7.9194   16.1754 O   0  0  0  0  0  0  0  0  0  0  0  0
    9.7259   -5.3080   18.4485 C   0  0  0  0  0  0  0  0  0  0  0  0
    9.4578   -5.0200   16.3036 N   0  0  0  0  0  0  0  0  0  0  0  0
    5.0287   -8.9365   16.8223 C   0  0  0  0  0  0  0  0  0  0  0  0
    8.7742   -6.1498   16.6764 C   0  0  0  0  0  0  0  0  0  0  0  0
   10.9418   -3.4032   21.2053 O   0  0  0  0  0  0  0  0  0  0  0  0
    1.4797   -8.6258   16.2950 C   0  0  0  0  0  0  0  0  0  0  0  0
    9.2861   -1.2743   25.3585 C   0  0  0  0  0  0  0  0  0  0  0  0
    1.8892  -10.3985   17.7511 N   0  0  0  0  0  0  0  0  0  0  0  0
    9.6210   -0.6952   24.0976 C   0  0  0  0  0  0  0  0  0  0  0  0
    7.0792   -9.0217   17.1429 C   0  0  0  0  0  0  0  0  0  0  0  0
    3.1713  -10.1816   17.6634 C   0  0  0  0  0  0  0  0  0  0  0  0
    2.7878   -8.3822   16.2137 C   0  0  0  0  0  0  0  0  0  0  0  0
    9.4601   -2.6590   25.6528 C   0  0  0  0  0  0  0  0  0  0  0  0
   10.1182   -1.5672   23.1165 C   0  0  0  0  0  0  0  0  0  0  0  0
    1.0552   -9.6360   17.0650 C   0  0  0  0  0  0  0  0  0  0  0  0
    3.6519   -9.1783   16.9039 C   0  0  0  0  0  0  0  0  0  0  0  0
    7.8675   -7.0096   15.9415 C   0  0  0  0  0  0  0  0  0  0  0  0
    5.9733   -9.6553   17.3832 N   0  0  0  0  0  0  0  0  0  0  0  0
   10.2411   -2.9363   23.4301 C   0  0  0  0  0  0  0  0  0  0  0  0
   10.7288   -3.8197   19.9525 C   0  0  0  0  0  0  0  0  0  0  0  0
   10.1189   -5.0054   19.6987 C   0  0  0  0  0  0  0  0  0  0  0  0
  1  3  4  0
  1  7  4  0
  2 21  4  0
  2 27  4  0
  3  9  4  0
  3 10  4  0
  4  8  4  0
  4 18  4  0
  4 25  1  0
  5  9  4  0
  5 12  4  0
  6 13  1  0
  6 27  1  0
  7 28  4  0
  8 11  4  0
  9 29  4  0
 10 12  4  0
 11 24  1  0
 11 26  4  0
 12 25  1  0
 13 28  1  0
 14 20  4  0
 14 23  4  0
 15 17  4  0
 15 21  4  0
 16 19  4  0
 16 23  4  0
 17 22  4  0
 18 26  4  0
 19 24  4  0
 20 24  4  0
 22 27  4  0
 28 29  4  0
M  END
$$$$

 Created by Python create_sdf_string function

 29 33  0  0  0  0  0  0  0  0999 V2000
   10.7215   -3.3326   17.6437 C   0  0  0  0  0  0  0  0  0  0  0  0
    9.9489   -3.4675   24.6487 N   0  0  0  0  0  0  0  0  0  0  0  0
   10.0172   -4.4740   17.4101 C   0  0  0  0  0  0  0  0  0  0  0  0
    6.9051   -7.9575   16.4222 C   0  0  0  0  0  0  0  0  0  0  0  0
    8.9969   -6.3552   17.9668 N   0  0  0  0  0  0  0  0  0  0  0  0
   10.6702   -3.9051   22.4070 C   0  0  0  0  0  0  0  0  0  0  0  0
   11.0625   -3.0028   18.8894 C   0  0  0  0  0  0  0  0  0  0  0  0
    5.6180   -7.9194   16.1754 O   0  0  0  0  0  0  0  0  0  0  0  0
    9.7259   -5.3080   18.4485 C   0  0  0  0  0  0  0  0  0  0  0  0
    9.4578   -5.0200   16.3036 N   0  0  0  0  0  0  0  0  0  0  0  0
    5.0287   -8.9365   16.8223 C   0  0  0  0  0  0  0  0  0  0  0  0
    8.7742   -6.1498   16.6764 C   0  0  0  0  0  0  0  0  0  0  0  0
   10.9418   -3.4032   21.2053 O   0  0  0  0  0  0  0  0  0  0  0  0
    1.4797   -8.6258   16.2950 C   0  0  0  0  0  0  0  0  0  0  0  0
    9.2861   -1.2743   25.3585 C   0  0  0  0  0  0  0  0  0  0  0  0
    1.8892  -10.3985   17.7511 N   0  0  0  0  0  0  0  0  0  0  0  0
    9.6210   -0.6952   24.0976 C   0  0  0  0  0  0  0  0  0  0  0  0
    7.0792   -9.0217   17.1429 C   0  0  0  0  0  0  0  0  0  0  0  0
    3.1713  -10.1816   17.6634 C   0  0  0  0  0  0  0  0  0  0  0  0
    2.7878   -8.3822   16.2137 C   0  0  0  0  0  0  0  0  0  0  0  0
    9.4601   -2.6590   25.6528 C   0  0  0  0  0  0  0  0  0  0  0  0
   10.1182   -1.5672   23.1165 C   0  0  0  0  0  0  0  0  0  0  0  0
    1.0552   -9.6360   17.0650 C   0  0  0  0  0  0  0  0  0  0  0  0
    3.6519   -9.1783   16.9039 C   0  0  0  0  0  0  0  0  0  0  0  0
    7.8675   -7.0096   15.9415 C   0  0  0  0  0  0  0  0  0  0  0  0
    5.9733   -9.6553   17.3832 N   0  0  0  0  0  0  0  0  0  0  0  0
   10.2411   -2.9363   23.4301 C   0  0  0  0  0  0  0  0  0  0  0  0
   10.7288   -3.8197   19.9525 C   0  0  0  0  0  0  0  0  0  0  0  0
   10.1189   -5.0054   19.6987 C   0  0  0  0  0  0  0  0  0  0  0  0
  1  3  4  0
  1  7  4  0
  2 21  4  0
  2 27  4  0
  3  9  4  0
  3 10  4  0
  4  8  4  0
  4 18  4  0
  4 25  1  0
  5  9  4  0
  5 12  4  0
  6 13  1  0
  6 27  1  0
  7 28  4  0
  8 11  4  0
  9 29  4  0
 10 12  4  0
 11 24  1  0
 11 26  4  0
 12 25  1  0
 13 28  1  0
 14 20  4  0
 14 23  4  0
 15 17  4  0
 15 21  4  0
 16 19  4  0
 16 23  4  0
 17 22  4  0
 18 26  4  0
 19 24  4  0
 20 24  4  0
 22 27  4  0
 28 29  4  0
M  END
$$$$

 Created by Python create_sdf_string function

 29 33  0  0  0  0  0  0  0  0999 V2000
   10.7215   -3.3326   17.6437 C   0  0  0  0  0  0  0  0  0  0  0  0
    9.9489   -3.4675   24.6487 N   0  0  0  0  0  0  0  0  0  0  0  0
   10.0172   -4.4740   17.4101 C   0  0  0  0  0  0  0  0  0  0  0  0
    6.9051   -7.9575   16.4222 C   0  0  0  0  0  0  0  0  0  0  0  0
    8.9969   -6.3552   17.9668 N   0  0  0  0  0  0  0  0  0  0  0  0
   10.6702   -3.9051   22.4070 C   0  0  0  0  0  0  0  0  0  0  0  0
   11.0625   -3.0028   18.8894 C   0  0  0  0  0  0  0  0  0  0  0  0
    5.6180   -7.9194   16.1754 O   0  0  0  0  0  0  0  0  0  0  0  0
    9.7259   -5.3080   18.4485 C   0  0  0  0  0  0  0  0  0  0  0  0
    9.4578   -5.0200   16.3036 N   0  0  0  0  0  0  0  0  0  0  0  0
    5.0287   -8.9365   16.8223 C   0  0  0  0  0  0  0  0  0  0  0  0
    8.7742   -6.1498   16.6764 C   0  0  0  0  0  0  0  0  0  0  0  0
   10.9418   -3.4032   21.2053 O   0  0  0  0  0  0  0  0  0  0  0  0
    1.4797   -8.6258   16.2950 C   0  0  0  0  0  0  0  0  0  0  0  0
    9.2861   -1.2743   25.3585 C   0  0  0  0  0  0  0  0  0  0  0  0
    1.8892  -10.3985   17.7511 N   0  0  0  0  0  0  0  0  0  0  0  0
    9.6210   -0.6952   24.0976 C   0  0  0  0  0  0  0  0  0  0  0  0
    7.0792   -9.0217   17.1429 C   0  0  0  0  0  0  0  0  0  0  0  0
    3.1713  -10.1816   17.6634 C   0  0  0  0  0  0  0  0  0  0  0  0
    2.7878   -8.3822   16.2137 C   0  0  0  0  0  0  0  0  0  0  0  0
    9.4601   -2.6590   25.6528 C   0  0  0  0  0  0  0  0  0  0  0  0
   10.1182   -1.5672   23.1165 C   0  0  0  0  0  0  0  0  0  0  0  0
    1.0552   -9.6360   17.0650 C   0  0  0  0  0  0  0  0  0  0  0  0
    3.6519   -9.1783   16.9039 C   0  0  0  0  0  0  0  0  0  0  0  0
    7.8675   -7.0096   15.9415 C   0  0  0  0  0  0  0  0  0  0  0  0
    5.9733   -9.6553   17.3832 N   0  0  0  0  0  0  0  0  0  0  0  0
   10.2411   -2.9363   23.4301 C   0  0  0  0  0  0  0  0  0  0  0  0
   10.7288   -3.8197   19.9525 C   0  0  0  0  0  0  0  0  0  0  0  0
   10.1189   -5.0054   19.6987 C   0  0  0  0  0  0  0  0  0  0  0  0
  1  3  4  0
  1  7  4  0
  2 21  4  0
  2 27  4  0
  3  9  4  0
  3 10  4  0
  4  8  4  0
  4 18  4  0
  4 25  1  0
  5  9  4  0
  5 12  4  0
  6 13  1  0
  6 27  1  0
  7 28  4  0
  8 11  4  0
  9 29  4  0
 10 12  4  0
 11 24  1  0
 11 26  4  0
 12 25  1  0
 13 28  1  0
 14 20  4  0
 14 23  4  0
 15 17  4  0
 15 21  4  0
 16 19  4  0
 16 23  4  0
 17 22  4  0
 18 26  4  0
 19 24  4  0
 20 24  4  0
 22 27  4  0
 28 29  4  0
M  END
$$$$

 Created by Python create_sdf_string function

 29 33  0  0  0  0  0  0  0  0999 V2000
   10.7215   -3.3326   17.6437 C   0  0  0  0  0  0  0  0  0  0  0  0
    9.9489   -3.4675   24.6487 N   0  0  0  0  0  0  0  0  0  0  0  0
   10.0172   -4.4740   17.4101 C   0  0  0  0  0  0  0  0  0  0  0  0
    6.9051   -7.9575   16.4222 C   0  0  0  0  0  0  0  0  0  0  0  0
    8.9969   -6.3552   17.9668 N   0  0  0  0  0  0  0  0  0  0  0  0
   10.6702   -3.9051   22.4070 C   0  0  0  0  0  0  0  0  0  0  0  0
   11.0625   -3.0028   18.8894 C   0  0  0  0  0  0  0  0  0  0  0  0
    5.6180   -7.9194   16.1754 O   0  0  0  0  0  0  0  0  0  0  0  0
    9.7259   -5.3080   18.4485 C   0  0  0  0  0  0  0  0  0  0  0  0
    9.4578   -5.0200   16.3036 N   0  0  0  0  0  0  0  0  0  0  0  0
    5.0287   -8.9365   16.8223 C   0  0  0  0  0  0  0  0  0  0  0  0
    8.7742   -6.1498   16.6764 C   0  0  0  0  0  0  0  0  0  0  0  0
   10.9418   -3.4032   21.2053 O   0  0  0  0  0  0  0  0  0  0  0  0
    1.4797   -8.6258   16.2950 C   0  0  0  0  0  0  0  0  0  0  0  0
    9.2861   -1.2743   25.3585 C   0  0  0  0  0  0  0  0  0  0  0  0
    1.8892  -10.3985   17.7511 N   0  0  0  0  0  0  0  0  0  0  0  0
    9.6210   -0.6952   24.0976 C   0  0  0  0  0  0  0  0  0  0  0  0
    7.0792   -9.0217   17.1429 C   0  0  0  0  0  0  0  0  0  0  0  0
    3.1713  -10.1816   17.6634 C   0  0  0  0  0  0  0  0  0  0  0  0
    2.7878   -8.3822   16.2137 C   0  0  0  0  0  0  0  0  0  0  0  0
    9.4601   -2.6590   25.6528 C   0  0  0  0  0  0  0  0  0  0  0  0
   10.1182   -1.5672   23.1165 C   0  0  0  0  0  0  0  0  0  0  0  0
    1.0552   -9.6360   17.0650 C   0  0  0  0  0  0  0  0  0  0  0  0
    3.6519   -9.1783   16.9039 C   0  0  0  0  0  0  0  0  0  0  0  0
    7.8675   -7.0096   15.9415 C   0  0  0  0  0  0  0  0  0  0  0  0
    5.9733   -9.6553   17.3832 N   0  0  0  0  0  0  0  0  0  0  0  0
   10.2411   -2.9363   23.4301 C   0  0  0  0  0  0  0  0  0  0  0  0
   10.7288   -3.8197   19.9525 C   0  0  0  0  0  0  0  0  0  0  0  0
   10.1189   -5.0054   19.6987 C   0  0  0  0  0  0  0  0  0  0  0  0
  1  3  4  0
  1  7  4  0
  2 21  4  0
  2 27  4  0
  3  9  4  0
  3 10  4  0
  4  8  4  0
  4 18  4  0
  4 25  1  0
  5  9  4  0
  5 12  4  0
  6 13  1  0
  6 27  1  0
  7 28  4  0
  8 11  4  0
  9 29  4  0
 10 12  4  0
 11 24  1  0
 11 26  4  0
 12 25  1  0
 13 28  1  0
 14 20  4  0
 14 23  4  0
 15 17  4  0
 15 21  4  0
 16 19  4  0
 16 23  4  0
 17 22  4  0
 18 26  4  0
 19 24  4  0
 20 24  4  0
 22 27  4  0
 28 29  4  0
M  END
$$$$

 Created by Python create_sdf_string function

 29 33  0  0  0  0  0  0  0  0999 V2000
   10.7215   -3.3326   17.6437 C   0  0  0  0  0  0  0  0  0  0  0  0
    9.9489   -3.4675   24.6487 N   0  0  0  0  0  0  0  0  0  0  0  0
   10.0172   -4.4740   17.4101 C   0  0  0  0  0  0  0  0  0  0  0  0
    6.9051   -7.9575   16.4222 C   0  0  0  0  0  0  0  0  0  0  0  0
    8.9969   -6.3552   17.9668 N   0  0  0  0  0  0  0  0  0  0  0  0
   10.6702   -3.9051   22.4070 C   0  0  0  0  0  0  0  0  0  0  0  0
   11.0625   -3.0028   18.8894 C   0  0  0  0  0  0  0  0  0  0  0  0
    5.6180   -7.9194   16.1754 O   0  0  0  0  0  0  0  0  0  0  0  0
    9.7259   -5.3080   18.4485 C   0  0  0  0  0  0  0  0  0  0  0  0
    9.4578   -5.0200   16.3036 N   0  0  0  0  0  0  0  0  0  0  0  0
    5.0287   -8.9365   16.8223 C   0  0  0  0  0  0  0  0  0  0  0  0
    8.7742   -6.1498   16.6764 C   0  0  0  0  0  0  0  0  0  0  0  0
   10.9418   -3.4032   21.2053 O   0  0  0  0  0  0  0  0  0  0  0  0
    1.4797   -8.6258   16.2950 C   0  0  0  0  0  0  0  0  0  0  0  0
    9.2861   -1.2743   25.3585 C   0  0  0  0  0  0  0  0  0  0  0  0
    1.8892  -10.3985   17.7511 N   0  0  0  0  0  0  0  0  0  0  0  0
    9.6210   -0.6952   24.0976 C   0  0  0  0  0  0  0  0  0  0  0  0
    7.0792   -9.0217   17.1429 C   0  0  0  0  0  0  0  0  0  0  0  0
    3.1713  -10.1816   17.6634 C   0  0  0  0  0  0  0  0  0  0  0  0
    2.7878   -8.3822   16.2137 C   0  0  0  0  0  0  0  0  0  0  0  0
    9.4601   -2.6590   25.6528 C   0  0  0  0  0  0  0  0  0  0  0  0
   10.1182   -1.5672   23.1165 C   0  0  0  0  0  0  0  0  0  0  0  0
    1.0552   -9.6360   17.0650 C   0  0  0  0  0  0  0  0  0  0  0  0
    3.6519   -9.1783   16.9039 C   0  0  0  0  0  0  0  0  0  0  0  0
    7.8675   -7.0096   15.9415 C   0  0  0  0  0  0  0  0  0  0  0  0
    5.9733   -9.6553   17.3832 N   0  0  0  0  0  0  0  0  0  0  0  0
   10.2411   -2.9363   23.4301 C   0  0  0  0  0  0  0  0  0  0  0  0
   10.7288   -3.8197   19.9525 C   0  0  0  0  0  0  0  0  0  0  0  0
   10.1189   -5.0054   19.6987 C   0  0  0  0  0  0  0  0  0  0  0  0
  1  3  4  0
  1  7  4  0
  2 21  4  0
  2 27  4  0
  3  9  4  0
  3 10  4  0
  4  8  4  0
  4 18  4  0
  4 25  1  0
  5  9  4  0
  5 12  4  0
  6 13  1  0
  6 27  1  0
  7 28  4  0
  8 11  4  0
  9 29  4  0
 10 12  4  0
 11 24  1  0
 11 26  4  0
 12 25  1  0
 13 28  1  0
 14 20  4  0
 14 23  4  0
 15 17  4  0
 15 21  4  0
 16 19  4  0
 16 23  4  0
 17 22  4  0
 18 26  4  0
 19 24  4  0
 20 24  4  0
 22 27  4  0
 28 29  4  0
M  END
$$$$

 Created by Python create_sdf_string function

 29 33  0  0  0  0  0  0  0  0999 V2000
   10.7215   -3.3326   17.6437 C   0  0  0  0  0  0  0  0  0  0  0  0
    9.9489   -3.4675   24.6487 N   0  0  0  0  0  0  0  0  0  0  0  0
   10.0172   -4.4740   17.4101 C   0  0  0  0  0  0  0  0  0  0  0  0
    6.9051   -7.9575   16.4222 C   0  0  0  0  0  0  0  0  0  0  0  0
    8.9969   -6.3552   17.9668 N   0  0  0  0  0  0  0  0  0  0  0  0
   10.6702   -3.9051   22.4070 C   0  0  0  0  0  0  0  0  0  0  0  0
   11.0625   -3.0028   18.8894 C   0  0  0  0  0  0  0  0  0  0  0  0
    5.6180   -7.9194   16.1754 O   0  0  0  0  0  0  0  0  0  0  0  0
    9.7259   -5.3080   18.4485 C   0  0  0  0  0  0  0  0  0  0  0  0
    9.4578   -5.0200   16.3036 N   0  0  0  0  0  0  0  0  0  0  0  0
    5.0287   -8.9365   16.8223 C   0  0  0  0  0  0  0  0  0  0  0  0
    8.7742   -6.1498   16.6764 C   0  0  0  0  0  0  0  0  0  0  0  0
   10.9418   -3.4032   21.2053 O   0  0  0  0  0  0  0  0  0  0  0  0
    1.4797   -8.6258   16.2950 C   0  0  0  0  0  0  0  0  0  0  0  0
    9.2861   -1.2743   25.3585 C   0  0  0  0  0  0  0  0  0  0  0  0
    1.8892  -10.3985   17.7511 N   0  0  0  0  0  0  0  0  0  0  0  0
    9.6210   -0.6952   24.0976 C   0  0  0  0  0  0  0  0  0  0  0  0
    7.0792   -9.0217   17.1429 C   0  0  0  0  0  0  0  0  0  0  0  0
    3.1713  -10.1816   17.6634 C   0  0  0  0  0  0  0  0  0  0  0  0
    2.7878   -8.3822   16.2137 C   0  0  0  0  0  0  0  0  0  0  0  0
    9.4601   -2.6590   25.6528 C   0  0  0  0  0  0  0  0  0  0  0  0
   10.1182   -1.5672   23.1165 C   0  0  0  0  0  0  0  0  0  0  0  0
    1.0552   -9.6360   17.0650 C   0  0  0  0  0  0  0  0  0  0  0  0
    3.6519   -9.1783   16.9039 C   0  0  0  0  0  0  0  0  0  0  0  0
    7.8675   -7.0096   15.9415 C   0  0  0  0  0  0  0  0  0  0  0  0
    5.9733   -9.6553   17.3832 N   0  0  0  0  0  0  0  0  0  0  0  0
   10.2411   -2.9363   23.4301 C   0  0  0  0  0  0  0  0  0  0  0  0
   10.7288   -3.8197   19.9525 C   0  0  0  0  0  0  0  0  0  0  0  0
   10.1189   -5.0054   19.6987 C   0  0  0  0  0  0  0  0  0  0  0  0
  1  3  4  0
  1  7  4  0
  2 21  4  0
  2 27  4  0
  3  9  4  0
  3 10  4  0
  4  8  4  0
  4 18  4  0
  4 25  1  0
  5  9  4  0
  5 12  4  0
  6 13  1  0
  6 27  1  0
  7 28  4  0
  8 11  4  0
  9 29  4  0
 10 12  4  0
 11 24  1  0
 11 26  4  0
 12 25  1  0
 13 28  1  0
 14 20  4  0
 14 23  4  0
 15 17  4  0
 15 21  4  0
 16 19  4  0
 16 23  4  0
 17 22  4  0
 18 26  4  0
 19 24  4  0
 20 24  4  0
 22 27  4  0
 28 29  4  0
M  END
$$$$

 Created by Python create_sdf_string function

 29 33  0  0  0  0  0  0  0  0999 V2000
   10.7215   -3.3326   17.6437 C   0  0  0  0  0  0  0  0  0  0  0  0
    9.9489   -3.4675   24.6487 N   0  0  0  0  0  0  0  0  0  0  0  0
   10.0172   -4.4740   17.4101 C   0  0  0  0  0  0  0  0  0  0  0  0
    6.9051   -7.9575   16.4222 C   0  0  0  0  0  0  0  0  0  0  0  0
    8.9969   -6.3552   17.9668 N   0  0  0  0  0  0  0  0  0  0  0  0
   10.6702   -3.9051   22.4070 C   0  0  0  0  0  0  0  0  0  0  0  0
   11.0625   -3.0028   18.8894 C   0  0  0  0  0  0  0  0  0  0  0  0
    5.6180   -7.9194   16.1754 O   0  0  0  0  0  0  0  0  0  0  0  0
    9.7259   -5.3080   18.4485 C   0  0  0  0  0  0  0  0  0  0  0  0
    9.4578   -5.0200   16.3036 N   0  0  0  0  0  0  0  0  0  0  0  0
    5.0287   -8.9365   16.8223 C   0  0  0  0  0  0  0  0  0  0  0  0
    8.7742   -6.1498   16.6764 C   0  0  0  0  0  0  0  0  0  0  0  0
   10.9418   -3.4032   21.2053 O   0  0  0  0  0  0  0  0  0  0  0  0
    1.4797   -8.6258   16.2950 C   0  0  0  0  0  0  0  0  0  0  0  0
    9.2861   -1.2743   25.3585 C   0  0  0  0  0  0  0  0  0  0  0  0
    1.8892  -10.3985   17.7511 N   0  0  0  0  0  0  0  0  0  0  0  0
    9.6210   -0.6952   24.0976 C   0  0  0  0  0  0  0  0  0  0  0  0
    7.0792   -9.0217   17.1429 C   0  0  0  0  0  0  0  0  0  0  0  0
    3.1713  -10.1816   17.6634 C   0  0  0  0  0  0  0  0  0  0  0  0
    2.7878   -8.3822   16.2137 C   0  0  0  0  0  0  0  0  0  0  0  0
    9.4601   -2.6590   25.6528 C   0  0  0  0  0  0  0  0  0  0  0  0
   10.1182   -1.5672   23.1165 C   0  0  0  0  0  0  0  0  0  0  0  0
    1.0552   -9.6360   17.0650 C   0  0  0  0  0  0  0  0  0  0  0  0
    3.6519   -9.1783   16.9039 C   0  0  0  0  0  0  0  0  0  0  0  0
    7.8675   -7.0096   15.9415 C   0  0  0  0  0  0  0  0  0  0  0  0
    5.9733   -9.6553   17.3832 N   0  0  0  0  0  0  0  0  0  0  0  0
   10.2411   -2.9363   23.4301 C   0  0  0  0  0  0  0  0  0  0  0  0
   10.7288   -3.8197   19.9525 C   0  0  0  0  0  0  0  0  0  0  0  0
   10.1189   -5.0054   19.6987 C   0  0  0  0  0  0  0  0  0  0  0  0
  1  3  4  0
  1  7  4  0
  2 21  4  0
  2 27  4  0
  3  9  4  0
  3 10  4  0
  4  8  4  0
  4 18  4  0
  4 25  1  0
  5  9  4  0
  5 12  4  0
  6 13  1  0
  6 27  1  0
  7 28  4  0
  8 11  4  0
  9 29  4  0
 10 12  4  0
 11 24  1  0
 11 26  4  0
 12 25  1  0
 13 28  1  0
 14 20  4  0
 14 23  4  0
 15 17  4  0
 15 21  4  0
 16 19  4  0
 16 23  4  0
 17 22  4  0
 18 26  4  0
 19 24  4  0
 20 24  4  0
 22 27  4  0
 28 29  4  0
M  END
$$$$

 Created by Python create_sdf_string function

 29 33  0  0  0  0  0  0  0  0999 V2000
   10.7215   -3.3326   17.6437 C   0  0  0  0  0  0  0  0  0  0  0  0
    9.9489   -3.4675   24.6487 N   0  0  0  0  0  0  0  0  0  0  0  0
   10.0172   -4.4740   17.4101 C   0  0  0  0  0  0  0  0  0  0  0  0
    6.9051   -7.9575   16.4222 C   0  0  0  0  0  0  0  0  0  0  0  0
    8.9969   -6.3552   17.9668 N   0  0  0  0  0  0  0  0  0  0  0  0
   10.6702   -3.9051   22.4070 C   0  0  0  0  0  0  0  0  0  0  0  0
   11.0625   -3.0028   18.8894 C   0  0  0  0  0  0  0  0  0  0  0  0
    5.6180   -7.9194   16.1754 O   0  0  0  0  0  0  0  0  0  0  0  0
    9.7259   -5.3080   18.4485 C   0  0  0  0  0  0  0  0  0  0  0  0
    9.4578   -5.0200   16.3036 N   0  0  0  0  0  0  0  0  0  0  0  0
    5.0287   -8.9365   16.8223 C   0  0  0  0  0  0  0  0  0  0  0  0
    8.7742   -6.1498   16.6764 C   0  0  0  0  0  0  0  0  0  0  0  0
   10.9418   -3.4032   21.2053 O   0  0  0  0  0  0  0  0  0  0  0  0
    1.4797   -8.6258   16.2950 C   0  0  0  0  0  0  0  0  0  0  0  0
    9.2861   -1.2743   25.3585 C   0  0  0  0  0  0  0  0  0  0  0  0
    1.8892  -10.3985   17.7511 N   0  0  0  0  0  0  0  0  0  0  0  0
    9.6210   -0.6952   24.0976 C   0  0  0  0  0  0  0  0  0  0  0  0
    7.0792   -9.0217   17.1429 C   0  0  0  0  0  0  0  0  0  0  0  0
    3.1713  -10.1816   17.6634 C   0  0  0  0  0  0  0  0  0  0  0  0
    2.7878   -8.3822   16.2137 C   0  0  0  0  0  0  0  0  0  0  0  0
    9.4601   -2.6590   25.6528 C   0  0  0  0  0  0  0  0  0  0  0  0
   10.1182   -1.5672   23.1165 C   0  0  0  0  0  0  0  0  0  0  0  0
    1.0552   -9.6360   17.0650 C   0  0  0  0  0  0  0  0  0  0  0  0
    3.6519   -9.1783   16.9039 C   0  0  0  0  0  0  0  0  0  0  0  0
    7.8675   -7.0096   15.9415 C   0  0  0  0  0  0  0  0  0  0  0  0
    5.9733   -9.6553   17.3832 N   0  0  0  0  0  0  0  0  0  0  0  0
   10.2411   -2.9363   23.4301 C   0  0  0  0  0  0  0  0  0  0  0  0
   10.7288   -3.8197   19.9525 C   0  0  0  0  0  0  0  0  0  0  0  0
   10.1189   -5.0054   19.6987 C   0  0  0  0  0  0  0  0  0  0  0  0
  1  3  4  0
  1  7  4  0
  2 21  4  0
  2 27  4  0
  3  9  4  0
  3 10  4  0
  4  8  4  0
  4 18  4  0
  4 25  1  0
  5  9  4  0
  5 12  4  0
  6 13  1  0
  6 27  1  0
  7 28  4  0
  8 11  4  0
  9 29  4  0
 10 12  4  0
 11 24  1  0
 11 26  4  0
 12 25  1  0
 13 28  1  0
 14 20  4  0
 14 23  4  0
 15 17  4  0
 15 21  4  0
 16 19  4  0
 16 23  4  0
 17 22  4  0
 18 26  4  0
 19 24  4  0
 20 24  4  0
 22 27  4  0
 28 29  4  0
M  END
$$$$

 Created by Python create_sdf_string function

 29 33  0  0  0  0  0  0  0  0999 V2000
   10.7215   -3.3326   17.6437 C   0  0  0  0  0  0  0  0  0  0  0  0
    9.9489   -3.4675   24.6487 N   0  0  0  0  0  0  0  0  0  0  0  0
   10.0172   -4.4740   17.4101 C   0  0  0  0  0  0  0  0  0  0  0  0
    6.9051   -7.9575   16.4222 C   0  0  0  0  0  0  0  0  0  0  0  0
    8.9969   -6.3552   17.9668 N   0  0  0  0  0  0  0  0  0  0  0  0
   10.6702   -3.9051   22.4070 C   0  0  0  0  0  0  0  0  0  0  0  0
   11.0625   -3.0028   18.8894 C   0  0  0  0  0  0  0  0  0  0  0  0
    5.6180   -7.9194   16.1754 O   0  0  0  0  0  0  0  0  0  0  0  0
    9.7259   -5.3080   18.4485 C   0  0  0  0  0  0  0  0  0  0  0  0
    9.4578   -5.0200   16.3036 N   0  0  0  0  0  0  0  0  0  0  0  0
    5.0287   -8.9365   16.8223 C   0  0  0  0  0  0  0  0  0  0  0  0
    8.7742   -6.1498   16.6764 C   0  0  0  0  0  0  0  0  0  0  0  0
   10.9418   -3.4032   21.2053 O   0  0  0  0  0  0  0  0  0  0  0  0
    1.4797   -8.6258   16.2950 C   0  0  0  0  0  0  0  0  0  0  0  0
    9.2861   -1.2743   25.3585 C   0  0  0  0  0  0  0  0  0  0  0  0
    1.8892  -10.3985   17.7511 N   0  0  0  0  0  0  0  0  0  0  0  0
    9.6210   -0.6952   24.0976 C   0  0  0  0  0  0  0  0  0  0  0  0
    7.0792   -9.0217   17.1429 C   0  0  0  0  0  0  0  0  0  0  0  0
    3.1713  -10.1816   17.6634 C   0  0  0  0  0  0  0  0  0  0  0  0
    2.7878   -8.3822   16.2137 C   0  0  0  0  0  0  0  0  0  0  0  0
    9.4601   -2.6590   25.6528 C   0  0  0  0  0  0  0  0  0  0  0  0
   10.1182   -1.5672   23.1165 C   0  0  0  0  0  0  0  0  0  0  0  0
    1.0552   -9.6360   17.0650 C   0  0  0  0  0  0  0  0  0  0  0  0
    3.6519   -9.1783   16.9039 C   0  0  0  0  0  0  0  0  0  0  0  0
    7.8675   -7.0096   15.9415 C   0  0  0  0  0  0  0  0  0  0  0  0
    5.9733   -9.6553   17.3832 N   0  0  0  0  0  0  0  0  0  0  0  0
   10.2411   -2.9363   23.4301 C   0  0  0  0  0  0  0  0  0  0  0  0
   10.7288   -3.8197   19.9525 C   0  0  0  0  0  0  0  0  0  0  0  0
   10.1189   -5.0054   19.6987 C   0  0  0  0  0  0  0  0  0  0  0  0
  1  3  4  0
  1  7  4  0
  2 21  4  0
  2 27  4  0
  3  9  4  0
  3 10  4  0
  4  8  4  0
  4 18  4  0
  4 25  1  0
  5  9  4  0
  5 12  4  0
  6 13  1  0
  6 27  1  0
  7 28  4  0
  8 11  4  0
  9 29  4  0
 10 12  4  0
 11 24  1  0
 11 26  4  0
 12 25  1  0
 13 28  1  0
 14 20  4  0
 14 23  4  0
 15 17  4  0
 15 21  4  0
 16 19  4  0
 16 23  4  0
 17 22  4  0
 18 26  4  0
 19 24  4  0
 20 24  4  0
 22 27  4  0
 28 29  4  0
M  END
$$$$

 Created by Python create_sdf_string function

 29 33  0  0  0  0  0  0  0  0999 V2000
   10.7215   -3.3326   17.6437 C   0  0  0  0  0  0  0  0  0  0  0  0
    9.9489   -3.4675   24.6487 N   0  0  0  0  0  0  0  0  0  0  0  0
   10.0172   -4.4740   17.4101 C   0  0  0  0  0  0  0  0  0  0  0  0
    6.9051   -7.9575   16.4222 C   0  0  0  0  0  0  0  0  0  0  0  0
    8.9969   -6.3552   17.9668 N   0  0  0  0  0  0  0  0  0  0  0  0
   10.6702   -3.9051   22.4070 C   0  0  0  0  0  0  0  0  0  0  0  0
   11.0625   -3.0028   18.8894 C   0  0  0  0  0  0  0  0  0  0  0  0
    5.6180   -7.9194   16.1754 O   0  0  0  0  0  0  0  0  0  0  0  0
    9.7259   -5.3080   18.4485 C   0  0  0  0  0  0  0  0  0  0  0  0
    9.4578   -5.0200   16.3036 N   0  0  0  0  0  0  0  0  0  0  0  0
    5.0287   -8.9365   16.8223 C   0  0  0  0  0  0  0  0  0  0  0  0
    8.7742   -6.1498   16.6764 C   0  0  0  0  0  0  0  0  0  0  0  0
   10.9418   -3.4032   21.2053 O   0  0  0  0  0  0  0  0  0  0  0  0
    1.4797   -8.6258   16.2950 C   0  0  0  0  0  0  0  0  0  0  0  0
    9.2861   -1.2743   25.3585 C   0  0  0  0  0  0  0  0  0  0  0  0
    1.8892  -10.3985   17.7511 N   0  0  0  0  0  0  0  0  0  0  0  0
    9.6210   -0.6952   24.0976 C   0  0  0  0  0  0  0  0  0  0  0  0
    7.0792   -9.0217   17.1429 C   0  0  0  0  0  0  0  0  0  0  0  0
    3.1713  -10.1816   17.6634 C   0  0  0  0  0  0  0  0  0  0  0  0
    2.7878   -8.3822   16.2137 C   0  0  0  0  0  0  0  0  0  0  0  0
    9.4601   -2.6590   25.6528 C   0  0  0  0  0  0  0  0  0  0  0  0
   10.1182   -1.5672   23.1165 C   0  0  0  0  0  0  0  0  0  0  0  0
    1.0552   -9.6360   17.0650 C   0  0  0  0  0  0  0  0  0  0  0  0
    3.6519   -9.1783   16.9039 C   0  0  0  0  0  0  0  0  0  0  0  0
    7.8675   -7.0096   15.9415 C   0  0  0  0  0  0  0  0  0  0  0  0
    5.9733   -9.6553   17.3832 N   0  0  0  0  0  0  0  0  0  0  0  0
   10.2411   -2.9363   23.4301 C   0  0  0  0  0  0  0  0  0  0  0  0
   10.7288   -3.8197   19.9525 C   0  0  0  0  0  0  0  0  0  0  0  0
   10.1189   -5.0054   19.6987 C   0  0  0  0  0  0  0  0  0  0  0  0
  1  3  4  0
  1  7  4  0
  2 21  4  0
  2 27  4  0
  3  9  4  0
  3 10  4  0
  4  8  4  0
  4 18  4  0
  4 25  1  0
  5  9  4  0
  5 12  4  0
  6 13  1  0
  6 27  1  0
  7 28  4  0
  8 11  4  0
  9 29  4  0
 10 12  4  0
 11 24  1  0
 11 26  4  0
 12 25  1  0
 13 28  1  0
 14 20  4  0
 14 23  4  0
 15 17  4  0
 15 21  4  0
 16 19  4  0
 16 23  4  0
 17 22  4  0
 18 26  4  0
 19 24  4  0
 20 24  4  0
 22 27  4  0
 28 29  4  0
M  END
$$$$

 Created by Python create_sdf_string function

 29 33  0  0  0  0  0  0  0  0999 V2000
   10.7215   -3.3326   17.6437 C   0  0  0  0  0  0  0  0  0  0  0  0
    9.9489   -3.4675   24.6487 N   0  0  0  0  0  0  0  0  0  0  0  0
   10.0172   -4.4740   17.4101 C   0  0  0  0  0  0  0  0  0  0  0  0
    6.9051   -7.9575   16.4222 C   0  0  0  0  0  0  0  0  0  0  0  0
    8.9969   -6.3552   17.9668 N   0  0  0  0  0  0  0  0  0  0  0  0
   10.6702   -3.9051   22.4070 C   0  0  0  0  0  0  0  0  0  0  0  0
   11.0625   -3.0028   18.8894 C   0  0  0  0  0  0  0  0  0  0  0  0
    5.6180   -7.9194   16.1754 O   0  0  0  0  0  0  0  0  0  0  0  0
    9.7259   -5.3080   18.4485 C   0  0  0  0  0  0  0  0  0  0  0  0
    9.4578   -5.0200   16.3036 N   0  0  0  0  0  0  0  0  0  0  0  0
    5.0287   -8.9365   16.8223 C   0  0  0  0  0  0  0  0  0  0  0  0
    8.7742   -6.1498   16.6764 C   0  0  0  0  0  0  0  0  0  0  0  0
   10.9418   -3.4032   21.2053 O   0  0  0  0  0  0  0  0  0  0  0  0
    1.4797   -8.6258   16.2950 C   0  0  0  0  0  0  0  0  0  0  0  0
    9.2861   -1.2743   25.3585 C   0  0  0  0  0  0  0  0  0  0  0  0
    1.8892  -10.3985   17.7511 N   0  0  0  0  0  0  0  0  0  0  0  0
    9.6210   -0.6952   24.0976 C   0  0  0  0  0  0  0  0  0  0  0  0
    7.0792   -9.0217   17.1429 C   0  0  0  0  0  0  0  0  0  0  0  0
    3.1713  -10.1816   17.6634 C   0  0  0  0  0  0  0  0  0  0  0  0
    2.7878   -8.3822   16.2137 C   0  0  0  0  0  0  0  0  0  0  0  0
    9.4601   -2.6590   25.6528 C   0  0  0  0  0  0  0  0  0  0  0  0
   10.1182   -1.5672   23.1165 C   0  0  0  0  0  0  0  0  0  0  0  0
    1.0552   -9.6360   17.0650 C   0  0  0  0  0  0  0  0  0  0  0  0
    3.6519   -9.1783   16.9039 C   0  0  0  0  0  0  0  0  0  0  0  0
    7.8675   -7.0096   15.9415 C   0  0  0  0  0  0  0  0  0  0  0  0
    5.9733   -9.6553   17.3832 N   0  0  0  0  0  0  0  0  0  0  0  0
   10.2411   -2.9363   23.4301 C   0  0  0  0  0  0  0  0  0  0  0  0
   10.7288   -3.8197   19.9525 C   0  0  0  0  0  0  0  0  0  0  0  0
   10.1189   -5.0054   19.6987 C   0  0  0  0  0  0  0  0  0  0  0  0
  1  3  4  0
  1  7  4  0
  2 21  4  0
  2 27  4  0
  3  9  4  0
  3 10  4  0
  4  8  4  0
  4 18  4  0
  4 25  1  0
  5  9  4  0
  5 12  4  0
  6 13  1  0
  6 27  1  0
  7 28  4  0
  8 11  4  0
  9 29  4  0
 10 12  4  0
 11 24  1  0
 11 26  4  0
 12 25  1  0
 13 28  1  0
 14 20  4  0
 14 23  4  0
 15 17  4  0
 15 21  4  0
 16 19  4  0
 16 23  4  0
 17 22  4  0
 18 26  4  0
 19 24  4  0
 20 24  4  0
 22 27  4  0
 28 29  4  0
M  END
$$$$

 Created by Python create_sdf_string function

 29 33  0  0  0  0  0  0  0  0999 V2000
   10.7215   -3.3326   17.6437 C   0  0  0  0  0  0  0  0  0  0  0  0
    9.9489   -3.4675   24.6487 N   0  0  0  0  0  0  0  0  0  0  0  0
   10.0172   -4.4740   17.4101 C   0  0  0  0  0  0  0  0  0  0  0  0
    6.9051   -7.9575   16.4222 C   0  0  0  0  0  0  0  0  0  0  0  0
    8.9969   -6.3552   17.9668 N   0  0  0  0  0  0  0  0  0  0  0  0
   10.6702   -3.9051   22.4070 C   0  0  0  0  0  0  0  0  0  0  0  0
   11.0625   -3.0028   18.8894 C   0  0  0  0  0  0  0  0  0  0  0  0
    5.6180   -7.9194   16.1754 O   0  0  0  0  0  0  0  0  0  0  0  0
    9.7259   -5.3080   18.4485 C   0  0  0  0  0  0  0  0  0  0  0  0
    9.4578   -5.0200   16.3036 N   0  0  0  0  0  0  0  0  0  0  0  0
    5.0287   -8.9365   16.8223 C   0  0  0  0  0  0  0  0  0  0  0  0
    8.7742   -6.1498   16.6764 C   0  0  0  0  0  0  0  0  0  0  0  0
   10.9418   -3.4032   21.2053 O   0  0  0  0  0  0  0  0  0  0  0  0
    1.4797   -8.6258   16.2950 C   0  0  0  0  0  0  0  0  0  0  0  0
    9.2861   -1.2743   25.3585 C   0  0  0  0  0  0  0  0  0  0  0  0
    1.8892  -10.3985   17.7511 N   0  0  0  0  0  0  0  0  0  0  0  0
    9.6210   -0.6952   24.0976 C   0  0  0  0  0  0  0  0  0  0  0  0
    7.0792   -9.0217   17.1429 C   0  0  0  0  0  0  0  0  0  0  0  0
    3.1713  -10.1816   17.6634 C   0  0  0  0  0  0  0  0  0  0  0  0
    2.7878   -8.3822   16.2137 C   0  0  0  0  0  0  0  0  0  0  0  0
    9.4601   -2.6590   25.6528 C   0  0  0  0  0  0  0  0  0  0  0  0
   10.1182   -1.5672   23.1165 C   0  0  0  0  0  0  0  0  0  0  0  0
    1.0552   -9.6360   17.0650 C   0  0  0  0  0  0  0  0  0  0  0  0
    3.6519   -9.1783   16.9039 C   0  0  0  0  0  0  0  0  0  0  0  0
    7.8675   -7.0096   15.9415 C   0  0  0  0  0  0  0  0  0  0  0  0
    5.9733   -9.6553   17.3832 N   0  0  0  0  0  0  0  0  0  0  0  0
   10.2411   -2.9363   23.4301 C   0  0  0  0  0  0  0  0  0  0  0  0
   10.7288   -3.8197   19.9525 C   0  0  0  0  0  0  0  0  0  0  0  0
   10.1189   -5.0054   19.6987 C   0  0  0  0  0  0  0  0  0  0  0  0
  1  3  4  0
  1  7  4  0
  2 21  4  0
  2 27  4  0
  3  9  4  0
  3 10  4  0
  4  8  4  0
  4 18  4  0
  4 25  1  0
  5  9  4  0
  5 12  4  0
  6 13  1  0
  6 27  1  0
  7 28  4  0
  8 11  4  0
  9 29  4  0
 10 12  4  0
 11 24  1  0
 11 26  4  0
 12 25  1  0
 13 28  1  0
 14 20  4  0
 14 23  4  0
 15 17  4  0
 15 21  4  0
 16 19  4  0
 16 23  4  0
 17 22  4  0
 18 26  4  0
 19 24  4  0
 20 24  4  0
 22 27  4  0
 28 29  4  0
M  END
$$$$

 Created by Python create_sdf_string function

 29 33  0  0  0  0  0  0  0  0999 V2000
   10.7215   -3.3326   17.6437 C   0  0  0  0  0  0  0  0  0  0  0  0
    9.9489   -3.4675   24.6487 N   0  0  0  0  0  0  0  0  0  0  0  0
   10.0172   -4.4740   17.4101 C   0  0  0  0  0  0  0  0  0  0  0  0
    6.9051   -7.9575   16.4222 C   0  0  0  0  0  0  0  0  0  0  0  0
    8.9969   -6.3552   17.9668 N   0  0  0  0  0  0  0  0  0  0  0  0
   10.6702   -3.9051   22.4070 C   0  0  0  0  0  0  0  0  0  0  0  0
   11.0625   -3.0028   18.8894 C   0  0  0  0  0  0  0  0  0  0  0  0
    5.6180   -7.9194   16.1754 O   0  0  0  0  0  0  0  0  0  0  0  0
    9.7259   -5.3080   18.4485 C   0  0  0  0  0  0  0  0  0  0  0  0
    9.4578   -5.0200   16.3036 N   0  0  0  0  0  0  0  0  0  0  0  0
    5.0287   -8.9365   16.8223 C   0  0  0  0  0  0  0  0  0  0  0  0
    8.7742   -6.1498   16.6764 C   0  0  0  0  0  0  0  0  0  0  0  0
   10.9418   -3.4032   21.2053 O   0  0  0  0  0  0  0  0  0  0  0  0
    1.4797   -8.6258   16.2950 C   0  0  0  0  0  0  0  0  0  0  0  0
    9.2861   -1.2743   25.3585 C   0  0  0  0  0  0  0  0  0  0  0  0
    1.8892  -10.3985   17.7511 N   0  0  0  0  0  0  0  0  0  0  0  0
    9.6210   -0.6952   24.0976 C   0  0  0  0  0  0  0  0  0  0  0  0
    7.0792   -9.0217   17.1429 C   0  0  0  0  0  0  0  0  0  0  0  0
    3.1713  -10.1816   17.6634 C   0  0  0  0  0  0  0  0  0  0  0  0
    2.7878   -8.3822   16.2137 C   0  0  0  0  0  0  0  0  0  0  0  0
    9.4601   -2.6590   25.6528 C   0  0  0  0  0  0  0  0  0  0  0  0
   10.1182   -1.5672   23.1165 C   0  0  0  0  0  0  0  0  0  0  0  0
    1.0552   -9.6360   17.0650 C   0  0  0  0  0  0  0  0  0  0  0  0
    3.6519   -9.1783   16.9039 C   0  0  0  0  0  0  0  0  0  0  0  0
    7.8675   -7.0096   15.9415 C   0  0  0  0  0  0  0  0  0  0  0  0
    5.9733   -9.6553   17.3832 N   0  0  0  0  0  0  0  0  0  0  0  0
   10.2411   -2.9363   23.4301 C   0  0  0  0  0  0  0  0  0  0  0  0
   10.7288   -3.8197   19.9525 C   0  0  0  0  0  0  0  0  0  0  0  0
   10.1189   -5.0054   19.6987 C   0  0  0  0  0  0  0  0  0  0  0  0
  1  3  4  0
  1  7  4  0
  2 21  4  0
  2 27  4  0
  3  9  4  0
  3 10  4  0
  4  8  4  0
  4 18  4  0
  4 25  1  0
  5  9  4  0
  5 12  4  0
  6 13  1  0
  6 27  1  0
  7 28  4  0
  8 11  4  0
  9 29  4  0
 10 12  4  0
 11 24  1  0
 11 26  4  0
 12 25  1  0
 13 28  1  0
 14 20  4  0
 14 23  4  0
 15 17  4  0
 15 21  4  0
 16 19  4  0
 16 23  4  0
 17 22  4  0
 18 26  4  0
 19 24  4  0
 20 24  4  0
 22 27  4  0
 28 29  4  0
M  END
$$$$

 Created by Python create_sdf_string function

 29 33  0  0  0  0  0  0  0  0999 V2000
   10.7215   -3.3326   17.6437 C   0  0  0  0  0  0  0  0  0  0  0  0
    9.9489   -3.4675   24.6487 N   0  0  0  0  0  0  0  0  0  0  0  0
   10.0172   -4.4740   17.4101 C   0  0  0  0  0  0  0  0  0  0  0  0
    6.9051   -7.9575   16.4222 C   0  0  0  0  0  0  0  0  0  0  0  0
    8.9969   -6.3552   17.9668 N   0  0  0  0  0  0  0  0  0  0  0  0
   10.6702   -3.9051   22.4070 C   0  0  0  0  0  0  0  0  0  0  0  0
   11.0625   -3.0028   18.8894 C   0  0  0  0  0  0  0  0  0  0  0  0
    5.6180   -7.9194   16.1754 O   0  0  0  0  0  0  0  0  0  0  0  0
    9.7259   -5.3080   18.4485 C   0  0  0  0  0  0  0  0  0  0  0  0
    9.4578   -5.0200   16.3036 N   0  0  0  0  0  0  0  0  0  0  0  0
    5.0287   -8.9365   16.8223 C   0  0  0  0  0  0  0  0  0  0  0  0
    8.7742   -6.1498   16.6764 C   0  0  0  0  0  0  0  0  0  0  0  0
   10.9418   -3.4032   21.2053 O   0  0  0  0  0  0  0  0  0  0  0  0
    1.4797   -8.6258   16.2950 C   0  0  0  0  0  0  0  0  0  0  0  0
    9.2861   -1.2743   25.3585 C   0  0  0  0  0  0  0  0  0  0  0  0
    1.8892  -10.3985   17.7511 N   0  0  0  0  0  0  0  0  0  0  0  0
    9.6210   -0.6952   24.0976 C   0  0  0  0  0  0  0  0  0  0  0  0
    7.0792   -9.0217   17.1429 C   0  0  0  0  0  0  0  0  0  0  0  0
    3.1713  -10.1816   17.6634 C   0  0  0  0  0  0  0  0  0  0  0  0
    2.7878   -8.3822   16.2137 C   0  0  0  0  0  0  0  0  0  0  0  0
    9.4601   -2.6590   25.6528 C   0  0  0  0  0  0  0  0  0  0  0  0
   10.1182   -1.5672   23.1165 C   0  0  0  0  0  0  0  0  0  0  0  0
    1.0552   -9.6360   17.0650 C   0  0  0  0  0  0  0  0  0  0  0  0
    3.6519   -9.1783   16.9039 C   0  0  0  0  0  0  0  0  0  0  0  0
    7.8675   -7.0096   15.9415 C   0  0  0  0  0  0  0  0  0  0  0  0
    5.9733   -9.6553   17.3832 N   0  0  0  0  0  0  0  0  0  0  0  0
   10.2411   -2.9363   23.4301 C   0  0  0  0  0  0  0  0  0  0  0  0
   10.7288   -3.8197   19.9525 C   0  0  0  0  0  0  0  0  0  0  0  0
   10.1189   -5.0054   19.6987 C   0  0  0  0  0  0  0  0  0  0  0  0
  1  3  4  0
  1  7  4  0
  2 21  4  0
  2 27  4  0
  3  9  4  0
  3 10  4  0
  4  8  4  0
  4 18  4  0
  4 25  1  0
  5  9  4  0
  5 12  4  0
  6 13  1  0
  6 27  1  0
  7 28  4  0
  8 11  4  0
  9 29  4  0
 10 12  4  0
 11 24  1  0
 11 26  4  0
 12 25  1  0
 13 28  1  0
 14 20  4  0
 14 23  4  0
 15 17  4  0
 15 21  4  0
 16 19  4  0
 16 23  4  0
 17 22  4  0
 18 26  4  0
 19 24  4  0
 20 24  4  0
 22 27  4  0
 28 29  4  0
M  END
$$$$

 Created by Python create_sdf_string function

 29 33  0  0  0  0  0  0  0  0999 V2000
   10.7215   -3.3326   17.6437 C   0  0  0  0  0  0  0  0  0  0  0  0
    9.9489   -3.4675   24.6487 N   0  0  0  0  0  0  0  0  0  0  0  0
   10.0172   -4.4740   17.4101 C   0  0  0  0  0  0  0  0  0  0  0  0
    6.9051   -7.9575   16.4222 C   0  0  0  0  0  0  0  0  0  0  0  0
    8.9969   -6.3552   17.9668 N   0  0  0  0  0  0  0  0  0  0  0  0
   10.6702   -3.9051   22.4070 C   0  0  0  0  0  0  0  0  0  0  0  0
   11.0625   -3.0028   18.8894 C   0  0  0  0  0  0  0  0  0  0  0  0
    5.6180   -7.9194   16.1754 O   0  0  0  0  0  0  0  0  0  0  0  0
    9.7259   -5.3080   18.4485 C   0  0  0  0  0  0  0  0  0  0  0  0
    9.4578   -5.0200   16.3036 N   0  0  0  0  0  0  0  0  0  0  0  0
    5.0287   -8.9365   16.8223 C   0  0  0  0  0  0  0  0  0  0  0  0
    8.7742   -6.1498   16.6764 C   0  0  0  0  0  0  0  0  0  0  0  0
   10.9418   -3.4032   21.2053 O   0  0  0  0  0  0  0  0  0  0  0  0
    1.4797   -8.6258   16.2950 C   0  0  0  0  0  0  0  0  0  0  0  0
    9.2861   -1.2743   25.3585 C   0  0  0  0  0  0  0  0  0  0  0  0
    1.8892  -10.3985   17.7511 N   0  0  0  0  0  0  0  0  0  0  0  0
    9.6210   -0.6952   24.0976 C   0  0  0  0  0  0  0  0  0  0  0  0
    7.0792   -9.0217   17.1429 C   0  0  0  0  0  0  0  0  0  0  0  0
    3.1713  -10.1816   17.6634 C   0  0  0  0  0  0  0  0  0  0  0  0
    2.7878   -8.3822   16.2137 C   0  0  0  0  0  0  0  0  0  0  0  0
    9.4601   -2.6590   25.6528 C   0  0  0  0  0  0  0  0  0  0  0  0
   10.1182   -1.5672   23.1165 C   0  0  0  0  0  0  0  0  0  0  0  0
    1.0552   -9.6360   17.0650 C   0  0  0  0  0  0  0  0  0  0  0  0
    3.6519   -9.1783   16.9039 C   0  0  0  0  0  0  0  0  0  0  0  0
    7.8675   -7.0096   15.9415 C   0  0  0  0  0  0  0  0  0  0  0  0
    5.9733   -9.6553   17.3832 N   0  0  0  0  0  0  0  0  0  0  0  0
   10.2411   -2.9363   23.4301 C   0  0  0  0  0  0  0  0  0  0  0  0
   10.7288   -3.8197   19.9525 C   0  0  0  0  0  0  0  0  0  0  0  0
   10.1189   -5.0054   19.6987 C   0  0  0  0  0  0  0  0  0  0  0  0
  1  3  4  0
  1  7  4  0
  2 21  4  0
  2 27  4  0
  3  9  4  0
  3 10  4  0
  4  8  4  0
  4 18  4  0
  4 25  1  0
  5  9  4  0
  5 12  4  0
  6 13  1  0
  6 27  1  0
  7 28  4  0
  8 11  4  0
  9 29  4  0
 10 12  4  0
 11 24  1  0
 11 26  4  0
 12 25  1  0
 13 28  1  0
 14 20  4  0
 14 23  4  0
 15 17  4  0
 15 21  4  0
 16 19  4  0
 16 23  4  0
 17 22  4  0
 18 26  4  0
 19 24  4  0
 20 24  4  0
 22 27  4  0
 28 29  4  0
M  END
$$$$

 Created by Python create_sdf_string function

 29 33  0  0  0  0  0  0  0  0999 V2000
   10.7215   -3.3326   17.6437 C   0  0  0  0  0  0  0  0  0  0  0  0
    9.9489   -3.4675   24.6487 N   0  0  0  0  0  0  0  0  0  0  0  0
   10.0172   -4.4740   17.4101 C   0  0  0  0  0  0  0  0  0  0  0  0
    6.9051   -7.9575   16.4222 C   0  0  0  0  0  0  0  0  0  0  0  0
    8.9969   -6.3552   17.9668 N   0  0  0  0  0  0  0  0  0  0  0  0
   10.6702   -3.9051   22.4070 C   0  0  0  0  0  0  0  0  0  0  0  0
   11.0625   -3.0028   18.8894 C   0  0  0  0  0  0  0  0  0  0  0  0
    5.6180   -7.9194   16.1754 O   0  0  0  0  0  0  0  0  0  0  0  0
    9.7259   -5.3080   18.4485 C   0  0  0  0  0  0  0  0  0  0  0  0
    9.4578   -5.0200   16.3036 N   0  0  0  0  0  0  0  0  0  0  0  0
    5.0287   -8.9365   16.8223 C   0  0  0  0  0  0  0  0  0  0  0  0
    8.7742   -6.1498   16.6764 C   0  0  0  0  0  0  0  0  0  0  0  0
   10.9418   -3.4032   21.2053 O   0  0  0  0  0  0  0  0  0  0  0  0
    1.4797   -8.6258   16.2950 C   0  0  0  0  0  0  0  0  0  0  0  0
    9.2861   -1.2743   25.3585 C   0  0  0  0  0  0  0  0  0  0  0  0
    1.8892  -10.3985   17.7511 N   0  0  0  0  0  0  0  0  0  0  0  0
    9.6210   -0.6952   24.0976 C   0  0  0  0  0  0  0  0  0  0  0  0
    7.0792   -9.0217   17.1429 C   0  0  0  0  0  0  0  0  0  0  0  0
    3.1713  -10.1816   17.6634 C   0  0  0  0  0  0  0  0  0  0  0  0
    2.7878   -8.3822   16.2137 C   0  0  0  0  0  0  0  0  0  0  0  0
    9.4601   -2.6590   25.6528 C   0  0  0  0  0  0  0  0  0  0  0  0
   10.1182   -1.5672   23.1165 C   0  0  0  0  0  0  0  0  0  0  0  0
    1.0552   -9.6360   17.0650 C   0  0  0  0  0  0  0  0  0  0  0  0
    3.6519   -9.1783   16.9039 C   0  0  0  0  0  0  0  0  0  0  0  0
    7.8675   -7.0096   15.9415 C   0  0  0  0  0  0  0  0  0  0  0  0
    5.9733   -9.6553   17.3832 N   0  0  0  0  0  0  0  0  0  0  0  0
   10.2411   -2.9363   23.4301 C   0  0  0  0  0  0  0  0  0  0  0  0
   10.7288   -3.8197   19.9525 C   0  0  0  0  0  0  0  0  0  0  0  0
   10.1189   -5.0054   19.6987 C   0  0  0  0  0  0  0  0  0  0  0  0
  1  3  4  0
  1  7  4  0
  2 21  4  0
  2 27  4  0
  3  9  4  0
  3 10  4  0
  4  8  4  0
  4 18  4  0
  4 25  1  0
  5  9  4  0
  5 12  4  0
  6 13  1  0
  6 27  1  0
  7 28  4  0
  8 11  4  0
  9 29  4  0
 10 12  4  0
 11 24  1  0
 11 26  4  0
 12 25  1  0
 13 28  1  0
 14 20  4  0
 14 23  4  0
 15 17  4  0
 15 21  4  0
 16 19  4  0
 16 23  4  0
 17 22  4  0
 18 26  4  0
 19 24  4  0
 20 24  4  0
 22 27  4  0
 28 29  4  0
M  END
$$$$

 Created by Python create_sdf_string function

 29 33  0  0  0  0  0  0  0  0999 V2000
   10.7215   -3.3326   17.6437 C   0  0  0  0  0  0  0  0  0  0  0  0
    9.9489   -3.4675   24.6487 N   0  0  0  0  0  0  0  0  0  0  0  0
   10.0172   -4.4740   17.4101 C   0  0  0  0  0  0  0  0  0  0  0  0
    6.9051   -7.9575   16.4222 C   0  0  0  0  0  0  0  0  0  0  0  0
    8.9969   -6.3552   17.9668 N   0  0  0  0  0  0  0  0  0  0  0  0
   10.6702   -3.9051   22.4070 C   0  0  0  0  0  0  0  0  0  0  0  0
   11.0625   -3.0028   18.8894 C   0  0  0  0  0  0  0  0  0  0  0  0
    5.6180   -7.9194   16.1754 O   0  0  0  0  0  0  0  0  0  0  0  0
    9.7259   -5.3080   18.4485 C   0  0  0  0  0  0  0  0  0  0  0  0
    9.4578   -5.0200   16.3036 N   0  0  0  0  0  0  0  0  0  0  0  0
    5.0287   -8.9365   16.8223 C   0  0  0  0  0  0  0  0  0  0  0  0
    8.7742   -6.1498   16.6764 C   0  0  0  0  0  0  0  0  0  0  0  0
   10.9418   -3.4032   21.2053 O   0  0  0  0  0  0  0  0  0  0  0  0
    1.4797   -8.6258   16.2950 C   0  0  0  0  0  0  0  0  0  0  0  0
    9.2861   -1.2743   25.3585 C   0  0  0  0  0  0  0  0  0  0  0  0
    1.8892  -10.3985   17.7511 N   0  0  0  0  0  0  0  0  0  0  0  0
    9.6210   -0.6952   24.0976 C   0  0  0  0  0  0  0  0  0  0  0  0
    7.0792   -9.0217   17.1429 C   0  0  0  0  0  0  0  0  0  0  0  0
    3.1713  -10.1816   17.6634 C   0  0  0  0  0  0  0  0  0  0  0  0
    2.7878   -8.3822   16.2137 C   0  0  0  0  0  0  0  0  0  0  0  0
    9.4601   -2.6590   25.6528 C   0  0  0  0  0  0  0  0  0  0  0  0
   10.1182   -1.5672   23.1165 C   0  0  0  0  0  0  0  0  0  0  0  0
    1.0552   -9.6360   17.0650 C   0  0  0  0  0  0  0  0  0  0  0  0
    3.6519   -9.1783   16.9039 C   0  0  0  0  0  0  0  0  0  0  0  0
    7.8675   -7.0096   15.9415 C   0  0  0  0  0  0  0  0  0  0  0  0
    5.9733   -9.6553   17.3832 N   0  0  0  0  0  0  0  0  0  0  0  0
   10.2411   -2.9363   23.4301 C   0  0  0  0  0  0  0  0  0  0  0  0
   10.7288   -3.8197   19.9525 C   0  0  0  0  0  0  0  0  0  0  0  0
   10.1189   -5.0054   19.6987 C   0  0  0  0  0  0  0  0  0  0  0  0
  1  3  4  0
  1  7  4  0
  2 21  4  0
  2 27  4  0
  3  9  4  0
  3 10  4  0
  4  8  4  0
  4 18  4  0
  4 25  1  0
  5  9  4  0
  5 12  4  0
  6 13  1  0
  6 27  1  0
  7 28  4  0
  8 11  4  0
  9 29  4  0
 10 12  4  0
 11 24  1  0
 11 26  4  0
 12 25  1  0
 13 28  1  0
 14 20  4  0
 14 23  4  0
 15 17  4  0
 15 21  4  0
 16 19  4  0
 16 23  4  0
 17 22  4  0
 18 26  4  0
 19 24  4  0
 20 24  4  0
 22 27  4  0
 28 29  4  0
M  END
$$$$

 Created by Python create_sdf_string function

 29 33  0  0  0  0  0  0  0  0999 V2000
   10.7215   -3.3326   17.6437 C   0  0  0  0  0  0  0  0  0  0  0  0
    9.9489   -3.4675   24.6487 N   0  0  0  0  0  0  0  0  0  0  0  0
   10.0172   -4.4740   17.4101 C   0  0  0  0  0  0  0  0  0  0  0  0
    6.9051   -7.9575   16.4222 C   0  0  0  0  0  0  0  0  0  0  0  0
    8.9969   -6.3552   17.9668 N   0  0  0  0  0  0  0  0  0  0  0  0
   10.6702   -3.9051   22.4070 C   0  0  0  0  0  0  0  0  0  0  0  0
   11.0625   -3.0028   18.8894 C   0  0  0  0  0  0  0  0  0  0  0  0
    5.6180   -7.9194   16.1754 O   0  0  0  0  0  0  0  0  0  0  0  0
    9.7259   -5.3080   18.4485 C   0  0  0  0  0  0  0  0  0  0  0  0
    9.4578   -5.0200   16.3036 N   0  0  0  0  0  0  0  0  0  0  0  0
    5.0287   -8.9365   16.8223 C   0  0  0  0  0  0  0  0  0  0  0  0
    8.7742   -6.1498   16.6764 C   0  0  0  0  0  0  0  0  0  0  0  0
   10.9418   -3.4032   21.2053 O   0  0  0  0  0  0  0  0  0  0  0  0
    1.4797   -8.6258   16.2950 C   0  0  0  0  0  0  0  0  0  0  0  0
    9.2861   -1.2743   25.3585 C   0  0  0  0  0  0  0  0  0  0  0  0
    1.8892  -10.3985   17.7511 N   0  0  0  0  0  0  0  0  0  0  0  0
    9.6210   -0.6952   24.0976 C   0  0  0  0  0  0  0  0  0  0  0  0
    7.0792   -9.0217   17.1429 C   0  0  0  0  0  0  0  0  0  0  0  0
    3.1713  -10.1816   17.6634 C   0  0  0  0  0  0  0  0  0  0  0  0
    2.7878   -8.3822   16.2137 C   0  0  0  0  0  0  0  0  0  0  0  0
    9.4601   -2.6590   25.6528 C   0  0  0  0  0  0  0  0  0  0  0  0
   10.1182   -1.5672   23.1165 C   0  0  0  0  0  0  0  0  0  0  0  0
    1.0552   -9.6360   17.0650 C   0  0  0  0  0  0  0  0  0  0  0  0
    3.6519   -9.1783   16.9039 C   0  0  0  0  0  0  0  0  0  0  0  0
    7.8675   -7.0096   15.9415 C   0  0  0  0  0  0  0  0  0  0  0  0
    5.9733   -9.6553   17.3832 N   0  0  0  0  0  0  0  0  0  0  0  0
   10.2411   -2.9363   23.4301 C   0  0  0  0  0  0  0  0  0  0  0  0
   10.7288   -3.8197   19.9525 C   0  0  0  0  0  0  0  0  0  0  0  0
   10.1189   -5.0054   19.6987 C   0  0  0  0  0  0  0  0  0  0  0  0
  1  3  4  0
  1  7  4  0
  2 21  4  0
  2 27  4  0
  3  9  4  0
  3 10  4  0
  4  8  4  0
  4 18  4  0
  4 25  1  0
  5  9  4  0
  5 12  4  0
  6 13  1  0
  6 27  1  0
  7 28  4  0
  8 11  4  0
  9 29  4  0
 10 12  4  0
 11 24  1  0
 11 26  4  0
 12 25  1  0
 13 28  1  0
 14 20  4  0
 14 23  4  0
 15 17  4  0
 15 21  4  0
 16 19  4  0
 16 23  4  0
 17 22  4  0
 18 26  4  0
 19 24  4  0
 20 24  4  0
 22 27  4  0
 28 29  4  0
M  END
$$$$

 Created by Python create_sdf_string function

 29 33  0  0  0  0  0  0  0  0999 V2000
   10.7215   -3.3326   17.6437 C   0  0  0  0  0  0  0  0  0  0  0  0
    9.9489   -3.4675   24.6487 N   0  0  0  0  0  0  0  0  0  0  0  0
   10.0172   -4.4740   17.4101 C   0  0  0  0  0  0  0  0  0  0  0  0
    6.9051   -7.9575   16.4222 C   0  0  0  0  0  0  0  0  0  0  0  0
    8.9969   -6.3552   17.9668 N   0  0  0  0  0  0  0  0  0  0  0  0
   10.6702   -3.9051   22.4070 C   0  0  0  0  0  0  0  0  0  0  0  0
   11.0625   -3.0028   18.8894 C   0  0  0  0  0  0  0  0  0  0  0  0
    5.6180   -7.9194   16.1754 O   0  0  0  0  0  0  0  0  0  0  0  0
    9.7259   -5.3080   18.4485 C   0  0  0  0  0  0  0  0  0  0  0  0
    9.4578   -5.0200   16.3036 N   0  0  0  0  0  0  0  0  0  0  0  0
    5.0287   -8.9365   16.8223 C   0  0  0  0  0  0  0  0  0  0  0  0
    8.7742   -6.1498   16.6764 C   0  0  0  0  0  0  0  0  0  0  0  0
   10.9418   -3.4032   21.2053 O   0  0  0  0  0  0  0  0  0  0  0  0
    1.4797   -8.6258   16.2950 C   0  0  0  0  0  0  0  0  0  0  0  0
    9.2861   -1.2743   25.3585 C   0  0  0  0  0  0  0  0  0  0  0  0
    1.8892  -10.3985   17.7511 N   0  0  0  0  0  0  0  0  0  0  0  0
    9.6210   -0.6952   24.0976 C   0  0  0  0  0  0  0  0  0  0  0  0
    7.0792   -9.0217   17.1429 C   0  0  0  0  0  0  0  0  0  0  0  0
    3.1713  -10.1816   17.6634 C   0  0  0  0  0  0  0  0  0  0  0  0
    2.7878   -8.3822   16.2137 C   0  0  0  0  0  0  0  0  0  0  0  0
    9.4601   -2.6590   25.6528 C   0  0  0  0  0  0  0  0  0  0  0  0
   10.1182   -1.5672   23.1165 C   0  0  0  0  0  0  0  0  0  0  0  0
    1.0552   -9.6360   17.0650 C   0  0  0  0  0  0  0  0  0  0  0  0
    3.6519   -9.1783   16.9039 C   0  0  0  0  0  0  0  0  0  0  0  0
    7.8675   -7.0096   15.9415 C   0  0  0  0  0  0  0  0  0  0  0  0
    5.9733   -9.6553   17.3832 N   0  0  0  0  0  0  0  0  0  0  0  0
   10.2411   -2.9363   23.4301 C   0  0  0  0  0  0  0  0  0  0  0  0
   10.7288   -3.8197   19.9525 C   0  0  0  0  0  0  0  0  0  0  0  0
   10.1189   -5.0054   19.6987 C   0  0  0  0  0  0  0  0  0  0  0  0
  1  3  4  0
  1  7  4  0
  2 21  4  0
  2 27  4  0
  3  9  4  0
  3 10  4  0
  4  8  4  0
  4 18  4  0
  4 25  1  0
  5  9  4  0
  5 12  4  0
  6 13  1  0
  6 27  1  0
  7 28  4  0
  8 11  4  0
  9 29  4  0
 10 12  4  0
 11 24  1  0
 11 26  4  0
 12 25  1  0
 13 28  1  0
 14 20  4  0
 14 23  4  0
 15 17  4  0
 15 21  4  0
 16 19  4  0
 16 23  4  0
 17 22  4  0
 18 26  4  0
 19 24  4  0
 20 24  4  0
 22 27  4  0
 28 29  4  0
M  END
$$$$

 Created by Python create_sdf_string function

 29 33  0  0  0  0  0  0  0  0999 V2000
   10.7215   -3.3326   17.6437 C   0  0  0  0  0  0  0  0  0  0  0  0
    9.9489   -3.4675   24.6487 N   0  0  0  0  0  0  0  0  0  0  0  0
   10.0172   -4.4740   17.4101 C   0  0  0  0  0  0  0  0  0  0  0  0
    6.9051   -7.9575   16.4222 C   0  0  0  0  0  0  0  0  0  0  0  0
    8.9969   -6.3552   17.9668 N   0  0  0  0  0  0  0  0  0  0  0  0
   10.6702   -3.9051   22.4070 C   0  0  0  0  0  0  0  0  0  0  0  0
   11.0625   -3.0028   18.8894 C   0  0  0  0  0  0  0  0  0  0  0  0
    5.6180   -7.9194   16.1754 O   0  0  0  0  0  0  0  0  0  0  0  0
    9.7259   -5.3080   18.4485 C   0  0  0  0  0  0  0  0  0  0  0  0
    9.4578   -5.0200   16.3036 N   0  0  0  0  0  0  0  0  0  0  0  0
    5.0287   -8.9365   16.8223 C   0  0  0  0  0  0  0  0  0  0  0  0
    8.7742   -6.1498   16.6764 C   0  0  0  0  0  0  0  0  0  0  0  0
   10.9418   -3.4032   21.2053 O   0  0  0  0  0  0  0  0  0  0  0  0
    1.4797   -8.6258   16.2950 C   0  0  0  0  0  0  0  0  0  0  0  0
    9.2861   -1.2743   25.3585 C   0  0  0  0  0  0  0  0  0  0  0  0
    1.8892  -10.3985   17.7511 N   0  0  0  0  0  0  0  0  0  0  0  0
    9.6210   -0.6952   24.0976 C   0  0  0  0  0  0  0  0  0  0  0  0
    7.0792   -9.0217   17.1429 C   0  0  0  0  0  0  0  0  0  0  0  0
    3.1713  -10.1816   17.6634 C   0  0  0  0  0  0  0  0  0  0  0  0
    2.7878   -8.3822   16.2137 C   0  0  0  0  0  0  0  0  0  0  0  0
    9.4601   -2.6590   25.6528 C   0  0  0  0  0  0  0  0  0  0  0  0
   10.1182   -1.5672   23.1165 C   0  0  0  0  0  0  0  0  0  0  0  0
    1.0552   -9.6360   17.0650 C   0  0  0  0  0  0  0  0  0  0  0  0
    3.6519   -9.1783   16.9039 C   0  0  0  0  0  0  0  0  0  0  0  0
    7.8675   -7.0096   15.9415 C   0  0  0  0  0  0  0  0  0  0  0  0
    5.9733   -9.6553   17.3832 N   0  0  0  0  0  0  0  0  0  0  0  0
   10.2411   -2.9363   23.4301 C   0  0  0  0  0  0  0  0  0  0  0  0
   10.7288   -3.8197   19.9525 C   0  0  0  0  0  0  0  0  0  0  0  0
   10.1189   -5.0054   19.6987 C   0  0  0  0  0  0  0  0  0  0  0  0
  1  3  4  0
  1  7  4  0
  2 21  4  0
  2 27  4  0
  3  9  4  0
  3 10  4  0
  4  8  4  0
  4 18  4  0
  4 25  1  0
  5  9  4  0
  5 12  4  0
  6 13  1  0
  6 27  1  0
  7 28  4  0
  8 11  4  0
  9 29  4  0
 10 12  4  0
 11 24  1  0
 11 26  4  0
 12 25  1  0
 13 28  1  0
 14 20  4  0
 14 23  4  0
 15 17  4  0
 15 21  4  0
 16 19  4  0
 16 23  4  0
 17 22  4  0
 18 26  4  0
 19 24  4  0
 20 24  4  0
 22 27  4  0
 28 29  4  0
M  END
$$$$

 Created by Python create_sdf_string function

 29 33  0  0  0  0  0  0  0  0999 V2000
   10.7215   -3.3326   17.6437 C   0  0  0  0  0  0  0  0  0  0  0  0
    9.9489   -3.4675   24.6487 N   0  0  0  0  0  0  0  0  0  0  0  0
   10.0172   -4.4740   17.4101 C   0  0  0  0  0  0  0  0  0  0  0  0
    6.9051   -7.9575   16.4222 C   0  0  0  0  0  0  0  0  0  0  0  0
    8.9969   -6.3552   17.9668 N   0  0  0  0  0  0  0  0  0  0  0  0
   10.6702   -3.9051   22.4070 C   0  0  0  0  0  0  0  0  0  0  0  0
   11.0625   -3.0028   18.8894 C   0  0  0  0  0  0  0  0  0  0  0  0
    5.6180   -7.9194   16.1754 O   0  0  0  0  0  0  0  0  0  0  0  0
    9.7259   -5.3080   18.4485 C   0  0  0  0  0  0  0  0  0  0  0  0
    9.4578   -5.0200   16.3036 N   0  0  0  0  0  0  0  0  0  0  0  0
    5.0287   -8.9365   16.8223 C   0  0  0  0  0  0  0  0  0  0  0  0
    8.7742   -6.1498   16.6764 C   0  0  0  0  0  0  0  0  0  0  0  0
   10.9418   -3.4032   21.2053 O   0  0  0  0  0  0  0  0  0  0  0  0
    1.4797   -8.6258   16.2950 C   0  0  0  0  0  0  0  0  0  0  0  0
    9.2861   -1.2743   25.3585 C   0  0  0  0  0  0  0  0  0  0  0  0
    1.8892  -10.3985   17.7511 N   0  0  0  0  0  0  0  0  0  0  0  0
    9.6210   -0.6952   24.0976 C   0  0  0  0  0  0  0  0  0  0  0  0
    7.0792   -9.0217   17.1429 C   0  0  0  0  0  0  0  0  0  0  0  0
    3.1713  -10.1816   17.6634 C   0  0  0  0  0  0  0  0  0  0  0  0
    2.7878   -8.3822   16.2137 C   0  0  0  0  0  0  0  0  0  0  0  0
    9.4601   -2.6590   25.6528 C   0  0  0  0  0  0  0  0  0  0  0  0
   10.1182   -1.5672   23.1165 C   0  0  0  0  0  0  0  0  0  0  0  0
    1.0552   -9.6360   17.0650 C   0  0  0  0  0  0  0  0  0  0  0  0
    3.6519   -9.1783   16.9039 C   0  0  0  0  0  0  0  0  0  0  0  0
    7.8675   -7.0096   15.9415 C   0  0  0  0  0  0  0  0  0  0  0  0
    5.9733   -9.6553   17.3832 N   0  0  0  0  0  0  0  0  0  0  0  0
   10.2411   -2.9363   23.4301 C   0  0  0  0  0  0  0  0  0  0  0  0
   10.7288   -3.8197   19.9525 C   0  0  0  0  0  0  0  0  0  0  0  0
   10.1189   -5.0054   19.6987 C   0  0  0  0  0  0  0  0  0  0  0  0
  1  3  4  0
  1  7  4  0
  2 21  4  0
  2 27  4  0
  3  9  4  0
  3 10  4  0
  4  8  4  0
  4 18  4  0
  4 25  1  0
  5  9  4  0
  5 12  4  0
  6 13  1  0
  6 27  1  0
  7 28  4  0
  8 11  4  0
  9 29  4  0
 10 12  4  0
 11 24  1  0
 11 26  4  0
 12 25  1  0
 13 28  1  0
 14 20  4  0
 14 23  4  0
 15 17  4  0
 15 21  4  0
 16 19  4  0
 16 23  4  0
 17 22  4  0
 18 26  4  0
 19 24  4  0
 20 24  4  0
 22 27  4  0
 28 29  4  0
M  END
$$$$

 Created by Python create_sdf_string function

 29 33  0  0  0  0  0  0  0  0999 V2000
   10.7215   -3.3326   17.6437 C   0  0  0  0  0  0  0  0  0  0  0  0
    9.9489   -3.4675   24.6487 N   0  0  0  0  0  0  0  0  0  0  0  0
   10.0172   -4.4740   17.4101 C   0  0  0  0  0  0  0  0  0  0  0  0
    6.9051   -7.9575   16.4222 C   0  0  0  0  0  0  0  0  0  0  0  0
    8.9969   -6.3552   17.9668 N   0  0  0  0  0  0  0  0  0  0  0  0
   10.6702   -3.9051   22.4070 C   0  0  0  0  0  0  0  0  0  0  0  0
   11.0625   -3.0028   18.8894 C   0  0  0  0  0  0  0  0  0  0  0  0
    5.6180   -7.9194   16.1754 O   0  0  0  0  0  0  0  0  0  0  0  0
    9.7259   -5.3080   18.4485 C   0  0  0  0  0  0  0  0  0  0  0  0
    9.4578   -5.0200   16.3036 N   0  0  0  0  0  0  0  0  0  0  0  0
    5.0287   -8.9365   16.8223 C   0  0  0  0  0  0  0  0  0  0  0  0
    8.7742   -6.1498   16.6764 C   0  0  0  0  0  0  0  0  0  0  0  0
   10.9418   -3.4032   21.2053 O   0  0  0  0  0  0  0  0  0  0  0  0
    1.4797   -8.6258   16.2950 C   0  0  0  0  0  0  0  0  0  0  0  0
    9.2861   -1.2743   25.3585 C   0  0  0  0  0  0  0  0  0  0  0  0
    1.8892  -10.3985   17.7511 N   0  0  0  0  0  0  0  0  0  0  0  0
    9.6210   -0.6952   24.0976 C   0  0  0  0  0  0  0  0  0  0  0  0
    7.0792   -9.0217   17.1429 C   0  0  0  0  0  0  0  0  0  0  0  0
    3.1713  -10.1816   17.6634 C   0  0  0  0  0  0  0  0  0  0  0  0
    2.7878   -8.3822   16.2137 C   0  0  0  0  0  0  0  0  0  0  0  0
    9.4601   -2.6590   25.6528 C   0  0  0  0  0  0  0  0  0  0  0  0
   10.1182   -1.5672   23.1165 C   0  0  0  0  0  0  0  0  0  0  0  0
    1.0552   -9.6360   17.0650 C   0  0  0  0  0  0  0  0  0  0  0  0
    3.6519   -9.1783   16.9039 C   0  0  0  0  0  0  0  0  0  0  0  0
    7.8675   -7.0096   15.9415 C   0  0  0  0  0  0  0  0  0  0  0  0
    5.9733   -9.6553   17.3832 N   0  0  0  0  0  0  0  0  0  0  0  0
   10.2411   -2.9363   23.4301 C   0  0  0  0  0  0  0  0  0  0  0  0
   10.7288   -3.8197   19.9525 C   0  0  0  0  0  0  0  0  0  0  0  0
   10.1189   -5.0054   19.6987 C   0  0  0  0  0  0  0  0  0  0  0  0
  1  3  4  0
  1  7  4  0
  2 21  4  0
  2 27  4  0
  3  9  4  0
  3 10  4  0
  4  8  4  0
  4 18  4  0
  4 25  1  0
  5  9  4  0
  5 12  4  0
  6 13  1  0
  6 27  1  0
  7 28  4  0
  8 11  4  0
  9 29  4  0
 10 12  4  0
 11 24  1  0
 11 26  4  0
 12 25  1  0
 13 28  1  0
 14 20  4  0
 14 23  4  0
 15 17  4  0
 15 21  4  0
 16 19  4  0
 16 23  4  0
 17 22  4  0
 18 26  4  0
 19 24  4  0
 20 24  4  0
 22 27  4  0
 28 29  4  0
M  END
$$$$

 Created by Python create_sdf_string function

 29 33  0  0  0  0  0  0  0  0999 V2000
   10.7215   -3.3326   17.6437 C   0  0  0  0  0  0  0  0  0  0  0  0
    9.9489   -3.4675   24.6487 N   0  0  0  0  0  0  0  0  0  0  0  0
   10.0172   -4.4740   17.4101 C   0  0  0  0  0  0  0  0  0  0  0  0
    6.9051   -7.9575   16.4222 C   0  0  0  0  0  0  0  0  0  0  0  0
    8.9969   -6.3552   17.9668 N   0  0  0  0  0  0  0  0  0  0  0  0
   10.6702   -3.9051   22.4070 C   0  0  0  0  0  0  0  0  0  0  0  0
   11.0625   -3.0028   18.8894 C   0  0  0  0  0  0  0  0  0  0  0  0
    5.6180   -7.9194   16.1754 O   0  0  0  0  0  0  0  0  0  0  0  0
    9.7259   -5.3080   18.4485 C   0  0  0  0  0  0  0  0  0  0  0  0
    9.4578   -5.0200   16.3036 N   0  0  0  0  0  0  0  0  0  0  0  0
    5.0287   -8.9365   16.8223 C   0  0  0  0  0  0  0  0  0  0  0  0
    8.7742   -6.1498   16.6764 C   0  0  0  0  0  0  0  0  0  0  0  0
   10.9418   -3.4032   21.2053 O   0  0  0  0  0  0  0  0  0  0  0  0
    1.4797   -8.6258   16.2950 C   0  0  0  0  0  0  0  0  0  0  0  0
    9.2861   -1.2743   25.3585 C   0  0  0  0  0  0  0  0  0  0  0  0
    1.8892  -10.3985   17.7511 N   0  0  0  0  0  0  0  0  0  0  0  0
    9.6210   -0.6952   24.0976 C   0  0  0  0  0  0  0  0  0  0  0  0
    7.0792   -9.0217   17.1429 C   0  0  0  0  0  0  0  0  0  0  0  0
    3.1713  -10.1816   17.6634 C   0  0  0  0  0  0  0  0  0  0  0  0
    2.7878   -8.3822   16.2137 C   0  0  0  0  0  0  0  0  0  0  0  0
    9.4601   -2.6590   25.6528 C   0  0  0  0  0  0  0  0  0  0  0  0
   10.1182   -1.5672   23.1165 C   0  0  0  0  0  0  0  0  0  0  0  0
    1.0552   -9.6360   17.0650 C   0  0  0  0  0  0  0  0  0  0  0  0
    3.6519   -9.1783   16.9039 C   0  0  0  0  0  0  0  0  0  0  0  0
    7.8675   -7.0096   15.9415 C   0  0  0  0  0  0  0  0  0  0  0  0
    5.9733   -9.6553   17.3832 N   0  0  0  0  0  0  0  0  0  0  0  0
   10.2411   -2.9363   23.4301 C   0  0  0  0  0  0  0  0  0  0  0  0
   10.7288   -3.8197   19.9525 C   0  0  0  0  0  0  0  0  0  0  0  0
   10.1189   -5.0054   19.6987 C   0  0  0  0  0  0  0  0  0  0  0  0
  1  3  4  0
  1  7  4  0
  2 21  4  0
  2 27  4  0
  3  9  4  0
  3 10  4  0
  4  8  4  0
  4 18  4  0
  4 25  1  0
  5  9  4  0
  5 12  4  0
  6 13  1  0
  6 27  1  0
  7 28  4  0
  8 11  4  0
  9 29  4  0
 10 12  4  0
 11 24  1  0
 11 26  4  0
 12 25  1  0
 13 28  1  0
 14 20  4  0
 14 23  4  0
 15 17  4  0
 15 21  4  0
 16 19  4  0
 16 23  4  0
 17 22  4  0
 18 26  4  0
 19 24  4  0
 20 24  4  0
 22 27  4  0
 28 29  4  0
M  END
$$$$

 Created by Python create_sdf_string function

 29 33  0  0  0  0  0  0  0  0999 V2000
   10.7215   -3.3326   17.6437 C   0  0  0  0  0  0  0  0  0  0  0  0
    9.9489   -3.4675   24.6487 N   0  0  0  0  0  0  0  0  0  0  0  0
   10.0172   -4.4740   17.4101 C   0  0  0  0  0  0  0  0  0  0  0  0
    6.9051   -7.9575   16.4222 C   0  0  0  0  0  0  0  0  0  0  0  0
    8.9969   -6.3552   17.9668 N   0  0  0  0  0  0  0  0  0  0  0  0
   10.6702   -3.9051   22.4070 C   0  0  0  0  0  0  0  0  0  0  0  0
   11.0625   -3.0028   18.8894 C   0  0  0  0  0  0  0  0  0  0  0  0
    5.6180   -7.9194   16.1754 O   0  0  0  0  0  0  0  0  0  0  0  0
    9.7259   -5.3080   18.4485 C   0  0  0  0  0  0  0  0  0  0  0  0
    9.4578   -5.0200   16.3036 N   0  0  0  0  0  0  0  0  0  0  0  0
    5.0287   -8.9365   16.8223 C   0  0  0  0  0  0  0  0  0  0  0  0
    8.7742   -6.1498   16.6764 C   0  0  0  0  0  0  0  0  0  0  0  0
   10.9418   -3.4032   21.2053 O   0  0  0  0  0  0  0  0  0  0  0  0
    1.4797   -8.6258   16.2950 C   0  0  0  0  0  0  0  0  0  0  0  0
    9.2861   -1.2743   25.3585 C   0  0  0  0  0  0  0  0  0  0  0  0
    1.8892  -10.3985   17.7511 N   0  0  0  0  0  0  0  0  0  0  0  0
    9.6210   -0.6952   24.0976 C   0  0  0  0  0  0  0  0  0  0  0  0
    7.0792   -9.0217   17.1429 C   0  0  0  0  0  0  0  0  0  0  0  0
    3.1713  -10.1816   17.6634 C   0  0  0  0  0  0  0  0  0  0  0  0
    2.7878   -8.3822   16.2137 C   0  0  0  0  0  0  0  0  0  0  0  0
    9.4601   -2.6590   25.6528 C   0  0  0  0  0  0  0  0  0  0  0  0
   10.1182   -1.5672   23.1165 C   0  0  0  0  0  0  0  0  0  0  0  0
    1.0552   -9.6360   17.0650 C   0  0  0  0  0  0  0  0  0  0  0  0
    3.6519   -9.1783   16.9039 C   0  0  0  0  0  0  0  0  0  0  0  0
    7.8675   -7.0096   15.9415 C   0  0  0  0  0  0  0  0  0  0  0  0
    5.9733   -9.6553   17.3832 N   0  0  0  0  0  0  0  0  0  0  0  0
   10.2411   -2.9363   23.4301 C   0  0  0  0  0  0  0  0  0  0  0  0
   10.7288   -3.8197   19.9525 C   0  0  0  0  0  0  0  0  0  0  0  0
   10.1189   -5.0054   19.6987 C   0  0  0  0  0  0  0  0  0  0  0  0
  1  3  4  0
  1  7  4  0
  2 21  4  0
  2 27  4  0
  3  9  4  0
  3 10  4  0
  4  8  4  0
  4 18  4  0
  4 25  1  0
  5  9  4  0
  5 12  4  0
  6 13  1  0
  6 27  1  0
  7 28  4  0
  8 11  4  0
  9 29  4  0
 10 12  4  0
 11 24  1  0
 11 26  4  0
 12 25  1  0
 13 28  1  0
 14 20  4  0
 14 23  4  0
 15 17  4  0
 15 21  4  0
 16 19  4  0
 16 23  4  0
 17 22  4  0
 18 26  4  0
 19 24  4  0
 20 24  4  0
 22 27  4  0
 28 29  4  0
M  END
$$$$

 Created by Python create_sdf_string function

 29 33  0  0  0  0  0  0  0  0999 V2000
   10.7215   -3.3326   17.6437 C   0  0  0  0  0  0  0  0  0  0  0  0
    9.9489   -3.4675   24.6487 N   0  0  0  0  0  0  0  0  0  0  0  0
   10.0172   -4.4740   17.4101 C   0  0  0  0  0  0  0  0  0  0  0  0
    6.9051   -7.9575   16.4222 C   0  0  0  0  0  0  0  0  0  0  0  0
    8.9969   -6.3552   17.9668 N   0  0  0  0  0  0  0  0  0  0  0  0
   10.6702   -3.9051   22.4070 C   0  0  0  0  0  0  0  0  0  0  0  0
   11.0625   -3.0028   18.8894 C   0  0  0  0  0  0  0  0  0  0  0  0
    5.6180   -7.9194   16.1754 O   0  0  0  0  0  0  0  0  0  0  0  0
    9.7259   -5.3080   18.4485 C   0  0  0  0  0  0  0  0  0  0  0  0
    9.4578   -5.0200   16.3036 N   0  0  0  0  0  0  0  0  0  0  0  0
    5.0287   -8.9365   16.8223 C   0  0  0  0  0  0  0  0  0  0  0  0
    8.7742   -6.1498   16.6764 C   0  0  0  0  0  0  0  0  0  0  0  0
   10.9418   -3.4032   21.2053 O   0  0  0  0  0  0  0  0  0  0  0  0
    1.4797   -8.6258   16.2950 C   0  0  0  0  0  0  0  0  0  0  0  0
    9.2861   -1.2743   25.3585 C   0  0  0  0  0  0  0  0  0  0  0  0
    1.8892  -10.3985   17.7511 N   0  0  0  0  0  0  0  0  0  0  0  0
    9.6210   -0.6952   24.0976 C   0  0  0  0  0  0  0  0  0  0  0  0
    7.0792   -9.0217   17.1429 C   0  0  0  0  0  0  0  0  0  0  0  0
    3.1713  -10.1816   17.6634 C   0  0  0  0  0  0  0  0  0  0  0  0
    2.7878   -8.3822   16.2137 C   0  0  0  0  0  0  0  0  0  0  0  0
    9.4601   -2.6590   25.6528 C   0  0  0  0  0  0  0  0  0  0  0  0
   10.1182   -1.5672   23.1165 C   0  0  0  0  0  0  0  0  0  0  0  0
    1.0552   -9.6360   17.0650 C   0  0  0  0  0  0  0  0  0  0  0  0
    3.6519   -9.1783   16.9039 C   0  0  0  0  0  0  0  0  0  0  0  0
    7.8675   -7.0096   15.9415 C   0  0  0  0  0  0  0  0  0  0  0  0
    5.9733   -9.6553   17.3832 N   0  0  0  0  0  0  0  0  0  0  0  0
   10.2411   -2.9363   23.4301 C   0  0  0  0  0  0  0  0  0  0  0  0
   10.7288   -3.8197   19.9525 C   0  0  0  0  0  0  0  0  0  0  0  0
   10.1189   -5.0054   19.6987 C   0  0  0  0  0  0  0  0  0  0  0  0
  1  3  4  0
  1  7  4  0
  2 21  4  0
  2 27  4  0
  3  9  4  0
  3 10  4  0
  4  8  4  0
  4 18  4  0
  4 25  1  0
  5  9  4  0
  5 12  4  0
  6 13  1  0
  6 27  1  0
  7 28  4  0
  8 11  4  0
  9 29  4  0
 10 12  4  0
 11 24  1  0
 11 26  4  0
 12 25  1  0
 13 28  1  0
 14 20  4  0
 14 23  4  0
 15 17  4  0
 15 21  4  0
 16 19  4  0
 16 23  4  0
 17 22  4  0
 18 26  4  0
 19 24  4  0
 20 24  4  0
 22 27  4  0
 28 29  4  0
M  END
$$$$

 Created by Python create_sdf_string function

 29 33  0  0  0  0  0  0  0  0999 V2000
   10.7215   -3.3326   17.6437 C   0  0  0  0  0  0  0  0  0  0  0  0
    9.9489   -3.4675   24.6487 N   0  0  0  0  0  0  0  0  0  0  0  0
   10.0172   -4.4740   17.4101 C   0  0  0  0  0  0  0  0  0  0  0  0
    6.9051   -7.9575   16.4222 C   0  0  0  0  0  0  0  0  0  0  0  0
    8.9969   -6.3552   17.9668 N   0  0  0  0  0  0  0  0  0  0  0  0
   10.6702   -3.9051   22.4070 C   0  0  0  0  0  0  0  0  0  0  0  0
   11.0625   -3.0028   18.8894 C   0  0  0  0  0  0  0  0  0  0  0  0
    5.6180   -7.9194   16.1754 O   0  0  0  0  0  0  0  0  0  0  0  0
    9.7259   -5.3080   18.4485 C   0  0  0  0  0  0  0  0  0  0  0  0
    9.4578   -5.0200   16.3036 N   0  0  0  0  0  0  0  0  0  0  0  0
    5.0287   -8.9365   16.8223 C   0  0  0  0  0  0  0  0  0  0  0  0
    8.7742   -6.1498   16.6764 C   0  0  0  0  0  0  0  0  0  0  0  0
   10.9418   -3.4032   21.2053 O   0  0  0  0  0  0  0  0  0  0  0  0
    1.4797   -8.6258   16.2950 C   0  0  0  0  0  0  0  0  0  0  0  0
    9.2861   -1.2743   25.3585 C   0  0  0  0  0  0  0  0  0  0  0  0
    1.8892  -10.3985   17.7511 N   0  0  0  0  0  0  0  0  0  0  0  0
    9.6210   -0.6952   24.0976 C   0  0  0  0  0  0  0  0  0  0  0  0
    7.0792   -9.0217   17.1429 C   0  0  0  0  0  0  0  0  0  0  0  0
    3.1713  -10.1816   17.6634 C   0  0  0  0  0  0  0  0  0  0  0  0
    2.7878   -8.3822   16.2137 C   0  0  0  0  0  0  0  0  0  0  0  0
    9.4601   -2.6590   25.6528 C   0  0  0  0  0  0  0  0  0  0  0  0
   10.1182   -1.5672   23.1165 C   0  0  0  0  0  0  0  0  0  0  0  0
    1.0552   -9.6360   17.0650 C   0  0  0  0  0  0  0  0  0  0  0  0
    3.6519   -9.1783   16.9039 C   0  0  0  0  0  0  0  0  0  0  0  0
    7.8675   -7.0096   15.9415 C   0  0  0  0  0  0  0  0  0  0  0  0
    5.9733   -9.6553   17.3832 N   0  0  0  0  0  0  0  0  0  0  0  0
   10.2411   -2.9363   23.4301 C   0  0  0  0  0  0  0  0  0  0  0  0
   10.7288   -3.8197   19.9525 C   0  0  0  0  0  0  0  0  0  0  0  0
   10.1189   -5.0054   19.6987 C   0  0  0  0  0  0  0  0  0  0  0  0
  1  3  4  0
  1  7  4  0
  2 21  4  0
  2 27  4  0
  3  9  4  0
  3 10  4  0
  4  8  4  0
  4 18  4  0
  4 25  1  0
  5  9  4  0
  5 12  4  0
  6 13  1  0
  6 27  1  0
  7 28  4  0
  8 11  4  0
  9 29  4  0
 10 12  4  0
 11 24  1  0
 11 26  4  0
 12 25  1  0
 13 28  1  0
 14 20  4  0
 14 23  4  0
 15 17  4  0
 15 21  4  0
 16 19  4  0
 16 23  4  0
 17 22  4  0
 18 26  4  0
 19 24  4  0
 20 24  4  0
 22 27  4  0
 28 29  4  0
M  END
$$$$

 Created by Python create_sdf_string function

 29 33  0  0  0  0  0  0  0  0999 V2000
   10.7215   -3.3326   17.6437 C   0  0  0  0  0  0  0  0  0  0  0  0
    9.9489   -3.4675   24.6487 N   0  0  0  0  0  0  0  0  0  0  0  0
   10.0172   -4.4740   17.4101 C   0  0  0  0  0  0  0  0  0  0  0  0
    6.9051   -7.9575   16.4222 C   0  0  0  0  0  0  0  0  0  0  0  0
    8.9969   -6.3552   17.9668 N   0  0  0  0  0  0  0  0  0  0  0  0
   10.6702   -3.9051   22.4070 C   0  0  0  0  0  0  0  0  0  0  0  0
   11.0625   -3.0028   18.8894 C   0  0  0  0  0  0  0  0  0  0  0  0
    5.6180   -7.9194   16.1754 O   0  0  0  0  0  0  0  0  0  0  0  0
    9.7259   -5.3080   18.4485 C   0  0  0  0  0  0  0  0  0  0  0  0
    9.4578   -5.0200   16.3036 N   0  0  0  0  0  0  0  0  0  0  0  0
    5.0287   -8.9365   16.8223 C   0  0  0  0  0  0  0  0  0  0  0  0
    8.7742   -6.1498   16.6764 C   0  0  0  0  0  0  0  0  0  0  0  0
   10.9418   -3.4032   21.2053 O   0  0  0  0  0  0  0  0  0  0  0  0
    1.4797   -8.6258   16.2950 C   0  0  0  0  0  0  0  0  0  0  0  0
    9.2861   -1.2743   25.3585 C   0  0  0  0  0  0  0  0  0  0  0  0
    1.8892  -10.3985   17.7511 N   0  0  0  0  0  0  0  0  0  0  0  0
    9.6210   -0.6952   24.0976 C   0  0  0  0  0  0  0  0  0  0  0  0
    7.0792   -9.0217   17.1429 C   0  0  0  0  0  0  0  0  0  0  0  0
    3.1713  -10.1816   17.6634 C   0  0  0  0  0  0  0  0  0  0  0  0
    2.7878   -8.3822   16.2137 C   0  0  0  0  0  0  0  0  0  0  0  0
    9.4601   -2.6590   25.6528 C   0  0  0  0  0  0  0  0  0  0  0  0
   10.1182   -1.5672   23.1165 C   0  0  0  0  0  0  0  0  0  0  0  0
    1.0552   -9.6360   17.0650 C   0  0  0  0  0  0  0  0  0  0  0  0
    3.6519   -9.1783   16.9039 C   0  0  0  0  0  0  0  0  0  0  0  0
    7.8675   -7.0096   15.9415 C   0  0  0  0  0  0  0  0  0  0  0  0
    5.9733   -9.6553   17.3832 N   0  0  0  0  0  0  0  0  0  0  0  0
   10.2411   -2.9363   23.4301 C   0  0  0  0  0  0  0  0  0  0  0  0
   10.7288   -3.8197   19.9525 C   0  0  0  0  0  0  0  0  0  0  0  0
   10.1189   -5.0054   19.6987 C   0  0  0  0  0  0  0  0  0  0  0  0
  1  3  4  0
  1  7  4  0
  2 21  4  0
  2 27  4  0
  3  9  4  0
  3 10  4  0
  4  8  4  0
  4 18  4  0
  4 25  1  0
  5  9  4  0
  5 12  4  0
  6 13  1  0
  6 27  1  0
  7 28  4  0
  8 11  4  0
  9 29  4  0
 10 12  4  0
 11 24  1  0
 11 26  4  0
 12 25  1  0
 13 28  1  0
 14 20  4  0
 14 23  4  0
 15 17  4  0
 15 21  4  0
 16 19  4  0
 16 23  4  0
 17 22  4  0
 18 26  4  0
 19 24  4  0
 20 24  4  0
 22 27  4  0
 28 29  4  0
M  END
$$$$

 Created by Python create_sdf_string function

 29 33  0  0  0  0  0  0  0  0999 V2000
   10.7215   -3.3326   17.6437 C   0  0  0  0  0  0  0  0  0  0  0  0
    9.9489   -3.4675   24.6487 N   0  0  0  0  0  0  0  0  0  0  0  0
   10.0172   -4.4740   17.4101 C   0  0  0  0  0  0  0  0  0  0  0  0
    6.9051   -7.9575   16.4222 C   0  0  0  0  0  0  0  0  0  0  0  0
    8.9969   -6.3552   17.9668 N   0  0  0  0  0  0  0  0  0  0  0  0
   10.6702   -3.9051   22.4070 C   0  0  0  0  0  0  0  0  0  0  0  0
   11.0625   -3.0028   18.8894 C   0  0  0  0  0  0  0  0  0  0  0  0
    5.6180   -7.9194   16.1754 O   0  0  0  0  0  0  0  0  0  0  0  0
    9.7259   -5.3080   18.4485 C   0  0  0  0  0  0  0  0  0  0  0  0
    9.4578   -5.0200   16.3036 N   0  0  0  0  0  0  0  0  0  0  0  0
    5.0287   -8.9365   16.8223 C   0  0  0  0  0  0  0  0  0  0  0  0
    8.7742   -6.1498   16.6764 C   0  0  0  0  0  0  0  0  0  0  0  0
   10.9418   -3.4032   21.2053 O   0  0  0  0  0  0  0  0  0  0  0  0
    1.4797   -8.6258   16.2950 C   0  0  0  0  0  0  0  0  0  0  0  0
    9.2861   -1.2743   25.3585 C   0  0  0  0  0  0  0  0  0  0  0  0
    1.8892  -10.3985   17.7511 N   0  0  0  0  0  0  0  0  0  0  0  0
    9.6210   -0.6952   24.0976 C   0  0  0  0  0  0  0  0  0  0  0  0
    7.0792   -9.0217   17.1429 C   0  0  0  0  0  0  0  0  0  0  0  0
    3.1713  -10.1816   17.6634 C   0  0  0  0  0  0  0  0  0  0  0  0
    2.7878   -8.3822   16.2137 C   0  0  0  0  0  0  0  0  0  0  0  0
    9.4601   -2.6590   25.6528 C   0  0  0  0  0  0  0  0  0  0  0  0
   10.1182   -1.5672   23.1165 C   0  0  0  0  0  0  0  0  0  0  0  0
    1.0552   -9.6360   17.0650 C   0  0  0  0  0  0  0  0  0  0  0  0
    3.6519   -9.1783   16.9039 C   0  0  0  0  0  0  0  0  0  0  0  0
    7.8675   -7.0096   15.9415 C   0  0  0  0  0  0  0  0  0  0  0  0
    5.9733   -9.6553   17.3832 N   0  0  0  0  0  0  0  0  0  0  0  0
   10.2411   -2.9363   23.4301 C   0  0  0  0  0  0  0  0  0  0  0  0
   10.7288   -3.8197   19.9525 C   0  0  0  0  0  0  0  0  0  0  0  0
   10.1189   -5.0054   19.6987 C   0  0  0  0  0  0  0  0  0  0  0  0
  1  3  4  0
  1  7  4  0
  2 21  4  0
  2 27  4  0
  3  9  4  0
  3 10  4  0
  4  8  4  0
  4 18  4  0
  4 25  1  0
  5  9  4  0
  5 12  4  0
  6 13  1  0
  6 27  1  0
  7 28  4  0
  8 11  4  0
  9 29  4  0
 10 12  4  0
 11 24  1  0
 11 26  4  0
 12 25  1  0
 13 28  1  0
 14 20  4  0
 14 23  4  0
 15 17  4  0
 15 21  4  0
 16 19  4  0
 16 23  4  0
 17 22  4  0
 18 26  4  0
 19 24  4  0
 20 24  4  0
 22 27  4  0
 28 29  4  0
M  END
$$$$

 Created by Python create_sdf_string function

 29 33  0  0  0  0  0  0  0  0999 V2000
   10.7215   -3.3326   17.6437 C   0  0  0  0  0  0  0  0  0  0  0  0
    9.9489   -3.4675   24.6487 N   0  0  0  0  0  0  0  0  0  0  0  0
   10.0172   -4.4740   17.4101 C   0  0  0  0  0  0  0  0  0  0  0  0
    6.9051   -7.9575   16.4222 C   0  0  0  0  0  0  0  0  0  0  0  0
    8.9969   -6.3552   17.9668 N   0  0  0  0  0  0  0  0  0  0  0  0
   10.6702   -3.9051   22.4070 C   0  0  0  0  0  0  0  0  0  0  0  0
   11.0625   -3.0028   18.8894 C   0  0  0  0  0  0  0  0  0  0  0  0
    5.6180   -7.9194   16.1754 O   0  0  0  0  0  0  0  0  0  0  0  0
    9.7259   -5.3080   18.4485 C   0  0  0  0  0  0  0  0  0  0  0  0
    9.4578   -5.0200   16.3036 N   0  0  0  0  0  0  0  0  0  0  0  0
    5.0287   -8.9365   16.8223 C   0  0  0  0  0  0  0  0  0  0  0  0
    8.7742   -6.1498   16.6764 C   0  0  0  0  0  0  0  0  0  0  0  0
   10.9418   -3.4032   21.2053 O   0  0  0  0  0  0  0  0  0  0  0  0
    1.4797   -8.6258   16.2950 C   0  0  0  0  0  0  0  0  0  0  0  0
    9.2861   -1.2743   25.3585 C   0  0  0  0  0  0  0  0  0  0  0  0
    1.8892  -10.3985   17.7511 N   0  0  0  0  0  0  0  0  0  0  0  0
    9.6210   -0.6952   24.0976 C   0  0  0  0  0  0  0  0  0  0  0  0
    7.0792   -9.0217   17.1429 C   0  0  0  0  0  0  0  0  0  0  0  0
    3.1713  -10.1816   17.6634 C   0  0  0  0  0  0  0  0  0  0  0  0
    2.7878   -8.3822   16.2137 C   0  0  0  0  0  0  0  0  0  0  0  0
    9.4601   -2.6590   25.6528 C   0  0  0  0  0  0  0  0  0  0  0  0
   10.1182   -1.5672   23.1165 C   0  0  0  0  0  0  0  0  0  0  0  0
    1.0552   -9.6360   17.0650 C   0  0  0  0  0  0  0  0  0  0  0  0
    3.6519   -9.1783   16.9039 C   0  0  0  0  0  0  0  0  0  0  0  0
    7.8675   -7.0096   15.9415 C   0  0  0  0  0  0  0  0  0  0  0  0
    5.9733   -9.6553   17.3832 N   0  0  0  0  0  0  0  0  0  0  0  0
   10.2411   -2.9363   23.4301 C   0  0  0  0  0  0  0  0  0  0  0  0
   10.7288   -3.8197   19.9525 C   0  0  0  0  0  0  0  0  0  0  0  0
   10.1189   -5.0054   19.6987 C   0  0  0  0  0  0  0  0  0  0  0  0
  1  3  4  0
  1  7  4  0
  2 21  4  0
  2 27  4  0
  3  9  4  0
  3 10  4  0
  4  8  4  0
  4 18  4  0
  4 25  1  0
  5  9  4  0
  5 12  4  0
  6 13  1  0
  6 27  1  0
  7 28  4  0
  8 11  4  0
  9 29  4  0
 10 12  4  0
 11 24  1  0
 11 26  4  0
 12 25  1  0
 13 28  1  0
 14 20  4  0
 14 23  4  0
 15 17  4  0
 15 21  4  0
 16 19  4  0
 16 23  4  0
 17 22  4  0
 18 26  4  0
 19 24  4  0
 20 24  4  0
 22 27  4  0
 28 29  4  0
M  END
$$$$

 Created by Python create_sdf_string function

 29 33  0  0  0  0  0  0  0  0999 V2000
   10.7215   -3.3326   17.6437 C   0  0  0  0  0  0  0  0  0  0  0  0
    9.9489   -3.4675   24.6487 N   0  0  0  0  0  0  0  0  0  0  0  0
   10.0172   -4.4740   17.4101 C   0  0  0  0  0  0  0  0  0  0  0  0
    6.9051   -7.9575   16.4222 C   0  0  0  0  0  0  0  0  0  0  0  0
    8.9969   -6.3552   17.9668 N   0  0  0  0  0  0  0  0  0  0  0  0
   10.6702   -3.9051   22.4070 C   0  0  0  0  0  0  0  0  0  0  0  0
   11.0625   -3.0028   18.8894 C   0  0  0  0  0  0  0  0  0  0  0  0
    5.6180   -7.9194   16.1754 O   0  0  0  0  0  0  0  0  0  0  0  0
    9.7259   -5.3080   18.4485 C   0  0  0  0  0  0  0  0  0  0  0  0
    9.4578   -5.0200   16.3036 N   0  0  0  0  0  0  0  0  0  0  0  0
    5.0287   -8.9365   16.8223 C   0  0  0  0  0  0  0  0  0  0  0  0
    8.7742   -6.1498   16.6764 C   0  0  0  0  0  0  0  0  0  0  0  0
   10.9418   -3.4032   21.2053 O   0  0  0  0  0  0  0  0  0  0  0  0
    1.4797   -8.6258   16.2950 C   0  0  0  0  0  0  0  0  0  0  0  0
    9.2861   -1.2743   25.3585 C   0  0  0  0  0  0  0  0  0  0  0  0
    1.8892  -10.3985   17.7511 N   0  0  0  0  0  0  0  0  0  0  0  0
    9.6210   -0.6952   24.0976 C   0  0  0  0  0  0  0  0  0  0  0  0
    7.0792   -9.0217   17.1429 C   0  0  0  0  0  0  0  0  0  0  0  0
    3.1713  -10.1816   17.6634 C   0  0  0  0  0  0  0  0  0  0  0  0
    2.7878   -8.3822   16.2137 C   0  0  0  0  0  0  0  0  0  0  0  0
    9.4601   -2.6590   25.6528 C   0  0  0  0  0  0  0  0  0  0  0  0
   10.1182   -1.5672   23.1165 C   0  0  0  0  0  0  0  0  0  0  0  0
    1.0552   -9.6360   17.0650 C   0  0  0  0  0  0  0  0  0  0  0  0
    3.6519   -9.1783   16.9039 C   0  0  0  0  0  0  0  0  0  0  0  0
    7.8675   -7.0096   15.9415 C   0  0  0  0  0  0  0  0  0  0  0  0
    5.9733   -9.6553   17.3832 N   0  0  0  0  0  0  0  0  0  0  0  0
   10.2411   -2.9363   23.4301 C   0  0  0  0  0  0  0  0  0  0  0  0
   10.7288   -3.8197   19.9525 C   0  0  0  0  0  0  0  0  0  0  0  0
   10.1189   -5.0054   19.6987 C   0  0  0  0  0  0  0  0  0  0  0  0
  1  3  4  0
  1  7  4  0
  2 21  4  0
  2 27  4  0
  3  9  4  0
  3 10  4  0
  4  8  4  0
  4 18  4  0
  4 25  1  0
  5  9  4  0
  5 12  4  0
  6 13  1  0
  6 27  1  0
  7 28  4  0
  8 11  4  0
  9 29  4  0
 10 12  4  0
 11 24  1  0
 11 26  4  0
 12 25  1  0
 13 28  1  0
 14 20  4  0
 14 23  4  0
 15 17  4  0
 15 21  4  0
 16 19  4  0
 16 23  4  0
 17 22  4  0
 18 26  4  0
 19 24  4  0
 20 24  4  0
 22 27  4  0
 28 29  4  0
M  END
$$$$

 Created by Python create_sdf_string function

 29 33  0  0  0  0  0  0  0  0999 V2000
   10.7215   -3.3326   17.6437 C   0  0  0  0  0  0  0  0  0  0  0  0
    9.9489   -3.4675   24.6487 N   0  0  0  0  0  0  0  0  0  0  0  0
   10.0172   -4.4740   17.4101 C   0  0  0  0  0  0  0  0  0  0  0  0
    6.9051   -7.9575   16.4222 C   0  0  0  0  0  0  0  0  0  0  0  0
    8.9969   -6.3552   17.9668 N   0  0  0  0  0  0  0  0  0  0  0  0
   10.6702   -3.9051   22.4070 C   0  0  0  0  0  0  0  0  0  0  0  0
   11.0625   -3.0028   18.8894 C   0  0  0  0  0  0  0  0  0  0  0  0
    5.6180   -7.9194   16.1754 O   0  0  0  0  0  0  0  0  0  0  0  0
    9.7259   -5.3080   18.4485 C   0  0  0  0  0  0  0  0  0  0  0  0
    9.4578   -5.0200   16.3036 N   0  0  0  0  0  0  0  0  0  0  0  0
    5.0287   -8.9365   16.8223 C   0  0  0  0  0  0  0  0  0  0  0  0
    8.7742   -6.1498   16.6764 C   0  0  0  0  0  0  0  0  0  0  0  0
   10.9418   -3.4032   21.2053 O   0  0  0  0  0  0  0  0  0  0  0  0
    1.4797   -8.6258   16.2950 C   0  0  0  0  0  0  0  0  0  0  0  0
    9.2861   -1.2743   25.3585 C   0  0  0  0  0  0  0  0  0  0  0  0
    1.8892  -10.3985   17.7511 N   0  0  0  0  0  0  0  0  0  0  0  0
    9.6210   -0.6952   24.0976 C   0  0  0  0  0  0  0  0  0  0  0  0
    7.0792   -9.0217   17.1429 C   0  0  0  0  0  0  0  0  0  0  0  0
    3.1713  -10.1816   17.6634 C   0  0  0  0  0  0  0  0  0  0  0  0
    2.7878   -8.3822   16.2137 C   0  0  0  0  0  0  0  0  0  0  0  0
    9.4601   -2.6590   25.6528 C   0  0  0  0  0  0  0  0  0  0  0  0
   10.1182   -1.5672   23.1165 C   0  0  0  0  0  0  0  0  0  0  0  0
    1.0552   -9.6360   17.0650 C   0  0  0  0  0  0  0  0  0  0  0  0
    3.6519   -9.1783   16.9039 C   0  0  0  0  0  0  0  0  0  0  0  0
    7.8675   -7.0096   15.9415 C   0  0  0  0  0  0  0  0  0  0  0  0
    5.9733   -9.6553   17.3832 N   0  0  0  0  0  0  0  0  0  0  0  0
   10.2411   -2.9363   23.4301 C   0  0  0  0  0  0  0  0  0  0  0  0
   10.7288   -3.8197   19.9525 C   0  0  0  0  0  0  0  0  0  0  0  0
   10.1189   -5.0054   19.6987 C   0  0  0  0  0  0  0  0  0  0  0  0
  1  3  4  0
  1  7  4  0
  2 21  4  0
  2 27  4  0
  3  9  4  0
  3 10  4  0
  4  8  4  0
  4 18  4  0
  4 25  1  0
  5  9  4  0
  5 12  4  0
  6 13  1  0
  6 27  1  0
  7 28  4  0
  8 11  4  0
  9 29  4  0
 10 12  4  0
 11 24  1  0
 11 26  4  0
 12 25  1  0
 13 28  1  0
 14 20  4  0
 14 23  4  0
 15 17  4  0
 15 21  4  0
 16 19  4  0
 16 23  4  0
 17 22  4  0
 18 26  4  0
 19 24  4  0
 20 24  4  0
 22 27  4  0
 28 29  4  0
M  END
$$$$

 Created by Python create_sdf_string function

 29 33  0  0  0  0  0  0  0  0999 V2000
   10.7215   -3.3326   17.6437 C   0  0  0  0  0  0  0  0  0  0  0  0
    9.9489   -3.4675   24.6487 N   0  0  0  0  0  0  0  0  0  0  0  0
   10.0172   -4.4740   17.4101 C   0  0  0  0  0  0  0  0  0  0  0  0
    6.9051   -7.9575   16.4222 C   0  0  0  0  0  0  0  0  0  0  0  0
    8.9969   -6.3552   17.9668 N   0  0  0  0  0  0  0  0  0  0  0  0
   10.6702   -3.9051   22.4070 C   0  0  0  0  0  0  0  0  0  0  0  0
   11.0625   -3.0028   18.8894 C   0  0  0  0  0  0  0  0  0  0  0  0
    5.6180   -7.9194   16.1754 O   0  0  0  0  0  0  0  0  0  0  0  0
    9.7259   -5.3080   18.4485 C   0  0  0  0  0  0  0  0  0  0  0  0
    9.4578   -5.0200   16.3036 N   0  0  0  0  0  0  0  0  0  0  0  0
    5.0287   -8.9365   16.8223 C   0  0  0  0  0  0  0  0  0  0  0  0
    8.7742   -6.1498   16.6764 C   0  0  0  0  0  0  0  0  0  0  0  0
   10.9418   -3.4032   21.2053 O   0  0  0  0  0  0  0  0  0  0  0  0
    1.4797   -8.6258   16.2950 C   0  0  0  0  0  0  0  0  0  0  0  0
    9.2861   -1.2743   25.3585 C   0  0  0  0  0  0  0  0  0  0  0  0
    1.8892  -10.3985   17.7511 N   0  0  0  0  0  0  0  0  0  0  0  0
    9.6210   -0.6952   24.0976 C   0  0  0  0  0  0  0  0  0  0  0  0
    7.0792   -9.0217   17.1429 C   0  0  0  0  0  0  0  0  0  0  0  0
    3.1713  -10.1816   17.6634 C   0  0  0  0  0  0  0  0  0  0  0  0
    2.7878   -8.3822   16.2137 C   0  0  0  0  0  0  0  0  0  0  0  0
    9.4601   -2.6590   25.6528 C   0  0  0  0  0  0  0  0  0  0  0  0
   10.1182   -1.5672   23.1165 C   0  0  0  0  0  0  0  0  0  0  0  0
    1.0552   -9.6360   17.0650 C   0  0  0  0  0  0  0  0  0  0  0  0
    3.6519   -9.1783   16.9039 C   0  0  0  0  0  0  0  0  0  0  0  0
    7.8675   -7.0096   15.9415 C   0  0  0  0  0  0  0  0  0  0  0  0
    5.9733   -9.6553   17.3832 N   0  0  0  0  0  0  0  0  0  0  0  0
   10.2411   -2.9363   23.4301 C   0  0  0  0  0  0  0  0  0  0  0  0
   10.7288   -3.8197   19.9525 C   0  0  0  0  0  0  0  0  0  0  0  0
   10.1189   -5.0054   19.6987 C   0  0  0  0  0  0  0  0  0  0  0  0
  1  3  4  0
  1  7  4  0
  2 21  4  0
  2 27  4  0
  3  9  4  0
  3 10  4  0
  4  8  4  0
  4 18  4  0
  4 25  1  0
  5  9  4  0
  5 12  4  0
  6 13  1  0
  6 27  1  0
  7 28  4  0
  8 11  4  0
  9 29  4  0
 10 12  4  0
 11 24  1  0
 11 26  4  0
 12 25  1  0
 13 28  1  0
 14 20  4  0
 14 23  4  0
 15 17  4  0
 15 21  4  0
 16 19  4  0
 16 23  4  0
 17 22  4  0
 18 26  4  0
 19 24  4  0
 20 24  4  0
 22 27  4  0
 28 29  4  0
M  END
$$$$

 Created by Python create_sdf_string function

 29 33  0  0  0  0  0  0  0  0999 V2000
   10.7215   -3.3326   17.6437 C   0  0  0  0  0  0  0  0  0  0  0  0
    9.9489   -3.4675   24.6487 N   0  0  0  0  0  0  0  0  0  0  0  0
   10.0172   -4.4740   17.4101 C   0  0  0  0  0  0  0  0  0  0  0  0
    6.9051   -7.9575   16.4222 C   0  0  0  0  0  0  0  0  0  0  0  0
    8.9969   -6.3552   17.9668 N   0  0  0  0  0  0  0  0  0  0  0  0
   10.6702   -3.9051   22.4070 C   0  0  0  0  0  0  0  0  0  0  0  0
   11.0625   -3.0028   18.8894 C   0  0  0  0  0  0  0  0  0  0  0  0
    5.6180   -7.9194   16.1754 O   0  0  0  0  0  0  0  0  0  0  0  0
    9.7259   -5.3080   18.4485 C   0  0  0  0  0  0  0  0  0  0  0  0
    9.4578   -5.0200   16.3036 N   0  0  0  0  0  0  0  0  0  0  0  0
    5.0287   -8.9365   16.8223 C   0  0  0  0  0  0  0  0  0  0  0  0
    8.7742   -6.1498   16.6764 C   0  0  0  0  0  0  0  0  0  0  0  0
   10.9418   -3.4032   21.2053 O   0  0  0  0  0  0  0  0  0  0  0  0
    1.4797   -8.6258   16.2950 C   0  0  0  0  0  0  0  0  0  0  0  0
    9.2861   -1.2743   25.3585 C   0  0  0  0  0  0  0  0  0  0  0  0
    1.8892  -10.3985   17.7511 N   0  0  0  0  0  0  0  0  0  0  0  0
    9.6210   -0.6952   24.0976 C   0  0  0  0  0  0  0  0  0  0  0  0
    7.0792   -9.0217   17.1429 C   0  0  0  0  0  0  0  0  0  0  0  0
    3.1713  -10.1816   17.6634 C   0  0  0  0  0  0  0  0  0  0  0  0
    2.7878   -8.3822   16.2137 C   0  0  0  0  0  0  0  0  0  0  0  0
    9.4601   -2.6590   25.6528 C   0  0  0  0  0  0  0  0  0  0  0  0
   10.1182   -1.5672   23.1165 C   0  0  0  0  0  0  0  0  0  0  0  0
    1.0552   -9.6360   17.0650 C   0  0  0  0  0  0  0  0  0  0  0  0
    3.6519   -9.1783   16.9039 C   0  0  0  0  0  0  0  0  0  0  0  0
    7.8675   -7.0096   15.9415 C   0  0  0  0  0  0  0  0  0  0  0  0
    5.9733   -9.6553   17.3832 N   0  0  0  0  0  0  0  0  0  0  0  0
   10.2411   -2.9363   23.4301 C   0  0  0  0  0  0  0  0  0  0  0  0
   10.7288   -3.8197   19.9525 C   0  0  0  0  0  0  0  0  0  0  0  0
   10.1189   -5.0054   19.6987 C   0  0  0  0  0  0  0  0  0  0  0  0
  1  3  4  0
  1  7  4  0
  2 21  4  0
  2 27  4  0
  3  9  4  0
  3 10  4  0
  4  8  4  0
  4 18  4  0
  4 25  1  0
  5  9  4  0
  5 12  4  0
  6 13  1  0
  6 27  1  0
  7 28  4  0
  8 11  4  0
  9 29  4  0
 10 12  4  0
 11 24  1  0
 11 26  4  0
 12 25  1  0
 13 28  1  0
 14 20  4  0
 14 23  4  0
 15 17  4  0
 15 21  4  0
 16 19  4  0
 16 23  4  0
 17 22  4  0
 18 26  4  0
 19 24  4  0
 20 24  4  0
 22 27  4  0
 28 29  4  0
M  END
$$$$

 Created by Python create_sdf_string function

 29 33  0  0  0  0  0  0  0  0999 V2000
   10.7215   -3.3326   17.6437 C   0  0  0  0  0  0  0  0  0  0  0  0
    9.9489   -3.4675   24.6487 N   0  0  0  0  0  0  0  0  0  0  0  0
   10.0172   -4.4740   17.4101 C   0  0  0  0  0  0  0  0  0  0  0  0
    6.9051   -7.9575   16.4222 C   0  0  0  0  0  0  0  0  0  0  0  0
    8.9969   -6.3552   17.9668 N   0  0  0  0  0  0  0  0  0  0  0  0
   10.6702   -3.9051   22.4070 C   0  0  0  0  0  0  0  0  0  0  0  0
   11.0625   -3.0028   18.8894 C   0  0  0  0  0  0  0  0  0  0  0  0
    5.6180   -7.9194   16.1754 O   0  0  0  0  0  0  0  0  0  0  0  0
    9.7259   -5.3080   18.4485 C   0  0  0  0  0  0  0  0  0  0  0  0
    9.4578   -5.0200   16.3036 N   0  0  0  0  0  0  0  0  0  0  0  0
    5.0287   -8.9365   16.8223 C   0  0  0  0  0  0  0  0  0  0  0  0
    8.7742   -6.1498   16.6764 C   0  0  0  0  0  0  0  0  0  0  0  0
   10.9418   -3.4032   21.2053 O   0  0  0  0  0  0  0  0  0  0  0  0
    1.4797   -8.6258   16.2950 C   0  0  0  0  0  0  0  0  0  0  0  0
    9.2861   -1.2743   25.3585 C   0  0  0  0  0  0  0  0  0  0  0  0
    1.8892  -10.3985   17.7511 N   0  0  0  0  0  0  0  0  0  0  0  0
    9.6210   -0.6952   24.0976 C   0  0  0  0  0  0  0  0  0  0  0  0
    7.0792   -9.0217   17.1429 C   0  0  0  0  0  0  0  0  0  0  0  0
    3.1713  -10.1816   17.6634 C   0  0  0  0  0  0  0  0  0  0  0  0
    2.7878   -8.3822   16.2137 C   0  0  0  0  0  0  0  0  0  0  0  0
    9.4601   -2.6590   25.6528 C   0  0  0  0  0  0  0  0  0  0  0  0
   10.1182   -1.5672   23.1165 C   0  0  0  0  0  0  0  0  0  0  0  0
    1.0552   -9.6360   17.0650 C   0  0  0  0  0  0  0  0  0  0  0  0
    3.6519   -9.1783   16.9039 C   0  0  0  0  0  0  0  0  0  0  0  0
    7.8675   -7.0096   15.9415 C   0  0  0  0  0  0  0  0  0  0  0  0
    5.9733   -9.6553   17.3832 N   0  0  0  0  0  0  0  0  0  0  0  0
   10.2411   -2.9363   23.4301 C   0  0  0  0  0  0  0  0  0  0  0  0
   10.7288   -3.8197   19.9525 C   0  0  0  0  0  0  0  0  0  0  0  0
   10.1189   -5.0054   19.6987 C   0  0  0  0  0  0  0  0  0  0  0  0
  1  3  4  0
  1  7  4  0
  2 21  4  0
  2 27  4  0
  3  9  4  0
  3 10  4  0
  4  8  4  0
  4 18  4  0
  4 25  1  0
  5  9  4  0
  5 12  4  0
  6 13  1  0
  6 27  1  0
  7 28  4  0
  8 11  4  0
  9 29  4  0
 10 12  4  0
 11 24  1  0
 11 26  4  0
 12 25  1  0
 13 28  1  0
 14 20  4  0
 14 23  4  0
 15 17  4  0
 15 21  4  0
 16 19  4  0
 16 23  4  0
 17 22  4  0
 18 26  4  0
 19 24  4  0
 20 24  4  0
 22 27  4  0
 28 29  4  0
M  END
$$$$

 Created by Python create_sdf_string function

 29 33  0  0  0  0  0  0  0  0999 V2000
   10.7215   -3.3326   17.6437 C   0  0  0  0  0  0  0  0  0  0  0  0
    9.9489   -3.4675   24.6487 N   0  0  0  0  0  0  0  0  0  0  0  0
   10.0172   -4.4740   17.4101 C   0  0  0  0  0  0  0  0  0  0  0  0
    6.9051   -7.9575   16.4222 C   0  0  0  0  0  0  0  0  0  0  0  0
    8.9969   -6.3552   17.9668 N   0  0  0  0  0  0  0  0  0  0  0  0
   10.6702   -3.9051   22.4070 C   0  0  0  0  0  0  0  0  0  0  0  0
   11.0625   -3.0028   18.8894 C   0  0  0  0  0  0  0  0  0  0  0  0
    5.6180   -7.9194   16.1754 O   0  0  0  0  0  0  0  0  0  0  0  0
    9.7259   -5.3080   18.4485 C   0  0  0  0  0  0  0  0  0  0  0  0
    9.4578   -5.0200   16.3036 N   0  0  0  0  0  0  0  0  0  0  0  0
    5.0287   -8.9365   16.8223 C   0  0  0  0  0  0  0  0  0  0  0  0
    8.7742   -6.1498   16.6764 C   0  0  0  0  0  0  0  0  0  0  0  0
   10.9418   -3.4032   21.2053 O   0  0  0  0  0  0  0  0  0  0  0  0
    1.4797   -8.6258   16.2950 C   0  0  0  0  0  0  0  0  0  0  0  0
    9.2861   -1.2743   25.3585 C   0  0  0  0  0  0  0  0  0  0  0  0
    1.8892  -10.3985   17.7511 N   0  0  0  0  0  0  0  0  0  0  0  0
    9.6210   -0.6952   24.0976 C   0  0  0  0  0  0  0  0  0  0  0  0
    7.0792   -9.0217   17.1429 C   0  0  0  0  0  0  0  0  0  0  0  0
    3.1713  -10.1816   17.6634 C   0  0  0  0  0  0  0  0  0  0  0  0
    2.7878   -8.3822   16.2137 C   0  0  0  0  0  0  0  0  0  0  0  0
    9.4601   -2.6590   25.6528 C   0  0  0  0  0  0  0  0  0  0  0  0
   10.1182   -1.5672   23.1165 C   0  0  0  0  0  0  0  0  0  0  0  0
    1.0552   -9.6360   17.0650 C   0  0  0  0  0  0  0  0  0  0  0  0
    3.6519   -9.1783   16.9039 C   0  0  0  0  0  0  0  0  0  0  0  0
    7.8675   -7.0096   15.9415 C   0  0  0  0  0  0  0  0  0  0  0  0
    5.9733   -9.6553   17.3832 N   0  0  0  0  0  0  0  0  0  0  0  0
   10.2411   -2.9363   23.4301 C   0  0  0  0  0  0  0  0  0  0  0  0
   10.7288   -3.8197   19.9525 C   0  0  0  0  0  0  0  0  0  0  0  0
   10.1189   -5.0054   19.6987 C   0  0  0  0  0  0  0  0  0  0  0  0
  1  3  4  0
  1  7  4  0
  2 21  4  0
  2 27  4  0
  3  9  4  0
  3 10  4  0
  4  8  4  0
  4 18  4  0
  4 25  1  0
  5  9  4  0
  5 12  4  0
  6 13  1  0
  6 27  1  0
  7 28  4  0
  8 11  4  0
  9 29  4  0
 10 12  4  0
 11 24  1  0
 11 26  4  0
 12 25  1  0
 13 28  1  0
 14 20  4  0
 14 23  4  0
 15 17  4  0
 15 21  4  0
 16 19  4  0
 16 23  4  0
 17 22  4  0
 18 26  4  0
 19 24  4  0
 20 24  4  0
 22 27  4  0
 28 29  4  0
M  END
$$$$

 Created by Python create_sdf_string function

 29 33  0  0  0  0  0  0  0  0999 V2000
   10.7215   -3.3326   17.6437 C   0  0  0  0  0  0  0  0  0  0  0  0
    9.9489   -3.4675   24.6487 N   0  0  0  0  0  0  0  0  0  0  0  0
   10.0172   -4.4740   17.4101 C   0  0  0  0  0  0  0  0  0  0  0  0
    6.9051   -7.9575   16.4222 C   0  0  0  0  0  0  0  0  0  0  0  0
    8.9969   -6.3552   17.9668 N   0  0  0  0  0  0  0  0  0  0  0  0
   10.6702   -3.9051   22.4070 C   0  0  0  0  0  0  0  0  0  0  0  0
   11.0625   -3.0028   18.8894 C   0  0  0  0  0  0  0  0  0  0  0  0
    5.6180   -7.9194   16.1754 O   0  0  0  0  0  0  0  0  0  0  0  0
    9.7259   -5.3080   18.4485 C   0  0  0  0  0  0  0  0  0  0  0  0
    9.4578   -5.0200   16.3036 N   0  0  0  0  0  0  0  0  0  0  0  0
    5.0287   -8.9365   16.8223 C   0  0  0  0  0  0  0  0  0  0  0  0
    8.7742   -6.1498   16.6764 C   0  0  0  0  0  0  0  0  0  0  0  0
   10.9418   -3.4032   21.2053 O   0  0  0  0  0  0  0  0  0  0  0  0
    1.4797   -8.6258   16.2950 C   0  0  0  0  0  0  0  0  0  0  0  0
    9.2861   -1.2743   25.3585 C   0  0  0  0  0  0  0  0  0  0  0  0
    1.8892  -10.3985   17.7511 N   0  0  0  0  0  0  0  0  0  0  0  0
    9.6210   -0.6952   24.0976 C   0  0  0  0  0  0  0  0  0  0  0  0
    7.0792   -9.0217   17.1429 C   0  0  0  0  0  0  0  0  0  0  0  0
    3.1713  -10.1816   17.6634 C   0  0  0  0  0  0  0  0  0  0  0  0
    2.7878   -8.3822   16.2137 C   0  0  0  0  0  0  0  0  0  0  0  0
    9.4601   -2.6590   25.6528 C   0  0  0  0  0  0  0  0  0  0  0  0
   10.1182   -1.5672   23.1165 C   0  0  0  0  0  0  0  0  0  0  0  0
    1.0552   -9.6360   17.0650 C   0  0  0  0  0  0  0  0  0  0  0  0
    3.6519   -9.1783   16.9039 C   0  0  0  0  0  0  0  0  0  0  0  0
    7.8675   -7.0096   15.9415 C   0  0  0  0  0  0  0  0  0  0  0  0
    5.9733   -9.6553   17.3832 N   0  0  0  0  0  0  0  0  0  0  0  0
   10.2411   -2.9363   23.4301 C   0  0  0  0  0  0  0  0  0  0  0  0
   10.7288   -3.8197   19.9525 C   0  0  0  0  0  0  0  0  0  0  0  0
   10.1189   -5.0054   19.6987 C   0  0  0  0  0  0  0  0  0  0  0  0
  1  3  4  0
  1  7  4  0
  2 21  4  0
  2 27  4  0
  3  9  4  0
  3 10  4  0
  4  8  4  0
  4 18  4  0
  4 25  1  0
  5  9  4  0
  5 12  4  0
  6 13  1  0
  6 27  1  0
  7 28  4  0
  8 11  4  0
  9 29  4  0
 10 12  4  0
 11 24  1  0
 11 26  4  0
 12 25  1  0
 13 28  1  0
 14 20  4  0
 14 23  4  0
 15 17  4  0
 15 21  4  0
 16 19  4  0
 16 23  4  0
 17 22  4  0
 18 26  4  0
 19 24  4  0
 20 24  4  0
 22 27  4  0
 28 29  4  0
M  END
$$$$

 Created by Python create_sdf_string function

 29 33  0  0  0  0  0  0  0  0999 V2000
   10.7215   -3.3326   17.6437 C   0  0  0  0  0  0  0  0  0  0  0  0
    9.9489   -3.4675   24.6487 N   0  0  0  0  0  0  0  0  0  0  0  0
   10.0172   -4.4740   17.4101 C   0  0  0  0  0  0  0  0  0  0  0  0
    6.9051   -7.9575   16.4222 C   0  0  0  0  0  0  0  0  0  0  0  0
    8.9969   -6.3552   17.9668 N   0  0  0  0  0  0  0  0  0  0  0  0
   10.6702   -3.9051   22.4070 C   0  0  0  0  0  0  0  0  0  0  0  0
   11.0625   -3.0028   18.8894 C   0  0  0  0  0  0  0  0  0  0  0  0
    5.6180   -7.9194   16.1754 O   0  0  0  0  0  0  0  0  0  0  0  0
    9.7259   -5.3080   18.4485 C   0  0  0  0  0  0  0  0  0  0  0  0
    9.4578   -5.0200   16.3036 N   0  0  0  0  0  0  0  0  0  0  0  0
    5.0287   -8.9365   16.8223 C   0  0  0  0  0  0  0  0  0  0  0  0
    8.7742   -6.1498   16.6764 C   0  0  0  0  0  0  0  0  0  0  0  0
   10.9418   -3.4032   21.2053 O   0  0  0  0  0  0  0  0  0  0  0  0
    1.4797   -8.6258   16.2950 C   0  0  0  0  0  0  0  0  0  0  0  0
    9.2861   -1.2743   25.3585 C   0  0  0  0  0  0  0  0  0  0  0  0
    1.8892  -10.3985   17.7511 N   0  0  0  0  0  0  0  0  0  0  0  0
    9.6210   -0.6952   24.0976 C   0  0  0  0  0  0  0  0  0  0  0  0
    7.0792   -9.0217   17.1429 C   0  0  0  0  0  0  0  0  0  0  0  0
    3.1713  -10.1816   17.6634 C   0  0  0  0  0  0  0  0  0  0  0  0
    2.7878   -8.3822   16.2137 C   0  0  0  0  0  0  0  0  0  0  0  0
    9.4601   -2.6590   25.6528 C   0  0  0  0  0  0  0  0  0  0  0  0
   10.1182   -1.5672   23.1165 C   0  0  0  0  0  0  0  0  0  0  0  0
    1.0552   -9.6360   17.0650 C   0  0  0  0  0  0  0  0  0  0  0  0
    3.6519   -9.1783   16.9039 C   0  0  0  0  0  0  0  0  0  0  0  0
    7.8675   -7.0096   15.9415 C   0  0  0  0  0  0  0  0  0  0  0  0
    5.9733   -9.6553   17.3832 N   0  0  0  0  0  0  0  0  0  0  0  0
   10.2411   -2.9363   23.4301 C   0  0  0  0  0  0  0  0  0  0  0  0
   10.7288   -3.8197   19.9525 C   0  0  0  0  0  0  0  0  0  0  0  0
   10.1189   -5.0054   19.6987 C   0  0  0  0  0  0  0  0  0  0  0  0
  1  3  4  0
  1  7  4  0
  2 21  4  0
  2 27  4  0
  3  9  4  0
  3 10  4  0
  4  8  4  0
  4 18  4  0
  4 25  1  0
  5  9  4  0
  5 12  4  0
  6 13  1  0
  6 27  1  0
  7 28  4  0
  8 11  4  0
  9 29  4  0
 10 12  4  0
 11 24  1  0
 11 26  4  0
 12 25  1  0
 13 28  1  0
 14 20  4  0
 14 23  4  0
 15 17  4  0
 15 21  4  0
 16 19  4  0
 16 23  4  0
 17 22  4  0
 18 26  4  0
 19 24  4  0
 20 24  4  0
 22 27  4  0
 28 29  4  0
M  END
$$$$

 Created by Python create_sdf_string function

 29 33  0  0  0  0  0  0  0  0999 V2000
   10.7215   -3.3326   17.6437 C   0  0  0  0  0  0  0  0  0  0  0  0
    9.9489   -3.4675   24.6487 N   0  0  0  0  0  0  0  0  0  0  0  0
   10.0172   -4.4740   17.4101 C   0  0  0  0  0  0  0  0  0  0  0  0
    6.9051   -7.9575   16.4222 C   0  0  0  0  0  0  0  0  0  0  0  0
    8.9969   -6.3552   17.9668 N   0  0  0  0  0  0  0  0  0  0  0  0
   10.6702   -3.9051   22.4070 C   0  0  0  0  0  0  0  0  0  0  0  0
   11.0625   -3.0028   18.8894 C   0  0  0  0  0  0  0  0  0  0  0  0
    5.6180   -7.9194   16.1754 O   0  0  0  0  0  0  0  0  0  0  0  0
    9.7259   -5.3080   18.4485 C   0  0  0  0  0  0  0  0  0  0  0  0
    9.4578   -5.0200   16.3036 N   0  0  0  0  0  0  0  0  0  0  0  0
    5.0287   -8.9365   16.8223 C   0  0  0  0  0  0  0  0  0  0  0  0
    8.7742   -6.1498   16.6764 C   0  0  0  0  0  0  0  0  0  0  0  0
   10.9418   -3.4032   21.2053 O   0  0  0  0  0  0  0  0  0  0  0  0
    1.4797   -8.6258   16.2950 C   0  0  0  0  0  0  0  0  0  0  0  0
    9.2861   -1.2743   25.3585 C   0  0  0  0  0  0  0  0  0  0  0  0
    1.8892  -10.3985   17.7511 N   0  0  0  0  0  0  0  0  0  0  0  0
    9.6210   -0.6952   24.0976 C   0  0  0  0  0  0  0  0  0  0  0  0
    7.0792   -9.0217   17.1429 C   0  0  0  0  0  0  0  0  0  0  0  0
    3.1713  -10.1816   17.6634 C   0  0  0  0  0  0  0  0  0  0  0  0
    2.7878   -8.3822   16.2137 C   0  0  0  0  0  0  0  0  0  0  0  0
    9.4601   -2.6590   25.6528 C   0  0  0  0  0  0  0  0  0  0  0  0
   10.1182   -1.5672   23.1165 C   0  0  0  0  0  0  0  0  0  0  0  0
    1.0552   -9.6360   17.0650 C   0  0  0  0  0  0  0  0  0  0  0  0
    3.6519   -9.1783   16.9039 C   0  0  0  0  0  0  0  0  0  0  0  0
    7.8675   -7.0096   15.9415 C   0  0  0  0  0  0  0  0  0  0  0  0
    5.9733   -9.6553   17.3832 N   0  0  0  0  0  0  0  0  0  0  0  0
   10.2411   -2.9363   23.4301 C   0  0  0  0  0  0  0  0  0  0  0  0
   10.7288   -3.8197   19.9525 C   0  0  0  0  0  0  0  0  0  0  0  0
   10.1189   -5.0054   19.6987 C   0  0  0  0  0  0  0  0  0  0  0  0
  1  3  4  0
  1  7  4  0
  2 21  4  0
  2 27  4  0
  3  9  4  0
  3 10  4  0
  4  8  4  0
  4 18  4  0
  4 25  1  0
  5  9  4  0
  5 12  4  0
  6 13  1  0
  6 27  1  0
  7 28  4  0
  8 11  4  0
  9 29  4  0
 10 12  4  0
 11 24  1  0
 11 26  4  0
 12 25  1  0
 13 28  1  0
 14 20  4  0
 14 23  4  0
 15 17  4  0
 15 21  4  0
 16 19  4  0
 16 23  4  0
 17 22  4  0
 18 26  4  0
 19 24  4  0
 20 24  4  0
 22 27  4  0
 28 29  4  0
M  END
$$$$

 Created by Python create_sdf_string function

 29 33  0  0  0  0  0  0  0  0999 V2000
   10.7215   -3.3326   17.6437 C   0  0  0  0  0  0  0  0  0  0  0  0
    9.9489   -3.4675   24.6487 N   0  0  0  0  0  0  0  0  0  0  0  0
   10.0172   -4.4740   17.4101 C   0  0  0  0  0  0  0  0  0  0  0  0
    6.9051   -7.9575   16.4222 C   0  0  0  0  0  0  0  0  0  0  0  0
    8.9969   -6.3552   17.9668 N   0  0  0  0  0  0  0  0  0  0  0  0
   10.6702   -3.9051   22.4070 C   0  0  0  0  0  0  0  0  0  0  0  0
   11.0625   -3.0028   18.8894 C   0  0  0  0  0  0  0  0  0  0  0  0
    5.6180   -7.9194   16.1754 O   0  0  0  0  0  0  0  0  0  0  0  0
    9.7259   -5.3080   18.4485 C   0  0  0  0  0  0  0  0  0  0  0  0
    9.4578   -5.0200   16.3036 N   0  0  0  0  0  0  0  0  0  0  0  0
    5.0287   -8.9365   16.8223 C   0  0  0  0  0  0  0  0  0  0  0  0
    8.7742   -6.1498   16.6764 C   0  0  0  0  0  0  0  0  0  0  0  0
   10.9418   -3.4032   21.2053 O   0  0  0  0  0  0  0  0  0  0  0  0
    1.4797   -8.6258   16.2950 C   0  0  0  0  0  0  0  0  0  0  0  0
    9.2861   -1.2743   25.3585 C   0  0  0  0  0  0  0  0  0  0  0  0
    1.8892  -10.3985   17.7511 N   0  0  0  0  0  0  0  0  0  0  0  0
    9.6210   -0.6952   24.0976 C   0  0  0  0  0  0  0  0  0  0  0  0
    7.0792   -9.0217   17.1429 C   0  0  0  0  0  0  0  0  0  0  0  0
    3.1713  -10.1816   17.6634 C   0  0  0  0  0  0  0  0  0  0  0  0
    2.7878   -8.3822   16.2137 C   0  0  0  0  0  0  0  0  0  0  0  0
    9.4601   -2.6590   25.6528 C   0  0  0  0  0  0  0  0  0  0  0  0
   10.1182   -1.5672   23.1165 C   0  0  0  0  0  0  0  0  0  0  0  0
    1.0552   -9.6360   17.0650 C   0  0  0  0  0  0  0  0  0  0  0  0
    3.6519   -9.1783   16.9039 C   0  0  0  0  0  0  0  0  0  0  0  0
    7.8675   -7.0096   15.9415 C   0  0  0  0  0  0  0  0  0  0  0  0
    5.9733   -9.6553   17.3832 N   0  0  0  0  0  0  0  0  0  0  0  0
   10.2411   -2.9363   23.4301 C   0  0  0  0  0  0  0  0  0  0  0  0
   10.7288   -3.8197   19.9525 C   0  0  0  0  0  0  0  0  0  0  0  0
   10.1189   -5.0054   19.6987 C   0  0  0  0  0  0  0  0  0  0  0  0
  1  3  4  0
  1  7  4  0
  2 21  4  0
  2 27  4  0
  3  9  4  0
  3 10  4  0
  4  8  4  0
  4 18  4  0
  4 25  1  0
  5  9  4  0
  5 12  4  0
  6 13  1  0
  6 27  1  0
  7 28  4  0
  8 11  4  0
  9 29  4  0
 10 12  4  0
 11 24  1  0
 11 26  4  0
 12 25  1  0
 13 28  1  0
 14 20  4  0
 14 23  4  0
 15 17  4  0
 15 21  4  0
 16 19  4  0
 16 23  4  0
 17 22  4  0
 18 26  4  0
 19 24  4  0
 20 24  4  0
 22 27  4  0
 28 29  4  0
M  END
$$$$

 Created by Python create_sdf_string function

 29 33  0  0  0  0  0  0  0  0999 V2000
   10.7215   -3.3326   17.6437 C   0  0  0  0  0  0  0  0  0  0  0  0
    9.9489   -3.4675   24.6487 N   0  0  0  0  0  0  0  0  0  0  0  0
   10.0172   -4.4740   17.4101 C   0  0  0  0  0  0  0  0  0  0  0  0
    6.9051   -7.9575   16.4222 C   0  0  0  0  0  0  0  0  0  0  0  0
    8.9969   -6.3552   17.9668 N   0  0  0  0  0  0  0  0  0  0  0  0
   10.6702   -3.9051   22.4070 C   0  0  0  0  0  0  0  0  0  0  0  0
   11.0625   -3.0028   18.8894 C   0  0  0  0  0  0  0  0  0  0  0  0
    5.6180   -7.9194   16.1754 O   0  0  0  0  0  0  0  0  0  0  0  0
    9.7259   -5.3080   18.4485 C   0  0  0  0  0  0  0  0  0  0  0  0
    9.4578   -5.0200   16.3036 N   0  0  0  0  0  0  0  0  0  0  0  0
    5.0287   -8.9365   16.8223 C   0  0  0  0  0  0  0  0  0  0  0  0
    8.7742   -6.1498   16.6764 C   0  0  0  0  0  0  0  0  0  0  0  0
   10.9418   -3.4032   21.2053 O   0  0  0  0  0  0  0  0  0  0  0  0
    1.4797   -8.6258   16.2950 C   0  0  0  0  0  0  0  0  0  0  0  0
    9.2861   -1.2743   25.3585 C   0  0  0  0  0  0  0  0  0  0  0  0
    1.8892  -10.3985   17.7511 N   0  0  0  0  0  0  0  0  0  0  0  0
    9.6210   -0.6952   24.0976 C   0  0  0  0  0  0  0  0  0  0  0  0
    7.0792   -9.0217   17.1429 C   0  0  0  0  0  0  0  0  0  0  0  0
    3.1713  -10.1816   17.6634 C   0  0  0  0  0  0  0  0  0  0  0  0
    2.7878   -8.3822   16.2137 C   0  0  0  0  0  0  0  0  0  0  0  0
    9.4601   -2.6590   25.6528 C   0  0  0  0  0  0  0  0  0  0  0  0
   10.1182   -1.5672   23.1165 C   0  0  0  0  0  0  0  0  0  0  0  0
    1.0552   -9.6360   17.0650 C   0  0  0  0  0  0  0  0  0  0  0  0
    3.6519   -9.1783   16.9039 C   0  0  0  0  0  0  0  0  0  0  0  0
    7.8675   -7.0096   15.9415 C   0  0  0  0  0  0  0  0  0  0  0  0
    5.9733   -9.6553   17.3832 N   0  0  0  0  0  0  0  0  0  0  0  0
   10.2411   -2.9363   23.4301 C   0  0  0  0  0  0  0  0  0  0  0  0
   10.7288   -3.8197   19.9525 C   0  0  0  0  0  0  0  0  0  0  0  0
   10.1189   -5.0054   19.6987 C   0  0  0  0  0  0  0  0  0  0  0  0
  1  3  4  0
  1  7  4  0
  2 21  4  0
  2 27  4  0
  3  9  4  0
  3 10  4  0
  4  8  4  0
  4 18  4  0
  4 25  1  0
  5  9  4  0
  5 12  4  0
  6 13  1  0
  6 27  1  0
  7 28  4  0
  8 11  4  0
  9 29  4  0
 10 12  4  0
 11 24  1  0
 11 26  4  0
 12 25  1  0
 13 28  1  0
 14 20  4  0
 14 23  4  0
 15 17  4  0
 15 21  4  0
 16 19  4  0
 16 23  4  0
 17 22  4  0
 18 26  4  0
 19 24  4  0
 20 24  4  0
 22 27  4  0
 28 29  4  0
M  END
$$$$

 Created by Python create_sdf_string function

 29 33  0  0  0  0  0  0  0  0999 V2000
   10.7215   -3.3326   17.6437 C   0  0  0  0  0  0  0  0  0  0  0  0
    9.9489   -3.4675   24.6487 N   0  0  0  0  0  0  0  0  0  0  0  0
   10.0172   -4.4740   17.4101 C   0  0  0  0  0  0  0  0  0  0  0  0
    6.9051   -7.9575   16.4222 C   0  0  0  0  0  0  0  0  0  0  0  0
    8.9969   -6.3552   17.9668 N   0  0  0  0  0  0  0  0  0  0  0  0
   10.6702   -3.9051   22.4070 C   0  0  0  0  0  0  0  0  0  0  0  0
   11.0625   -3.0028   18.8894 C   0  0  0  0  0  0  0  0  0  0  0  0
    5.6180   -7.9194   16.1754 O   0  0  0  0  0  0  0  0  0  0  0  0
    9.7259   -5.3080   18.4485 C   0  0  0  0  0  0  0  0  0  0  0  0
    9.4578   -5.0200   16.3036 N   0  0  0  0  0  0  0  0  0  0  0  0
    5.0287   -8.9365   16.8223 C   0  0  0  0  0  0  0  0  0  0  0  0
    8.7742   -6.1498   16.6764 C   0  0  0  0  0  0  0  0  0  0  0  0
   10.9418   -3.4032   21.2053 O   0  0  0  0  0  0  0  0  0  0  0  0
    1.4797   -8.6258   16.2950 C   0  0  0  0  0  0  0  0  0  0  0  0
    9.2861   -1.2743   25.3585 C   0  0  0  0  0  0  0  0  0  0  0  0
    1.8892  -10.3985   17.7511 N   0  0  0  0  0  0  0  0  0  0  0  0
    9.6210   -0.6952   24.0976 C   0  0  0  0  0  0  0  0  0  0  0  0
    7.0792   -9.0217   17.1429 C   0  0  0  0  0  0  0  0  0  0  0  0
    3.1713  -10.1816   17.6634 C   0  0  0  0  0  0  0  0  0  0  0  0
    2.7878   -8.3822   16.2137 C   0  0  0  0  0  0  0  0  0  0  0  0
    9.4601   -2.6590   25.6528 C   0  0  0  0  0  0  0  0  0  0  0  0
   10.1182   -1.5672   23.1165 C   0  0  0  0  0  0  0  0  0  0  0  0
    1.0552   -9.6360   17.0650 C   0  0  0  0  0  0  0  0  0  0  0  0
    3.6519   -9.1783   16.9039 C   0  0  0  0  0  0  0  0  0  0  0  0
    7.8675   -7.0096   15.9415 C   0  0  0  0  0  0  0  0  0  0  0  0
    5.9733   -9.6553   17.3832 N   0  0  0  0  0  0  0  0  0  0  0  0
   10.2411   -2.9363   23.4301 C   0  0  0  0  0  0  0  0  0  0  0  0
   10.7288   -3.8197   19.9525 C   0  0  0  0  0  0  0  0  0  0  0  0
   10.1189   -5.0054   19.6987 C   0  0  0  0  0  0  0  0  0  0  0  0
  1  3  4  0
  1  7  4  0
  2 21  4  0
  2 27  4  0
  3  9  4  0
  3 10  4  0
  4  8  4  0
  4 18  4  0
  4 25  1  0
  5  9  4  0
  5 12  4  0
  6 13  1  0
  6 27  1  0
  7 28  4  0
  8 11  4  0
  9 29  4  0
 10 12  4  0
 11 24  1  0
 11 26  4  0
 12 25  1  0
 13 28  1  0
 14 20  4  0
 14 23  4  0
 15 17  4  0
 15 21  4  0
 16 19  4  0
 16 23  4  0
 17 22  4  0
 18 26  4  0
 19 24  4  0
 20 24  4  0
 22 27  4  0
 28 29  4  0
M  END
$$$$

 Created by Python create_sdf_string function

 29 33  0  0  0  0  0  0  0  0999 V2000
   10.7215   -3.3326   17.6437 C   0  0  0  0  0  0  0  0  0  0  0  0
    9.9489   -3.4675   24.6487 N   0  0  0  0  0  0  0  0  0  0  0  0
   10.0172   -4.4740   17.4101 C   0  0  0  0  0  0  0  0  0  0  0  0
    6.9051   -7.9575   16.4222 C   0  0  0  0  0  0  0  0  0  0  0  0
    8.9969   -6.3552   17.9668 N   0  0  0  0  0  0  0  0  0  0  0  0
   10.6702   -3.9051   22.4070 C   0  0  0  0  0  0  0  0  0  0  0  0
   11.0625   -3.0028   18.8894 C   0  0  0  0  0  0  0  0  0  0  0  0
    5.6180   -7.9194   16.1754 O   0  0  0  0  0  0  0  0  0  0  0  0
    9.7259   -5.3080   18.4485 C   0  0  0  0  0  0  0  0  0  0  0  0
    9.4578   -5.0200   16.3036 N   0  0  0  0  0  0  0  0  0  0  0  0
    5.0287   -8.9365   16.8223 C   0  0  0  0  0  0  0  0  0  0  0  0
    8.7742   -6.1498   16.6764 C   0  0  0  0  0  0  0  0  0  0  0  0
   10.9418   -3.4032   21.2053 O   0  0  0  0  0  0  0  0  0  0  0  0
    1.4797   -8.6258   16.2950 C   0  0  0  0  0  0  0  0  0  0  0  0
    9.2861   -1.2743   25.3585 C   0  0  0  0  0  0  0  0  0  0  0  0
    1.8892  -10.3985   17.7511 N   0  0  0  0  0  0  0  0  0  0  0  0
    9.6210   -0.6952   24.0976 C   0  0  0  0  0  0  0  0  0  0  0  0
    7.0792   -9.0217   17.1429 C   0  0  0  0  0  0  0  0  0  0  0  0
    3.1713  -10.1816   17.6634 C   0  0  0  0  0  0  0  0  0  0  0  0
    2.7878   -8.3822   16.2137 C   0  0  0  0  0  0  0  0  0  0  0  0
    9.4601   -2.6590   25.6528 C   0  0  0  0  0  0  0  0  0  0  0  0
   10.1182   -1.5672   23.1165 C   0  0  0  0  0  0  0  0  0  0  0  0
    1.0552   -9.6360   17.0650 C   0  0  0  0  0  0  0  0  0  0  0  0
    3.6519   -9.1783   16.9039 C   0  0  0  0  0  0  0  0  0  0  0  0
    7.8675   -7.0096   15.9415 C   0  0  0  0  0  0  0  0  0  0  0  0
    5.9733   -9.6553   17.3832 N   0  0  0  0  0  0  0  0  0  0  0  0
   10.2411   -2.9363   23.4301 C   0  0  0  0  0  0  0  0  0  0  0  0
   10.7288   -3.8197   19.9525 C   0  0  0  0  0  0  0  0  0  0  0  0
   10.1189   -5.0054   19.6987 C   0  0  0  0  0  0  0  0  0  0  0  0
  1  3  4  0
  1  7  4  0
  2 21  4  0
  2 27  4  0
  3  9  4  0
  3 10  4  0
  4  8  4  0
  4 18  4  0
  4 25  1  0
  5  9  4  0
  5 12  4  0
  6 13  1  0
  6 27  1  0
  7 28  4  0
  8 11  4  0
  9 29  4  0
 10 12  4  0
 11 24  1  0
 11 26  4  0
 12 25  1  0
 13 28  1  0
 14 20  4  0
 14 23  4  0
 15 17  4  0
 15 21  4  0
 16 19  4  0
 16 23  4  0
 17 22  4  0
 18 26  4  0
 19 24  4  0
 20 24  4  0
 22 27  4  0
 28 29  4  0
M  END
$$$$

 Created by Python create_sdf_string function

 29 33  0  0  0  0  0  0  0  0999 V2000
   10.7215   -3.3326   17.6437 C   0  0  0  0  0  0  0  0  0  0  0  0
    9.9489   -3.4675   24.6487 N   0  0  0  0  0  0  0  0  0  0  0  0
   10.0172   -4.4740   17.4101 C   0  0  0  0  0  0  0  0  0  0  0  0
    6.9051   -7.9575   16.4222 C   0  0  0  0  0  0  0  0  0  0  0  0
    8.9969   -6.3552   17.9668 N   0  0  0  0  0  0  0  0  0  0  0  0
   10.6702   -3.9051   22.4070 C   0  0  0  0  0  0  0  0  0  0  0  0
   11.0625   -3.0028   18.8894 C   0  0  0  0  0  0  0  0  0  0  0  0
    5.6180   -7.9194   16.1754 O   0  0  0  0  0  0  0  0  0  0  0  0
    9.7259   -5.3080   18.4485 C   0  0  0  0  0  0  0  0  0  0  0  0
    9.4578   -5.0200   16.3036 N   0  0  0  0  0  0  0  0  0  0  0  0
    5.0287   -8.9365   16.8223 C   0  0  0  0  0  0  0  0  0  0  0  0
    8.7742   -6.1498   16.6764 C   0  0  0  0  0  0  0  0  0  0  0  0
   10.9418   -3.4032   21.2053 O   0  0  0  0  0  0  0  0  0  0  0  0
    1.4797   -8.6258   16.2950 C   0  0  0  0  0  0  0  0  0  0  0  0
    9.2861   -1.2743   25.3585 C   0  0  0  0  0  0  0  0  0  0  0  0
    1.8892  -10.3985   17.7511 N   0  0  0  0  0  0  0  0  0  0  0  0
    9.6210   -0.6952   24.0976 C   0  0  0  0  0  0  0  0  0  0  0  0
    7.0792   -9.0217   17.1429 C   0  0  0  0  0  0  0  0  0  0  0  0
    3.1713  -10.1816   17.6634 C   0  0  0  0  0  0  0  0  0  0  0  0
    2.7878   -8.3822   16.2137 C   0  0  0  0  0  0  0  0  0  0  0  0
    9.4601   -2.6590   25.6528 C   0  0  0  0  0  0  0  0  0  0  0  0
   10.1182   -1.5672   23.1165 C   0  0  0  0  0  0  0  0  0  0  0  0
    1.0552   -9.6360   17.0650 C   0  0  0  0  0  0  0  0  0  0  0  0
    3.6519   -9.1783   16.9039 C   0  0  0  0  0  0  0  0  0  0  0  0
    7.8675   -7.0096   15.9415 C   0  0  0  0  0  0  0  0  0  0  0  0
    5.9733   -9.6553   17.3832 N   0  0  0  0  0  0  0  0  0  0  0  0
   10.2411   -2.9363   23.4301 C   0  0  0  0  0  0  0  0  0  0  0  0
   10.7288   -3.8197   19.9525 C   0  0  0  0  0  0  0  0  0  0  0  0
   10.1189   -5.0054   19.6987 C   0  0  0  0  0  0  0  0  0  0  0  0
  1  3  4  0
  1  7  4  0
  2 21  4  0
  2 27  4  0
  3  9  4  0
  3 10  4  0
  4  8  4  0
  4 18  4  0
  4 25  1  0
  5  9  4  0
  5 12  4  0
  6 13  1  0
  6 27  1  0
  7 28  4  0
  8 11  4  0
  9 29  4  0
 10 12  4  0
 11 24  1  0
 11 26  4  0
 12 25  1  0
 13 28  1  0
 14 20  4  0
 14 23  4  0
 15 17  4  0
 15 21  4  0
 16 19  4  0
 16 23  4  0
 17 22  4  0
 18 26  4  0
 19 24  4  0
 20 24  4  0
 22 27  4  0
 28 29  4  0
M  END
$$$$

 Created by Python create_sdf_string function

 29 33  0  0  0  0  0  0  0  0999 V2000
   10.7215   -3.3326   17.6437 C   0  0  0  0  0  0  0  0  0  0  0  0
    9.9489   -3.4675   24.6487 N   0  0  0  0  0  0  0  0  0  0  0  0
   10.0172   -4.4740   17.4101 C   0  0  0  0  0  0  0  0  0  0  0  0
    6.9051   -7.9575   16.4222 C   0  0  0  0  0  0  0  0  0  0  0  0
    8.9969   -6.3552   17.9668 N   0  0  0  0  0  0  0  0  0  0  0  0
   10.6702   -3.9051   22.4070 C   0  0  0  0  0  0  0  0  0  0  0  0
   11.0625   -3.0028   18.8894 C   0  0  0  0  0  0  0  0  0  0  0  0
    5.6180   -7.9194   16.1754 O   0  0  0  0  0  0  0  0  0  0  0  0
    9.7259   -5.3080   18.4485 C   0  0  0  0  0  0  0  0  0  0  0  0
    9.4578   -5.0200   16.3036 N   0  0  0  0  0  0  0  0  0  0  0  0
    5.0287   -8.9365   16.8223 C   0  0  0  0  0  0  0  0  0  0  0  0
    8.7742   -6.1498   16.6764 C   0  0  0  0  0  0  0  0  0  0  0  0
   10.9418   -3.4032   21.2053 O   0  0  0  0  0  0  0  0  0  0  0  0
    1.4797   -8.6258   16.2950 C   0  0  0  0  0  0  0  0  0  0  0  0
    9.2861   -1.2743   25.3585 C   0  0  0  0  0  0  0  0  0  0  0  0
    1.8892  -10.3985   17.7511 N   0  0  0  0  0  0  0  0  0  0  0  0
    9.6210   -0.6952   24.0976 C   0  0  0  0  0  0  0  0  0  0  0  0
    7.0792   -9.0217   17.1429 C   0  0  0  0  0  0  0  0  0  0  0  0
    3.1713  -10.1816   17.6634 C   0  0  0  0  0  0  0  0  0  0  0  0
    2.7878   -8.3822   16.2137 C   0  0  0  0  0  0  0  0  0  0  0  0
    9.4601   -2.6590   25.6528 C   0  0  0  0  0  0  0  0  0  0  0  0
   10.1182   -1.5672   23.1165 C   0  0  0  0  0  0  0  0  0  0  0  0
    1.0552   -9.6360   17.0650 C   0  0  0  0  0  0  0  0  0  0  0  0
    3.6519   -9.1783   16.9039 C   0  0  0  0  0  0  0  0  0  0  0  0
    7.8675   -7.0096   15.9415 C   0  0  0  0  0  0  0  0  0  0  0  0
    5.9733   -9.6553   17.3832 N   0  0  0  0  0  0  0  0  0  0  0  0
   10.2411   -2.9363   23.4301 C   0  0  0  0  0  0  0  0  0  0  0  0
   10.7288   -3.8197   19.9525 C   0  0  0  0  0  0  0  0  0  0  0  0
   10.1189   -5.0054   19.6987 C   0  0  0  0  0  0  0  0  0  0  0  0
  1  3  4  0
  1  7  4  0
  2 21  4  0
  2 27  4  0
  3  9  4  0
  3 10  4  0
  4  8  4  0
  4 18  4  0
  4 25  1  0
  5  9  4  0
  5 12  4  0
  6 13  1  0
  6 27  1  0
  7 28  4  0
  8 11  4  0
  9 29  4  0
 10 12  4  0
 11 24  1  0
 11 26  4  0
 12 25  1  0
 13 28  1  0
 14 20  4  0
 14 23  4  0
 15 17  4  0
 15 21  4  0
 16 19  4  0
 16 23  4  0
 17 22  4  0
 18 26  4  0
 19 24  4  0
 20 24  4  0
 22 27  4  0
 28 29  4  0
M  END
$$$$

 Created by Python create_sdf_string function

 29 33  0  0  0  0  0  0  0  0999 V2000
   10.7215   -3.3326   17.6437 C   0  0  0  0  0  0  0  0  0  0  0  0
    9.9489   -3.4675   24.6487 N   0  0  0  0  0  0  0  0  0  0  0  0
   10.0172   -4.4740   17.4101 C   0  0  0  0  0  0  0  0  0  0  0  0
    6.9051   -7.9575   16.4222 C   0  0  0  0  0  0  0  0  0  0  0  0
    8.9969   -6.3552   17.9668 N   0  0  0  0  0  0  0  0  0  0  0  0
   10.6702   -3.9051   22.4070 C   0  0  0  0  0  0  0  0  0  0  0  0
   11.0625   -3.0028   18.8894 C   0  0  0  0  0  0  0  0  0  0  0  0
    5.6180   -7.9194   16.1754 O   0  0  0  0  0  0  0  0  0  0  0  0
    9.7259   -5.3080   18.4485 C   0  0  0  0  0  0  0  0  0  0  0  0
    9.4578   -5.0200   16.3036 N   0  0  0  0  0  0  0  0  0  0  0  0
    5.0287   -8.9365   16.8223 C   0  0  0  0  0  0  0  0  0  0  0  0
    8.7742   -6.1498   16.6764 C   0  0  0  0  0  0  0  0  0  0  0  0
   10.9418   -3.4032   21.2053 O   0  0  0  0  0  0  0  0  0  0  0  0
    1.4797   -8.6258   16.2950 C   0  0  0  0  0  0  0  0  0  0  0  0
    9.2861   -1.2743   25.3585 C   0  0  0  0  0  0  0  0  0  0  0  0
    1.8892  -10.3985   17.7511 N   0  0  0  0  0  0  0  0  0  0  0  0
    9.6210   -0.6952   24.0976 C   0  0  0  0  0  0  0  0  0  0  0  0
    7.0792   -9.0217   17.1429 C   0  0  0  0  0  0  0  0  0  0  0  0
    3.1713  -10.1816   17.6634 C   0  0  0  0  0  0  0  0  0  0  0  0
    2.7878   -8.3822   16.2137 C   0  0  0  0  0  0  0  0  0  0  0  0
    9.4601   -2.6590   25.6528 C   0  0  0  0  0  0  0  0  0  0  0  0
   10.1182   -1.5672   23.1165 C   0  0  0  0  0  0  0  0  0  0  0  0
    1.0552   -9.6360   17.0650 C   0  0  0  0  0  0  0  0  0  0  0  0
    3.6519   -9.1783   16.9039 C   0  0  0  0  0  0  0  0  0  0  0  0
    7.8675   -7.0096   15.9415 C   0  0  0  0  0  0  0  0  0  0  0  0
    5.9733   -9.6553   17.3832 N   0  0  0  0  0  0  0  0  0  0  0  0
   10.2411   -2.9363   23.4301 C   0  0  0  0  0  0  0  0  0  0  0  0
   10.7288   -3.8197   19.9525 C   0  0  0  0  0  0  0  0  0  0  0  0
   10.1189   -5.0054   19.6987 C   0  0  0  0  0  0  0  0  0  0  0  0
  1  3  4  0
  1  7  4  0
  2 21  4  0
  2 27  4  0
  3  9  4  0
  3 10  4  0
  4  8  4  0
  4 18  4  0
  4 25  1  0
  5  9  4  0
  5 12  4  0
  6 13  1  0
  6 27  1  0
  7 28  4  0
  8 11  4  0
  9 29  4  0
 10 12  4  0
 11 24  1  0
 11 26  4  0
 12 25  1  0
 13 28  1  0
 14 20  4  0
 14 23  4  0
 15 17  4  0
 15 21  4  0
 16 19  4  0
 16 23  4  0
 17 22  4  0
 18 26  4  0
 19 24  4  0
 20 24  4  0
 22 27  4  0
 28 29  4  0
M  END
$$$$

 Created by Python create_sdf_string function

 29 33  0  0  0  0  0  0  0  0999 V2000
   10.7215   -3.3326   17.6437 C   0  0  0  0  0  0  0  0  0  0  0  0
    9.9489   -3.4675   24.6487 N   0  0  0  0  0  0  0  0  0  0  0  0
   10.0172   -4.4740   17.4101 C   0  0  0  0  0  0  0  0  0  0  0  0
    6.9051   -7.9575   16.4222 C   0  0  0  0  0  0  0  0  0  0  0  0
    8.9969   -6.3552   17.9668 N   0  0  0  0  0  0  0  0  0  0  0  0
   10.6702   -3.9051   22.4070 C   0  0  0  0  0  0  0  0  0  0  0  0
   11.0625   -3.0028   18.8894 C   0  0  0  0  0  0  0  0  0  0  0  0
    5.6180   -7.9194   16.1754 O   0  0  0  0  0  0  0  0  0  0  0  0
    9.7259   -5.3080   18.4485 C   0  0  0  0  0  0  0  0  0  0  0  0
    9.4578   -5.0200   16.3036 N   0  0  0  0  0  0  0  0  0  0  0  0
    5.0287   -8.9365   16.8223 C   0  0  0  0  0  0  0  0  0  0  0  0
    8.7742   -6.1498   16.6764 C   0  0  0  0  0  0  0  0  0  0  0  0
   10.9418   -3.4032   21.2053 O   0  0  0  0  0  0  0  0  0  0  0  0
    1.4797   -8.6258   16.2950 C   0  0  0  0  0  0  0  0  0  0  0  0
    9.2861   -1.2743   25.3585 C   0  0  0  0  0  0  0  0  0  0  0  0
    1.8892  -10.3985   17.7511 N   0  0  0  0  0  0  0  0  0  0  0  0
    9.6210   -0.6952   24.0976 C   0  0  0  0  0  0  0  0  0  0  0  0
    7.0792   -9.0217   17.1429 C   0  0  0  0  0  0  0  0  0  0  0  0
    3.1713  -10.1816   17.6634 C   0  0  0  0  0  0  0  0  0  0  0  0
    2.7878   -8.3822   16.2137 C   0  0  0  0  0  0  0  0  0  0  0  0
    9.4601   -2.6590   25.6528 C   0  0  0  0  0  0  0  0  0  0  0  0
   10.1182   -1.5672   23.1165 C   0  0  0  0  0  0  0  0  0  0  0  0
    1.0552   -9.6360   17.0650 C   0  0  0  0  0  0  0  0  0  0  0  0
    3.6519   -9.1783   16.9039 C   0  0  0  0  0  0  0  0  0  0  0  0
    7.8675   -7.0096   15.9415 C   0  0  0  0  0  0  0  0  0  0  0  0
    5.9733   -9.6553   17.3832 N   0  0  0  0  0  0  0  0  0  0  0  0
   10.2411   -2.9363   23.4301 C   0  0  0  0  0  0  0  0  0  0  0  0
   10.7288   -3.8197   19.9525 C   0  0  0  0  0  0  0  0  0  0  0  0
   10.1189   -5.0054   19.6987 C   0  0  0  0  0  0  0  0  0  0  0  0
  1  3  4  0
  1  7  4  0
  2 21  4  0
  2 27  4  0
  3  9  4  0
  3 10  4  0
  4  8  4  0
  4 18  4  0
  4 25  1  0
  5  9  4  0
  5 12  4  0
  6 13  1  0
  6 27  1  0
  7 28  4  0
  8 11  4  0
  9 29  4  0
 10 12  4  0
 11 24  1  0
 11 26  4  0
 12 25  1  0
 13 28  1  0
 14 20  4  0
 14 23  4  0
 15 17  4  0
 15 21  4  0
 16 19  4  0
 16 23  4  0
 17 22  4  0
 18 26  4  0
 19 24  4  0
 20 24  4  0
 22 27  4  0
 28 29  4  0
M  END
$$$$

 Created by Python create_sdf_string function

 29 33  0  0  0  0  0  0  0  0999 V2000
   10.7215   -3.3326   17.6437 C   0  0  0  0  0  0  0  0  0  0  0  0
    9.9489   -3.4675   24.6487 N   0  0  0  0  0  0  0  0  0  0  0  0
   10.0172   -4.4740   17.4101 C   0  0  0  0  0  0  0  0  0  0  0  0
    6.9051   -7.9575   16.4222 C   0  0  0  0  0  0  0  0  0  0  0  0
    8.9969   -6.3552   17.9668 N   0  0  0  0  0  0  0  0  0  0  0  0
   10.6702   -3.9051   22.4070 C   0  0  0  0  0  0  0  0  0  0  0  0
   11.0625   -3.0028   18.8894 C   0  0  0  0  0  0  0  0  0  0  0  0
    5.6180   -7.9194   16.1754 O   0  0  0  0  0  0  0  0  0  0  0  0
    9.7259   -5.3080   18.4485 C   0  0  0  0  0  0  0  0  0  0  0  0
    9.4578   -5.0200   16.3036 N   0  0  0  0  0  0  0  0  0  0  0  0
    5.0287   -8.9365   16.8223 C   0  0  0  0  0  0  0  0  0  0  0  0
    8.7742   -6.1498   16.6764 C   0  0  0  0  0  0  0  0  0  0  0  0
   10.9418   -3.4032   21.2053 O   0  0  0  0  0  0  0  0  0  0  0  0
    1.4797   -8.6258   16.2950 C   0  0  0  0  0  0  0  0  0  0  0  0
    9.2861   -1.2743   25.3585 C   0  0  0  0  0  0  0  0  0  0  0  0
    1.8892  -10.3985   17.7511 N   0  0  0  0  0  0  0  0  0  0  0  0
    9.6210   -0.6952   24.0976 C   0  0  0  0  0  0  0  0  0  0  0  0
    7.0792   -9.0217   17.1429 C   0  0  0  0  0  0  0  0  0  0  0  0
    3.1713  -10.1816   17.6634 C   0  0  0  0  0  0  0  0  0  0  0  0
    2.7878   -8.3822   16.2137 C   0  0  0  0  0  0  0  0  0  0  0  0
    9.4601   -2.6590   25.6528 C   0  0  0  0  0  0  0  0  0  0  0  0
   10.1182   -1.5672   23.1165 C   0  0  0  0  0  0  0  0  0  0  0  0
    1.0552   -9.6360   17.0650 C   0  0  0  0  0  0  0  0  0  0  0  0
    3.6519   -9.1783   16.9039 C   0  0  0  0  0  0  0  0  0  0  0  0
    7.8675   -7.0096   15.9415 C   0  0  0  0  0  0  0  0  0  0  0  0
    5.9733   -9.6553   17.3832 N   0  0  0  0  0  0  0  0  0  0  0  0
   10.2411   -2.9363   23.4301 C   0  0  0  0  0  0  0  0  0  0  0  0
   10.7288   -3.8197   19.9525 C   0  0  0  0  0  0  0  0  0  0  0  0
   10.1189   -5.0054   19.6987 C   0  0  0  0  0  0  0  0  0  0  0  0
  1  3  4  0
  1  7  4  0
  2 21  4  0
  2 27  4  0
  3  9  4  0
  3 10  4  0
  4  8  4  0
  4 18  4  0
  4 25  1  0
  5  9  4  0
  5 12  4  0
  6 13  1  0
  6 27  1  0
  7 28  4  0
  8 11  4  0
  9 29  4  0
 10 12  4  0
 11 24  1  0
 11 26  4  0
 12 25  1  0
 13 28  1  0
 14 20  4  0
 14 23  4  0
 15 17  4  0
 15 21  4  0
 16 19  4  0
 16 23  4  0
 17 22  4  0
 18 26  4  0
 19 24  4  0
 20 24  4  0
 22 27  4  0
 28 29  4  0
M  END
$$$$

 Created by Python create_sdf_string function

 29 33  0  0  0  0  0  0  0  0999 V2000
   10.7215   -3.3326   17.6437 C   0  0  0  0  0  0  0  0  0  0  0  0
    9.9489   -3.4675   24.6487 N   0  0  0  0  0  0  0  0  0  0  0  0
   10.0172   -4.4740   17.4101 C   0  0  0  0  0  0  0  0  0  0  0  0
    6.9051   -7.9575   16.4222 C   0  0  0  0  0  0  0  0  0  0  0  0
    8.9969   -6.3552   17.9668 N   0  0  0  0  0  0  0  0  0  0  0  0
   10.6702   -3.9051   22.4070 C   0  0  0  0  0  0  0  0  0  0  0  0
   11.0625   -3.0028   18.8894 C   0  0  0  0  0  0  0  0  0  0  0  0
    5.6180   -7.9194   16.1754 O   0  0  0  0  0  0  0  0  0  0  0  0
    9.7259   -5.3080   18.4485 C   0  0  0  0  0  0  0  0  0  0  0  0
    9.4578   -5.0200   16.3036 N   0  0  0  0  0  0  0  0  0  0  0  0
    5.0287   -8.9365   16.8223 C   0  0  0  0  0  0  0  0  0  0  0  0
    8.7742   -6.1498   16.6764 C   0  0  0  0  0  0  0  0  0  0  0  0
   10.9418   -3.4032   21.2053 O   0  0  0  0  0  0  0  0  0  0  0  0
    1.4797   -8.6258   16.2950 C   0  0  0  0  0  0  0  0  0  0  0  0
    9.2861   -1.2743   25.3585 C   0  0  0  0  0  0  0  0  0  0  0  0
    1.8892  -10.3985   17.7511 N   0  0  0  0  0  0  0  0  0  0  0  0
    9.6210   -0.6952   24.0976 C   0  0  0  0  0  0  0  0  0  0  0  0
    7.0792   -9.0217   17.1429 C   0  0  0  0  0  0  0  0  0  0  0  0
    3.1713  -10.1816   17.6634 C   0  0  0  0  0  0  0  0  0  0  0  0
    2.7878   -8.3822   16.2137 C   0  0  0  0  0  0  0  0  0  0  0  0
    9.4601   -2.6590   25.6528 C   0  0  0  0  0  0  0  0  0  0  0  0
   10.1182   -1.5672   23.1165 C   0  0  0  0  0  0  0  0  0  0  0  0
    1.0552   -9.6360   17.0650 C   0  0  0  0  0  0  0  0  0  0  0  0
    3.6519   -9.1783   16.9039 C   0  0  0  0  0  0  0  0  0  0  0  0
    7.8675   -7.0096   15.9415 C   0  0  0  0  0  0  0  0  0  0  0  0
    5.9733   -9.6553   17.3832 N   0  0  0  0  0  0  0  0  0  0  0  0
   10.2411   -2.9363   23.4301 C   0  0  0  0  0  0  0  0  0  0  0  0
   10.7288   -3.8197   19.9525 C   0  0  0  0  0  0  0  0  0  0  0  0
   10.1189   -5.0054   19.6987 C   0  0  0  0  0  0  0  0  0  0  0  0
  1  3  4  0
  1  7  4  0
  2 21  4  0
  2 27  4  0
  3  9  4  0
  3 10  4  0
  4  8  4  0
  4 18  4  0
  4 25  1  0
  5  9  4  0
  5 12  4  0
  6 13  1  0
  6 27  1  0
  7 28  4  0
  8 11  4  0
  9 29  4  0
 10 12  4  0
 11 24  1  0
 11 26  4  0
 12 25  1  0
 13 28  1  0
 14 20  4  0
 14 23  4  0
 15 17  4  0
 15 21  4  0
 16 19  4  0
 16 23  4  0
 17 22  4  0
 18 26  4  0
 19 24  4  0
 20 24  4  0
 22 27  4  0
 28 29  4  0
M  END
$$$$

 Created by Python create_sdf_string function

 29 33  0  0  0  0  0  0  0  0999 V2000
   10.7215   -3.3326   17.6437 C   0  0  0  0  0  0  0  0  0  0  0  0
    9.9489   -3.4675   24.6487 N   0  0  0  0  0  0  0  0  0  0  0  0
   10.0172   -4.4740   17.4101 C   0  0  0  0  0  0  0  0  0  0  0  0
    6.9051   -7.9575   16.4222 C   0  0  0  0  0  0  0  0  0  0  0  0
    8.9969   -6.3552   17.9668 N   0  0  0  0  0  0  0  0  0  0  0  0
   10.6702   -3.9051   22.4070 C   0  0  0  0  0  0  0  0  0  0  0  0
   11.0625   -3.0028   18.8894 C   0  0  0  0  0  0  0  0  0  0  0  0
    5.6180   -7.9194   16.1754 O   0  0  0  0  0  0  0  0  0  0  0  0
    9.7259   -5.3080   18.4485 C   0  0  0  0  0  0  0  0  0  0  0  0
    9.4578   -5.0200   16.3036 N   0  0  0  0  0  0  0  0  0  0  0  0
    5.0287   -8.9365   16.8223 C   0  0  0  0  0  0  0  0  0  0  0  0
    8.7742   -6.1498   16.6764 C   0  0  0  0  0  0  0  0  0  0  0  0
   10.9418   -3.4032   21.2053 O   0  0  0  0  0  0  0  0  0  0  0  0
    1.4797   -8.6258   16.2950 C   0  0  0  0  0  0  0  0  0  0  0  0
    9.2861   -1.2743   25.3585 C   0  0  0  0  0  0  0  0  0  0  0  0
    1.8892  -10.3985   17.7511 N   0  0  0  0  0  0  0  0  0  0  0  0
    9.6210   -0.6952   24.0976 C   0  0  0  0  0  0  0  0  0  0  0  0
    7.0792   -9.0217   17.1429 C   0  0  0  0  0  0  0  0  0  0  0  0
    3.1713  -10.1816   17.6634 C   0  0  0  0  0  0  0  0  0  0  0  0
    2.7878   -8.3822   16.2137 C   0  0  0  0  0  0  0  0  0  0  0  0
    9.4601   -2.6590   25.6528 C   0  0  0  0  0  0  0  0  0  0  0  0
   10.1182   -1.5672   23.1165 C   0  0  0  0  0  0  0  0  0  0  0  0
    1.0552   -9.6360   17.0650 C   0  0  0  0  0  0  0  0  0  0  0  0
    3.6519   -9.1783   16.9039 C   0  0  0  0  0  0  0  0  0  0  0  0
    7.8675   -7.0096   15.9415 C   0  0  0  0  0  0  0  0  0  0  0  0
    5.9733   -9.6553   17.3832 N   0  0  0  0  0  0  0  0  0  0  0  0
   10.2411   -2.9363   23.4301 C   0  0  0  0  0  0  0  0  0  0  0  0
   10.7288   -3.8197   19.9525 C   0  0  0  0  0  0  0  0  0  0  0  0
   10.1189   -5.0054   19.6987 C   0  0  0  0  0  0  0  0  0  0  0  0
  1  3  4  0
  1  7  4  0
  2 21  4  0
  2 27  4  0
  3  9  4  0
  3 10  4  0
  4  8  4  0
  4 18  4  0
  4 25  1  0
  5  9  4  0
  5 12  4  0
  6 13  1  0
  6 27  1  0
  7 28  4  0
  8 11  4  0
  9 29  4  0
 10 12  4  0
 11 24  1  0
 11 26  4  0
 12 25  1  0
 13 28  1  0
 14 20  4  0
 14 23  4  0
 15 17  4  0
 15 21  4  0
 16 19  4  0
 16 23  4  0
 17 22  4  0
 18 26  4  0
 19 24  4  0
 20 24  4  0
 22 27  4  0
 28 29  4  0
M  END
$$$$

 Created by Python create_sdf_string function

 29 33  0  0  0  0  0  0  0  0999 V2000
   10.7215   -3.3326   17.6437 C   0  0  0  0  0  0  0  0  0  0  0  0
    9.9489   -3.4675   24.6487 N   0  0  0  0  0  0  0  0  0  0  0  0
   10.0172   -4.4740   17.4101 C   0  0  0  0  0  0  0  0  0  0  0  0
    6.9051   -7.9575   16.4222 C   0  0  0  0  0  0  0  0  0  0  0  0
    8.9969   -6.3552   17.9668 N   0  0  0  0  0  0  0  0  0  0  0  0
   10.6702   -3.9051   22.4070 C   0  0  0  0  0  0  0  0  0  0  0  0
   11.0625   -3.0028   18.8894 C   0  0  0  0  0  0  0  0  0  0  0  0
    5.6180   -7.9194   16.1754 O   0  0  0  0  0  0  0  0  0  0  0  0
    9.7259   -5.3080   18.4485 C   0  0  0  0  0  0  0  0  0  0  0  0
    9.4578   -5.0200   16.3036 N   0  0  0  0  0  0  0  0  0  0  0  0
    5.0287   -8.9365   16.8223 C   0  0  0  0  0  0  0  0  0  0  0  0
    8.7742   -6.1498   16.6764 C   0  0  0  0  0  0  0  0  0  0  0  0
   10.9418   -3.4032   21.2053 O   0  0  0  0  0  0  0  0  0  0  0  0
    1.4797   -8.6258   16.2950 C   0  0  0  0  0  0  0  0  0  0  0  0
    9.2861   -1.2743   25.3585 C   0  0  0  0  0  0  0  0  0  0  0  0
    1.8892  -10.3985   17.7511 N   0  0  0  0  0  0  0  0  0  0  0  0
    9.6210   -0.6952   24.0976 C   0  0  0  0  0  0  0  0  0  0  0  0
    7.0792   -9.0217   17.1429 C   0  0  0  0  0  0  0  0  0  0  0  0
    3.1713  -10.1816   17.6634 C   0  0  0  0  0  0  0  0  0  0  0  0
    2.7878   -8.3822   16.2137 C   0  0  0  0  0  0  0  0  0  0  0  0
    9.4601   -2.6590   25.6528 C   0  0  0  0  0  0  0  0  0  0  0  0
   10.1182   -1.5672   23.1165 C   0  0  0  0  0  0  0  0  0  0  0  0
    1.0552   -9.6360   17.0650 C   0  0  0  0  0  0  0  0  0  0  0  0
    3.6519   -9.1783   16.9039 C   0  0  0  0  0  0  0  0  0  0  0  0
    7.8675   -7.0096   15.9415 C   0  0  0  0  0  0  0  0  0  0  0  0
    5.9733   -9.6553   17.3832 N   0  0  0  0  0  0  0  0  0  0  0  0
   10.2411   -2.9363   23.4301 C   0  0  0  0  0  0  0  0  0  0  0  0
   10.7288   -3.8197   19.9525 C   0  0  0  0  0  0  0  0  0  0  0  0
   10.1189   -5.0054   19.6987 C   0  0  0  0  0  0  0  0  0  0  0  0
  1  3  4  0
  1  7  4  0
  2 21  4  0
  2 27  4  0
  3  9  4  0
  3 10  4  0
  4  8  4  0
  4 18  4  0
  4 25  1  0
  5  9  4  0
  5 12  4  0
  6 13  1  0
  6 27  1  0
  7 28  4  0
  8 11  4  0
  9 29  4  0
 10 12  4  0
 11 24  1  0
 11 26  4  0
 12 25  1  0
 13 28  1  0
 14 20  4  0
 14 23  4  0
 15 17  4  0
 15 21  4  0
 16 19  4  0
 16 23  4  0
 17 22  4  0
 18 26  4  0
 19 24  4  0
 20 24  4  0
 22 27  4  0
 28 29  4  0
M  END
$$$$

 Created by Python create_sdf_string function

 29 33  0  0  0  0  0  0  0  0999 V2000
   10.7215   -3.3326   17.6437 C   0  0  0  0  0  0  0  0  0  0  0  0
    9.9489   -3.4675   24.6487 N   0  0  0  0  0  0  0  0  0  0  0  0
   10.0172   -4.4740   17.4101 C   0  0  0  0  0  0  0  0  0  0  0  0
    6.9051   -7.9575   16.4222 C   0  0  0  0  0  0  0  0  0  0  0  0
    8.9969   -6.3552   17.9668 N   0  0  0  0  0  0  0  0  0  0  0  0
   10.6702   -3.9051   22.4070 C   0  0  0  0  0  0  0  0  0  0  0  0
   11.0625   -3.0028   18.8894 C   0  0  0  0  0  0  0  0  0  0  0  0
    5.6180   -7.9194   16.1754 O   0  0  0  0  0  0  0  0  0  0  0  0
    9.7259   -5.3080   18.4485 C   0  0  0  0  0  0  0  0  0  0  0  0
    9.4578   -5.0200   16.3036 N   0  0  0  0  0  0  0  0  0  0  0  0
    5.0287   -8.9365   16.8223 C   0  0  0  0  0  0  0  0  0  0  0  0
    8.7742   -6.1498   16.6764 C   0  0  0  0  0  0  0  0  0  0  0  0
   10.9418   -3.4032   21.2053 O   0  0  0  0  0  0  0  0  0  0  0  0
    1.4797   -8.6258   16.2950 C   0  0  0  0  0  0  0  0  0  0  0  0
    9.2861   -1.2743   25.3585 C   0  0  0  0  0  0  0  0  0  0  0  0
    1.8892  -10.3985   17.7511 N   0  0  0  0  0  0  0  0  0  0  0  0
    9.6210   -0.6952   24.0976 C   0  0  0  0  0  0  0  0  0  0  0  0
    7.0792   -9.0217   17.1429 C   0  0  0  0  0  0  0  0  0  0  0  0
    3.1713  -10.1816   17.6634 C   0  0  0  0  0  0  0  0  0  0  0  0
    2.7878   -8.3822   16.2137 C   0  0  0  0  0  0  0  0  0  0  0  0
    9.4601   -2.6590   25.6528 C   0  0  0  0  0  0  0  0  0  0  0  0
   10.1182   -1.5672   23.1165 C   0  0  0  0  0  0  0  0  0  0  0  0
    1.0552   -9.6360   17.0650 C   0  0  0  0  0  0  0  0  0  0  0  0
    3.6519   -9.1783   16.9039 C   0  0  0  0  0  0  0  0  0  0  0  0
    7.8675   -7.0096   15.9415 C   0  0  0  0  0  0  0  0  0  0  0  0
    5.9733   -9.6553   17.3832 N   0  0  0  0  0  0  0  0  0  0  0  0
   10.2411   -2.9363   23.4301 C   0  0  0  0  0  0  0  0  0  0  0  0
   10.7288   -3.8197   19.9525 C   0  0  0  0  0  0  0  0  0  0  0  0
   10.1189   -5.0054   19.6987 C   0  0  0  0  0  0  0  0  0  0  0  0
  1  3  4  0
  1  7  4  0
  2 21  4  0
  2 27  4  0
  3  9  4  0
  3 10  4  0
  4  8  4  0
  4 18  4  0
  4 25  1  0
  5  9  4  0
  5 12  4  0
  6 13  1  0
  6 27  1  0
  7 28  4  0
  8 11  4  0
  9 29  4  0
 10 12  4  0
 11 24  1  0
 11 26  4  0
 12 25  1  0
 13 28  1  0
 14 20  4  0
 14 23  4  0
 15 17  4  0
 15 21  4  0
 16 19  4  0
 16 23  4  0
 17 22  4  0
 18 26  4  0
 19 24  4  0
 20 24  4  0
 22 27  4  0
 28 29  4  0
M  END
$$$$

 Created by Python create_sdf_string function

 29 33  0  0  0  0  0  0  0  0999 V2000
   10.7215   -3.3326   17.6437 C   0  0  0  0  0  0  0  0  0  0  0  0
    9.9489   -3.4675   24.6487 N   0  0  0  0  0  0  0  0  0  0  0  0
   10.0172   -4.4740   17.4101 C   0  0  0  0  0  0  0  0  0  0  0  0
    6.9051   -7.9575   16.4222 C   0  0  0  0  0  0  0  0  0  0  0  0
    8.9969   -6.3552   17.9668 N   0  0  0  0  0  0  0  0  0  0  0  0
   10.6702   -3.9051   22.4070 C   0  0  0  0  0  0  0  0  0  0  0  0
   11.0625   -3.0028   18.8894 C   0  0  0  0  0  0  0  0  0  0  0  0
    5.6180   -7.9194   16.1754 O   0  0  0  0  0  0  0  0  0  0  0  0
    9.7259   -5.3080   18.4485 C   0  0  0  0  0  0  0  0  0  0  0  0
    9.4578   -5.0200   16.3036 N   0  0  0  0  0  0  0  0  0  0  0  0
    5.0287   -8.9365   16.8223 C   0  0  0  0  0  0  0  0  0  0  0  0
    8.7742   -6.1498   16.6764 C   0  0  0  0  0  0  0  0  0  0  0  0
   10.9418   -3.4032   21.2053 O   0  0  0  0  0  0  0  0  0  0  0  0
    1.4797   -8.6258   16.2950 C   0  0  0  0  0  0  0  0  0  0  0  0
    9.2861   -1.2743   25.3585 C   0  0  0  0  0  0  0  0  0  0  0  0
    1.8892  -10.3985   17.7511 N   0  0  0  0  0  0  0  0  0  0  0  0
    9.6210   -0.6952   24.0976 C   0  0  0  0  0  0  0  0  0  0  0  0
    7.0792   -9.0217   17.1429 C   0  0  0  0  0  0  0  0  0  0  0  0
    3.1713  -10.1816   17.6634 C   0  0  0  0  0  0  0  0  0  0  0  0
    2.7878   -8.3822   16.2137 C   0  0  0  0  0  0  0  0  0  0  0  0
    9.4601   -2.6590   25.6528 C   0  0  0  0  0  0  0  0  0  0  0  0
   10.1182   -1.5672   23.1165 C   0  0  0  0  0  0  0  0  0  0  0  0
    1.0552   -9.6360   17.0650 C   0  0  0  0  0  0  0  0  0  0  0  0
    3.6519   -9.1783   16.9039 C   0  0  0  0  0  0  0  0  0  0  0  0
    7.8675   -7.0096   15.9415 C   0  0  0  0  0  0  0  0  0  0  0  0
    5.9733   -9.6553   17.3832 N   0  0  0  0  0  0  0  0  0  0  0  0
   10.2411   -2.9363   23.4301 C   0  0  0  0  0  0  0  0  0  0  0  0
   10.7288   -3.8197   19.9525 C   0  0  0  0  0  0  0  0  0  0  0  0
   10.1189   -5.0054   19.6987 C   0  0  0  0  0  0  0  0  0  0  0  0
  1  3  4  0
  1  7  4  0
  2 21  4  0
  2 27  4  0
  3  9  4  0
  3 10  4  0
  4  8  4  0
  4 18  4  0
  4 25  1  0
  5  9  4  0
  5 12  4  0
  6 13  1  0
  6 27  1  0
  7 28  4  0
  8 11  4  0
  9 29  4  0
 10 12  4  0
 11 24  1  0
 11 26  4  0
 12 25  1  0
 13 28  1  0
 14 20  4  0
 14 23  4  0
 15 17  4  0
 15 21  4  0
 16 19  4  0
 16 23  4  0
 17 22  4  0
 18 26  4  0
 19 24  4  0
 20 24  4  0
 22 27  4  0
 28 29  4  0
M  END
$$$$

 Created by Python create_sdf_string function

 29 33  0  0  0  0  0  0  0  0999 V2000
   10.7215   -3.3326   17.6437 C   0  0  0  0  0  0  0  0  0  0  0  0
    9.9489   -3.4675   24.6487 N   0  0  0  0  0  0  0  0  0  0  0  0
   10.0172   -4.4740   17.4101 C   0  0  0  0  0  0  0  0  0  0  0  0
    6.9051   -7.9575   16.4222 C   0  0  0  0  0  0  0  0  0  0  0  0
    8.9969   -6.3552   17.9668 N   0  0  0  0  0  0  0  0  0  0  0  0
   10.6702   -3.9051   22.4070 C   0  0  0  0  0  0  0  0  0  0  0  0
   11.0625   -3.0028   18.8894 C   0  0  0  0  0  0  0  0  0  0  0  0
    5.6180   -7.9194   16.1754 O   0  0  0  0  0  0  0  0  0  0  0  0
    9.7259   -5.3080   18.4485 C   0  0  0  0  0  0  0  0  0  0  0  0
    9.4578   -5.0200   16.3036 N   0  0  0  0  0  0  0  0  0  0  0  0
    5.0287   -8.9365   16.8223 C   0  0  0  0  0  0  0  0  0  0  0  0
    8.7742   -6.1498   16.6764 C   0  0  0  0  0  0  0  0  0  0  0  0
   10.9418   -3.4032   21.2053 O   0  0  0  0  0  0  0  0  0  0  0  0
    1.4797   -8.6258   16.2950 C   0  0  0  0  0  0  0  0  0  0  0  0
    9.2861   -1.2743   25.3585 C   0  0  0  0  0  0  0  0  0  0  0  0
    1.8892  -10.3985   17.7511 N   0  0  0  0  0  0  0  0  0  0  0  0
    9.6210   -0.6952   24.0976 C   0  0  0  0  0  0  0  0  0  0  0  0
    7.0792   -9.0217   17.1429 C   0  0  0  0  0  0  0  0  0  0  0  0
    3.1713  -10.1816   17.6634 C   0  0  0  0  0  0  0  0  0  0  0  0
    2.7878   -8.3822   16.2137 C   0  0  0  0  0  0  0  0  0  0  0  0
    9.4601   -2.6590   25.6528 C   0  0  0  0  0  0  0  0  0  0  0  0
   10.1182   -1.5672   23.1165 C   0  0  0  0  0  0  0  0  0  0  0  0
    1.0552   -9.6360   17.0650 C   0  0  0  0  0  0  0  0  0  0  0  0
    3.6519   -9.1783   16.9039 C   0  0  0  0  0  0  0  0  0  0  0  0
    7.8675   -7.0096   15.9415 C   0  0  0  0  0  0  0  0  0  0  0  0
    5.9733   -9.6553   17.3832 N   0  0  0  0  0  0  0  0  0  0  0  0
   10.2411   -2.9363   23.4301 C   0  0  0  0  0  0  0  0  0  0  0  0
   10.7288   -3.8197   19.9525 C   0  0  0  0  0  0  0  0  0  0  0  0
   10.1189   -5.0054   19.6987 C   0  0  0  0  0  0  0  0  0  0  0  0
  1  3  4  0
  1  7  4  0
  2 21  4  0
  2 27  4  0
  3  9  4  0
  3 10  4  0
  4  8  4  0
  4 18  4  0
  4 25  1  0
  5  9  4  0
  5 12  4  0
  6 13  1  0
  6 27  1  0
  7 28  4  0
  8 11  4  0
  9 29  4  0
 10 12  4  0
 11 24  1  0
 11 26  4  0
 12 25  1  0
 13 28  1  0
 14 20  4  0
 14 23  4  0
 15 17  4  0
 15 21  4  0
 16 19  4  0
 16 23  4  0
 17 22  4  0
 18 26  4  0
 19 24  4  0
 20 24  4  0
 22 27  4  0
 28 29  4  0
M  END
$$$$

 Created by Python create_sdf_string function

 29 33  0  0  0  0  0  0  0  0999 V2000
   10.7215   -3.3326   17.6437 C   0  0  0  0  0  0  0  0  0  0  0  0
    9.9489   -3.4675   24.6487 N   0  0  0  0  0  0  0  0  0  0  0  0
   10.0172   -4.4740   17.4101 C   0  0  0  0  0  0  0  0  0  0  0  0
    6.9051   -7.9575   16.4222 C   0  0  0  0  0  0  0  0  0  0  0  0
    8.9969   -6.3552   17.9668 N   0  0  0  0  0  0  0  0  0  0  0  0
   10.6702   -3.9051   22.4070 C   0  0  0  0  0  0  0  0  0  0  0  0
   11.0625   -3.0028   18.8894 C   0  0  0  0  0  0  0  0  0  0  0  0
    5.6180   -7.9194   16.1754 O   0  0  0  0  0  0  0  0  0  0  0  0
    9.7259   -5.3080   18.4485 C   0  0  0  0  0  0  0  0  0  0  0  0
    9.4578   -5.0200   16.3036 N   0  0  0  0  0  0  0  0  0  0  0  0
    5.0287   -8.9365   16.8223 C   0  0  0  0  0  0  0  0  0  0  0  0
    8.7742   -6.1498   16.6764 C   0  0  0  0  0  0  0  0  0  0  0  0
   10.9418   -3.4032   21.2053 O   0  0  0  0  0  0  0  0  0  0  0  0
    1.4797   -8.6258   16.2950 C   0  0  0  0  0  0  0  0  0  0  0  0
    9.2861   -1.2743   25.3585 C   0  0  0  0  0  0  0  0  0  0  0  0
    1.8892  -10.3985   17.7511 N   0  0  0  0  0  0  0  0  0  0  0  0
    9.6210   -0.6952   24.0976 C   0  0  0  0  0  0  0  0  0  0  0  0
    7.0792   -9.0217   17.1429 C   0  0  0  0  0  0  0  0  0  0  0  0
    3.1713  -10.1816   17.6634 C   0  0  0  0  0  0  0  0  0  0  0  0
    2.7878   -8.3822   16.2137 C   0  0  0  0  0  0  0  0  0  0  0  0
    9.4601   -2.6590   25.6528 C   0  0  0  0  0  0  0  0  0  0  0  0
   10.1182   -1.5672   23.1165 C   0  0  0  0  0  0  0  0  0  0  0  0
    1.0552   -9.6360   17.0650 C   0  0  0  0  0  0  0  0  0  0  0  0
    3.6519   -9.1783   16.9039 C   0  0  0  0  0  0  0  0  0  0  0  0
    7.8675   -7.0096   15.9415 C   0  0  0  0  0  0  0  0  0  0  0  0
    5.9733   -9.6553   17.3832 N   0  0  0  0  0  0  0  0  0  0  0  0
   10.2411   -2.9363   23.4301 C   0  0  0  0  0  0  0  0  0  0  0  0
   10.7288   -3.8197   19.9525 C   0  0  0  0  0  0  0  0  0  0  0  0
   10.1189   -5.0054   19.6987 C   0  0  0  0  0  0  0  0  0  0  0  0
  1  3  4  0
  1  7  4  0
  2 21  4  0
  2 27  4  0
  3  9  4  0
  3 10  4  0
  4  8  4  0
  4 18  4  0
  4 25  1  0
  5  9  4  0
  5 12  4  0
  6 13  1  0
  6 27  1  0
  7 28  4  0
  8 11  4  0
  9 29  4  0
 10 12  4  0
 11 24  1  0
 11 26  4  0
 12 25  1  0
 13 28  1  0
 14 20  4  0
 14 23  4  0
 15 17  4  0
 15 21  4  0
 16 19  4  0
 16 23  4  0
 17 22  4  0
 18 26  4  0
 19 24  4  0
 20 24  4  0
 22 27  4  0
 28 29  4  0
M  END
$$$$

 Created by Python create_sdf_string function

 29 33  0  0  0  0  0  0  0  0999 V2000
   10.7215   -3.3326   17.6437 C   0  0  0  0  0  0  0  0  0  0  0  0
    9.9489   -3.4675   24.6487 N   0  0  0  0  0  0  0  0  0  0  0  0
   10.0172   -4.4740   17.4101 C   0  0  0  0  0  0  0  0  0  0  0  0
    6.9051   -7.9575   16.4222 C   0  0  0  0  0  0  0  0  0  0  0  0
    8.9969   -6.3552   17.9668 N   0  0  0  0  0  0  0  0  0  0  0  0
   10.6702   -3.9051   22.4070 C   0  0  0  0  0  0  0  0  0  0  0  0
   11.0625   -3.0028   18.8894 C   0  0  0  0  0  0  0  0  0  0  0  0
    5.6180   -7.9194   16.1754 O   0  0  0  0  0  0  0  0  0  0  0  0
    9.7259   -5.3080   18.4485 C   0  0  0  0  0  0  0  0  0  0  0  0
    9.4578   -5.0200   16.3036 N   0  0  0  0  0  0  0  0  0  0  0  0
    5.0287   -8.9365   16.8223 C   0  0  0  0  0  0  0  0  0  0  0  0
    8.7742   -6.1498   16.6764 C   0  0  0  0  0  0  0  0  0  0  0  0
   10.9418   -3.4032   21.2053 O   0  0  0  0  0  0  0  0  0  0  0  0
    1.4797   -8.6258   16.2950 C   0  0  0  0  0  0  0  0  0  0  0  0
    9.2861   -1.2743   25.3585 C   0  0  0  0  0  0  0  0  0  0  0  0
    1.8892  -10.3985   17.7511 N   0  0  0  0  0  0  0  0  0  0  0  0
    9.6210   -0.6952   24.0976 C   0  0  0  0  0  0  0  0  0  0  0  0
    7.0792   -9.0217   17.1429 C   0  0  0  0  0  0  0  0  0  0  0  0
    3.1713  -10.1816   17.6634 C   0  0  0  0  0  0  0  0  0  0  0  0
    2.7878   -8.3822   16.2137 C   0  0  0  0  0  0  0  0  0  0  0  0
    9.4601   -2.6590   25.6528 C   0  0  0  0  0  0  0  0  0  0  0  0
   10.1182   -1.5672   23.1165 C   0  0  0  0  0  0  0  0  0  0  0  0
    1.0552   -9.6360   17.0650 C   0  0  0  0  0  0  0  0  0  0  0  0
    3.6519   -9.1783   16.9039 C   0  0  0  0  0  0  0  0  0  0  0  0
    7.8675   -7.0096   15.9415 C   0  0  0  0  0  0  0  0  0  0  0  0
    5.9733   -9.6553   17.3832 N   0  0  0  0  0  0  0  0  0  0  0  0
   10.2411   -2.9363   23.4301 C   0  0  0  0  0  0  0  0  0  0  0  0
   10.7288   -3.8197   19.9525 C   0  0  0  0  0  0  0  0  0  0  0  0
   10.1189   -5.0054   19.6987 C   0  0  0  0  0  0  0  0  0  0  0  0
  1  3  4  0
  1  7  4  0
  2 21  4  0
  2 27  4  0
  3  9  4  0
  3 10  4  0
  4  8  4  0
  4 18  4  0
  4 25  1  0
  5  9  4  0
  5 12  4  0
  6 13  1  0
  6 27  1  0
  7 28  4  0
  8 11  4  0
  9 29  4  0
 10 12  4  0
 11 24  1  0
 11 26  4  0
 12 25  1  0
 13 28  1  0
 14 20  4  0
 14 23  4  0
 15 17  4  0
 15 21  4  0
 16 19  4  0
 16 23  4  0
 17 22  4  0
 18 26  4  0
 19 24  4  0
 20 24  4  0
 22 27  4  0
 28 29  4  0
M  END
$$$$

 Created by Python create_sdf_string function

 29 33  0  0  0  0  0  0  0  0999 V2000
   10.7215   -3.3326   17.6437 C   0  0  0  0  0  0  0  0  0  0  0  0
    9.9489   -3.4675   24.6487 N   0  0  0  0  0  0  0  0  0  0  0  0
   10.0172   -4.4740   17.4101 C   0  0  0  0  0  0  0  0  0  0  0  0
    6.9051   -7.9575   16.4222 C   0  0  0  0  0  0  0  0  0  0  0  0
    8.9969   -6.3552   17.9668 N   0  0  0  0  0  0  0  0  0  0  0  0
   10.6702   -3.9051   22.4070 C   0  0  0  0  0  0  0  0  0  0  0  0
   11.0625   -3.0028   18.8894 C   0  0  0  0  0  0  0  0  0  0  0  0
    5.6180   -7.9194   16.1754 O   0  0  0  0  0  0  0  0  0  0  0  0
    9.7259   -5.3080   18.4485 C   0  0  0  0  0  0  0  0  0  0  0  0
    9.4578   -5.0200   16.3036 N   0  0  0  0  0  0  0  0  0  0  0  0
    5.0287   -8.9365   16.8223 C   0  0  0  0  0  0  0  0  0  0  0  0
    8.7742   -6.1498   16.6764 C   0  0  0  0  0  0  0  0  0  0  0  0
   10.9418   -3.4032   21.2053 O   0  0  0  0  0  0  0  0  0  0  0  0
    1.4797   -8.6258   16.2950 C   0  0  0  0  0  0  0  0  0  0  0  0
    9.2861   -1.2743   25.3585 C   0  0  0  0  0  0  0  0  0  0  0  0
    1.8892  -10.3985   17.7511 N   0  0  0  0  0  0  0  0  0  0  0  0
    9.6210   -0.6952   24.0976 C   0  0  0  0  0  0  0  0  0  0  0  0
    7.0792   -9.0217   17.1429 C   0  0  0  0  0  0  0  0  0  0  0  0
    3.1713  -10.1816   17.6634 C   0  0  0  0  0  0  0  0  0  0  0  0
    2.7878   -8.3822   16.2137 C   0  0  0  0  0  0  0  0  0  0  0  0
    9.4601   -2.6590   25.6528 C   0  0  0  0  0  0  0  0  0  0  0  0
   10.1182   -1.5672   23.1165 C   0  0  0  0  0  0  0  0  0  0  0  0
    1.0552   -9.6360   17.0650 C   0  0  0  0  0  0  0  0  0  0  0  0
    3.6519   -9.1783   16.9039 C   0  0  0  0  0  0  0  0  0  0  0  0
    7.8675   -7.0096   15.9415 C   0  0  0  0  0  0  0  0  0  0  0  0
    5.9733   -9.6553   17.3832 N   0  0  0  0  0  0  0  0  0  0  0  0
   10.2411   -2.9363   23.4301 C   0  0  0  0  0  0  0  0  0  0  0  0
   10.7288   -3.8197   19.9525 C   0  0  0  0  0  0  0  0  0  0  0  0
   10.1189   -5.0054   19.6987 C   0  0  0  0  0  0  0  0  0  0  0  0
  1  3  4  0
  1  7  4  0
  2 21  4  0
  2 27  4  0
  3  9  4  0
  3 10  4  0
  4  8  4  0
  4 18  4  0
  4 25  1  0
  5  9  4  0
  5 12  4  0
  6 13  1  0
  6 27  1  0
  7 28  4  0
  8 11  4  0
  9 29  4  0
 10 12  4  0
 11 24  1  0
 11 26  4  0
 12 25  1  0
 13 28  1  0
 14 20  4  0
 14 23  4  0
 15 17  4  0
 15 21  4  0
 16 19  4  0
 16 23  4  0
 17 22  4  0
 18 26  4  0
 19 24  4  0
 20 24  4  0
 22 27  4  0
 28 29  4  0
M  END
$$$$

 Created by Python create_sdf_string function

 29 33  0  0  0  0  0  0  0  0999 V2000
   10.7215   -3.3326   17.6437 C   0  0  0  0  0  0  0  0  0  0  0  0
    9.9489   -3.4675   24.6487 N   0  0  0  0  0  0  0  0  0  0  0  0
   10.0172   -4.4740   17.4101 C   0  0  0  0  0  0  0  0  0  0  0  0
    6.9051   -7.9575   16.4222 C   0  0  0  0  0  0  0  0  0  0  0  0
    8.9969   -6.3552   17.9668 N   0  0  0  0  0  0  0  0  0  0  0  0
   10.6702   -3.9051   22.4070 C   0  0  0  0  0  0  0  0  0  0  0  0
   11.0625   -3.0028   18.8894 C   0  0  0  0  0  0  0  0  0  0  0  0
    5.6180   -7.9194   16.1754 O   0  0  0  0  0  0  0  0  0  0  0  0
    9.7259   -5.3080   18.4485 C   0  0  0  0  0  0  0  0  0  0  0  0
    9.4578   -5.0200   16.3036 N   0  0  0  0  0  0  0  0  0  0  0  0
    5.0287   -8.9365   16.8223 C   0  0  0  0  0  0  0  0  0  0  0  0
    8.7742   -6.1498   16.6764 C   0  0  0  0  0  0  0  0  0  0  0  0
   10.9418   -3.4032   21.2053 O   0  0  0  0  0  0  0  0  0  0  0  0
    1.4797   -8.6258   16.2950 C   0  0  0  0  0  0  0  0  0  0  0  0
    9.2861   -1.2743   25.3585 C   0  0  0  0  0  0  0  0  0  0  0  0
    1.8892  -10.3985   17.7511 N   0  0  0  0  0  0  0  0  0  0  0  0
    9.6210   -0.6952   24.0976 C   0  0  0  0  0  0  0  0  0  0  0  0
    7.0792   -9.0217   17.1429 C   0  0  0  0  0  0  0  0  0  0  0  0
    3.1713  -10.1816   17.6634 C   0  0  0  0  0  0  0  0  0  0  0  0
    2.7878   -8.3822   16.2137 C   0  0  0  0  0  0  0  0  0  0  0  0
    9.4601   -2.6590   25.6528 C   0  0  0  0  0  0  0  0  0  0  0  0
   10.1182   -1.5672   23.1165 C   0  0  0  0  0  0  0  0  0  0  0  0
    1.0552   -9.6360   17.0650 C   0  0  0  0  0  0  0  0  0  0  0  0
    3.6519   -9.1783   16.9039 C   0  0  0  0  0  0  0  0  0  0  0  0
    7.8675   -7.0096   15.9415 C   0  0  0  0  0  0  0  0  0  0  0  0
    5.9733   -9.6553   17.3832 N   0  0  0  0  0  0  0  0  0  0  0  0
   10.2411   -2.9363   23.4301 C   0  0  0  0  0  0  0  0  0  0  0  0
   10.7288   -3.8197   19.9525 C   0  0  0  0  0  0  0  0  0  0  0  0
   10.1189   -5.0054   19.6987 C   0  0  0  0  0  0  0  0  0  0  0  0
  1  3  4  0
  1  7  4  0
  2 21  4  0
  2 27  4  0
  3  9  4  0
  3 10  4  0
  4  8  4  0
  4 18  4  0
  4 25  1  0
  5  9  4  0
  5 12  4  0
  6 13  1  0
  6 27  1  0
  7 28  4  0
  8 11  4  0
  9 29  4  0
 10 12  4  0
 11 24  1  0
 11 26  4  0
 12 25  1  0
 13 28  1  0
 14 20  4  0
 14 23  4  0
 15 17  4  0
 15 21  4  0
 16 19  4  0
 16 23  4  0
 17 22  4  0
 18 26  4  0
 19 24  4  0
 20 24  4  0
 22 27  4  0
 28 29  4  0
M  END
$$$$

 Created by Python create_sdf_string function

 29 33  0  0  0  0  0  0  0  0999 V2000
   10.7215   -3.3326   17.6437 C   0  0  0  0  0  0  0  0  0  0  0  0
    9.9489   -3.4675   24.6487 N   0  0  0  0  0  0  0  0  0  0  0  0
   10.0172   -4.4740   17.4101 C   0  0  0  0  0  0  0  0  0  0  0  0
    6.9051   -7.9575   16.4222 C   0  0  0  0  0  0  0  0  0  0  0  0
    8.9969   -6.3552   17.9668 N   0  0  0  0  0  0  0  0  0  0  0  0
   10.6702   -3.9051   22.4070 C   0  0  0  0  0  0  0  0  0  0  0  0
   11.0625   -3.0028   18.8894 C   0  0  0  0  0  0  0  0  0  0  0  0
    5.6180   -7.9194   16.1754 O   0  0  0  0  0  0  0  0  0  0  0  0
    9.7259   -5.3080   18.4485 C   0  0  0  0  0  0  0  0  0  0  0  0
    9.4578   -5.0200   16.3036 N   0  0  0  0  0  0  0  0  0  0  0  0
    5.0287   -8.9365   16.8223 C   0  0  0  0  0  0  0  0  0  0  0  0
    8.7742   -6.1498   16.6764 C   0  0  0  0  0  0  0  0  0  0  0  0
   10.9418   -3.4032   21.2053 O   0  0  0  0  0  0  0  0  0  0  0  0
    1.4797   -8.6258   16.2950 C   0  0  0  0  0  0  0  0  0  0  0  0
    9.2861   -1.2743   25.3585 C   0  0  0  0  0  0  0  0  0  0  0  0
    1.8892  -10.3985   17.7511 N   0  0  0  0  0  0  0  0  0  0  0  0
    9.6210   -0.6952   24.0976 C   0  0  0  0  0  0  0  0  0  0  0  0
    7.0792   -9.0217   17.1429 C   0  0  0  0  0  0  0  0  0  0  0  0
    3.1713  -10.1816   17.6634 C   0  0  0  0  0  0  0  0  0  0  0  0
    2.7878   -8.3822   16.2137 C   0  0  0  0  0  0  0  0  0  0  0  0
    9.4601   -2.6590   25.6528 C   0  0  0  0  0  0  0  0  0  0  0  0
   10.1182   -1.5672   23.1165 C   0  0  0  0  0  0  0  0  0  0  0  0
    1.0552   -9.6360   17.0650 C   0  0  0  0  0  0  0  0  0  0  0  0
    3.6519   -9.1783   16.9039 C   0  0  0  0  0  0  0  0  0  0  0  0
    7.8675   -7.0096   15.9415 C   0  0  0  0  0  0  0  0  0  0  0  0
    5.9733   -9.6553   17.3832 N   0  0  0  0  0  0  0  0  0  0  0  0
   10.2411   -2.9363   23.4301 C   0  0  0  0  0  0  0  0  0  0  0  0
   10.7288   -3.8197   19.9525 C   0  0  0  0  0  0  0  0  0  0  0  0
   10.1189   -5.0054   19.6987 C   0  0  0  0  0  0  0  0  0  0  0  0
  1  3  4  0
  1  7  4  0
  2 21  4  0
  2 27  4  0
  3  9  4  0
  3 10  4  0
  4  8  4  0
  4 18  4  0
  4 25  1  0
  5  9  4  0
  5 12  4  0
  6 13  1  0
  6 27  1  0
  7 28  4  0
  8 11  4  0
  9 29  4  0
 10 12  4  0
 11 24  1  0
 11 26  4  0
 12 25  1  0
 13 28  1  0
 14 20  4  0
 14 23  4  0
 15 17  4  0
 15 21  4  0
 16 19  4  0
 16 23  4  0
 17 22  4  0
 18 26  4  0
 19 24  4  0
 20 24  4  0
 22 27  4  0
 28 29  4  0
M  END
$$$$

 Created by Python create_sdf_string function

 29 33  0  0  0  0  0  0  0  0999 V2000
   10.7215   -3.3326   17.6437 C   0  0  0  0  0  0  0  0  0  0  0  0
    9.9489   -3.4675   24.6487 N   0  0  0  0  0  0  0  0  0  0  0  0
   10.0172   -4.4740   17.4101 C   0  0  0  0  0  0  0  0  0  0  0  0
    6.9051   -7.9575   16.4222 C   0  0  0  0  0  0  0  0  0  0  0  0
    8.9969   -6.3552   17.9668 N   0  0  0  0  0  0  0  0  0  0  0  0
   10.6702   -3.9051   22.4070 C   0  0  0  0  0  0  0  0  0  0  0  0
   11.0625   -3.0028   18.8894 C   0  0  0  0  0  0  0  0  0  0  0  0
    5.6180   -7.9194   16.1754 O   0  0  0  0  0  0  0  0  0  0  0  0
    9.7259   -5.3080   18.4485 C   0  0  0  0  0  0  0  0  0  0  0  0
    9.4578   -5.0200   16.3036 N   0  0  0  0  0  0  0  0  0  0  0  0
    5.0287   -8.9365   16.8223 C   0  0  0  0  0  0  0  0  0  0  0  0
    8.7742   -6.1498   16.6764 C   0  0  0  0  0  0  0  0  0  0  0  0
   10.9418   -3.4032   21.2053 O   0  0  0  0  0  0  0  0  0  0  0  0
    1.4797   -8.6258   16.2950 C   0  0  0  0  0  0  0  0  0  0  0  0
    9.2861   -1.2743   25.3585 C   0  0  0  0  0  0  0  0  0  0  0  0
    1.8892  -10.3985   17.7511 N   0  0  0  0  0  0  0  0  0  0  0  0
    9.6210   -0.6952   24.0976 C   0  0  0  0  0  0  0  0  0  0  0  0
    7.0792   -9.0217   17.1429 C   0  0  0  0  0  0  0  0  0  0  0  0
    3.1713  -10.1816   17.6634 C   0  0  0  0  0  0  0  0  0  0  0  0
    2.7878   -8.3822   16.2137 C   0  0  0  0  0  0  0  0  0  0  0  0
    9.4601   -2.6590   25.6528 C   0  0  0  0  0  0  0  0  0  0  0  0
   10.1182   -1.5672   23.1165 C   0  0  0  0  0  0  0  0  0  0  0  0
    1.0552   -9.6360   17.0650 C   0  0  0  0  0  0  0  0  0  0  0  0
    3.6519   -9.1783   16.9039 C   0  0  0  0  0  0  0  0  0  0  0  0
    7.8675   -7.0096   15.9415 C   0  0  0  0  0  0  0  0  0  0  0  0
    5.9733   -9.6553   17.3832 N   0  0  0  0  0  0  0  0  0  0  0  0
   10.2411   -2.9363   23.4301 C   0  0  0  0  0  0  0  0  0  0  0  0
   10.7288   -3.8197   19.9525 C   0  0  0  0  0  0  0  0  0  0  0  0
   10.1189   -5.0054   19.6987 C   0  0  0  0  0  0  0  0  0  0  0  0
  1  3  4  0
  1  7  4  0
  2 21  4  0
  2 27  4  0
  3  9  4  0
  3 10  4  0
  4  8  4  0
  4 18  4  0
  4 25  1  0
  5  9  4  0
  5 12  4  0
  6 13  1  0
  6 27  1  0
  7 28  4  0
  8 11  4  0
  9 29  4  0
 10 12  4  0
 11 24  1  0
 11 26  4  0
 12 25  1  0
 13 28  1  0
 14 20  4  0
 14 23  4  0
 15 17  4  0
 15 21  4  0
 16 19  4  0
 16 23  4  0
 17 22  4  0
 18 26  4  0
 19 24  4  0
 20 24  4  0
 22 27  4  0
 28 29  4  0
M  END
$$$$

 Created by Python create_sdf_string function

 29 33  0  0  0  0  0  0  0  0999 V2000
   10.7215   -3.3326   17.6437 C   0  0  0  0  0  0  0  0  0  0  0  0
    9.9489   -3.4675   24.6487 N   0  0  0  0  0  0  0  0  0  0  0  0
   10.0172   -4.4740   17.4101 C   0  0  0  0  0  0  0  0  0  0  0  0
    6.9051   -7.9575   16.4222 C   0  0  0  0  0  0  0  0  0  0  0  0
    8.9969   -6.3552   17.9668 N   0  0  0  0  0  0  0  0  0  0  0  0
   10.6702   -3.9051   22.4070 C   0  0  0  0  0  0  0  0  0  0  0  0
   11.0625   -3.0028   18.8894 C   0  0  0  0  0  0  0  0  0  0  0  0
    5.6180   -7.9194   16.1754 O   0  0  0  0  0  0  0  0  0  0  0  0
    9.7259   -5.3080   18.4485 C   0  0  0  0  0  0  0  0  0  0  0  0
    9.4578   -5.0200   16.3036 N   0  0  0  0  0  0  0  0  0  0  0  0
    5.0287   -8.9365   16.8223 C   0  0  0  0  0  0  0  0  0  0  0  0
    8.7742   -6.1498   16.6764 C   0  0  0  0  0  0  0  0  0  0  0  0
   10.9418   -3.4032   21.2053 O   0  0  0  0  0  0  0  0  0  0  0  0
    1.4797   -8.6258   16.2950 C   0  0  0  0  0  0  0  0  0  0  0  0
    9.2861   -1.2743   25.3585 C   0  0  0  0  0  0  0  0  0  0  0  0
    1.8892  -10.3985   17.7511 N   0  0  0  0  0  0  0  0  0  0  0  0
    9.6210   -0.6952   24.0976 C   0  0  0  0  0  0  0  0  0  0  0  0
    7.0792   -9.0217   17.1429 C   0  0  0  0  0  0  0  0  0  0  0  0
    3.1713  -10.1816   17.6634 C   0  0  0  0  0  0  0  0  0  0  0  0
    2.7878   -8.3822   16.2137 C   0  0  0  0  0  0  0  0  0  0  0  0
    9.4601   -2.6590   25.6528 C   0  0  0  0  0  0  0  0  0  0  0  0
   10.1182   -1.5672   23.1165 C   0  0  0  0  0  0  0  0  0  0  0  0
    1.0552   -9.6360   17.0650 C   0  0  0  0  0  0  0  0  0  0  0  0
    3.6519   -9.1783   16.9039 C   0  0  0  0  0  0  0  0  0  0  0  0
    7.8675   -7.0096   15.9415 C   0  0  0  0  0  0  0  0  0  0  0  0
    5.9733   -9.6553   17.3832 N   0  0  0  0  0  0  0  0  0  0  0  0
   10.2411   -2.9363   23.4301 C   0  0  0  0  0  0  0  0  0  0  0  0
   10.7288   -3.8197   19.9525 C   0  0  0  0  0  0  0  0  0  0  0  0
   10.1189   -5.0054   19.6987 C   0  0  0  0  0  0  0  0  0  0  0  0
  1  3  4  0
  1  7  4  0
  2 21  4  0
  2 27  4  0
  3  9  4  0
  3 10  4  0
  4  8  4  0
  4 18  4  0
  4 25  1  0
  5  9  4  0
  5 12  4  0
  6 13  1  0
  6 27  1  0
  7 28  4  0
  8 11  4  0
  9 29  4  0
 10 12  4  0
 11 24  1  0
 11 26  4  0
 12 25  1  0
 13 28  1  0
 14 20  4  0
 14 23  4  0
 15 17  4  0
 15 21  4  0
 16 19  4  0
 16 23  4  0
 17 22  4  0
 18 26  4  0
 19 24  4  0
 20 24  4  0
 22 27  4  0
 28 29  4  0
M  END
$$$$

 Created by Python create_sdf_string function

 29 33  0  0  0  0  0  0  0  0999 V2000
   10.7215   -3.3326   17.6437 C   0  0  0  0  0  0  0  0  0  0  0  0
    9.9489   -3.4675   24.6487 N   0  0  0  0  0  0  0  0  0  0  0  0
   10.0172   -4.4740   17.4101 C   0  0  0  0  0  0  0  0  0  0  0  0
    6.9051   -7.9575   16.4222 C   0  0  0  0  0  0  0  0  0  0  0  0
    8.9969   -6.3552   17.9668 N   0  0  0  0  0  0  0  0  0  0  0  0
   10.6702   -3.9051   22.4070 C   0  0  0  0  0  0  0  0  0  0  0  0
   11.0625   -3.0028   18.8894 C   0  0  0  0  0  0  0  0  0  0  0  0
    5.6180   -7.9194   16.1754 O   0  0  0  0  0  0  0  0  0  0  0  0
    9.7259   -5.3080   18.4485 C   0  0  0  0  0  0  0  0  0  0  0  0
    9.4578   -5.0200   16.3036 N   0  0  0  0  0  0  0  0  0  0  0  0
    5.0287   -8.9365   16.8223 C   0  0  0  0  0  0  0  0  0  0  0  0
    8.7742   -6.1498   16.6764 C   0  0  0  0  0  0  0  0  0  0  0  0
   10.9418   -3.4032   21.2053 O   0  0  0  0  0  0  0  0  0  0  0  0
    1.4797   -8.6258   16.2950 C   0  0  0  0  0  0  0  0  0  0  0  0
    9.2861   -1.2743   25.3585 C   0  0  0  0  0  0  0  0  0  0  0  0
    1.8892  -10.3985   17.7511 N   0  0  0  0  0  0  0  0  0  0  0  0
    9.6210   -0.6952   24.0976 C   0  0  0  0  0  0  0  0  0  0  0  0
    7.0792   -9.0217   17.1429 C   0  0  0  0  0  0  0  0  0  0  0  0
    3.1713  -10.1816   17.6634 C   0  0  0  0  0  0  0  0  0  0  0  0
    2.7878   -8.3822   16.2137 C   0  0  0  0  0  0  0  0  0  0  0  0
    9.4601   -2.6590   25.6528 C   0  0  0  0  0  0  0  0  0  0  0  0
   10.1182   -1.5672   23.1165 C   0  0  0  0  0  0  0  0  0  0  0  0
    1.0552   -9.6360   17.0650 C   0  0  0  0  0  0  0  0  0  0  0  0
    3.6519   -9.1783   16.9039 C   0  0  0  0  0  0  0  0  0  0  0  0
    7.8675   -7.0096   15.9415 C   0  0  0  0  0  0  0  0  0  0  0  0
    5.9733   -9.6553   17.3832 N   0  0  0  0  0  0  0  0  0  0  0  0
   10.2411   -2.9363   23.4301 C   0  0  0  0  0  0  0  0  0  0  0  0
   10.7288   -3.8197   19.9525 C   0  0  0  0  0  0  0  0  0  0  0  0
   10.1189   -5.0054   19.6987 C   0  0  0  0  0  0  0  0  0  0  0  0
  1  3  4  0
  1  7  4  0
  2 21  4  0
  2 27  4  0
  3  9  4  0
  3 10  4  0
  4  8  4  0
  4 18  4  0
  4 25  1  0
  5  9  4  0
  5 12  4  0
  6 13  1  0
  6 27  1  0
  7 28  4  0
  8 11  4  0
  9 29  4  0
 10 12  4  0
 11 24  1  0
 11 26  4  0
 12 25  1  0
 13 28  1  0
 14 20  4  0
 14 23  4  0
 15 17  4  0
 15 21  4  0
 16 19  4  0
 16 23  4  0
 17 22  4  0
 18 26  4  0
 19 24  4  0
 20 24  4  0
 22 27  4  0
 28 29  4  0
M  END
$$$$

 Created by Python create_sdf_string function

 29 33  0  0  0  0  0  0  0  0999 V2000
   10.7215   -3.3326   17.6437 C   0  0  0  0  0  0  0  0  0  0  0  0
    9.9489   -3.4675   24.6487 N   0  0  0  0  0  0  0  0  0  0  0  0
   10.0172   -4.4740   17.4101 C   0  0  0  0  0  0  0  0  0  0  0  0
    6.9051   -7.9575   16.4222 C   0  0  0  0  0  0  0  0  0  0  0  0
    8.9969   -6.3552   17.9668 N   0  0  0  0  0  0  0  0  0  0  0  0
   10.6702   -3.9051   22.4070 C   0  0  0  0  0  0  0  0  0  0  0  0
   11.0625   -3.0028   18.8894 C   0  0  0  0  0  0  0  0  0  0  0  0
    5.6180   -7.9194   16.1754 O   0  0  0  0  0  0  0  0  0  0  0  0
    9.7259   -5.3080   18.4485 C   0  0  0  0  0  0  0  0  0  0  0  0
    9.4578   -5.0200   16.3036 N   0  0  0  0  0  0  0  0  0  0  0  0
    5.0287   -8.9365   16.8223 C   0  0  0  0  0  0  0  0  0  0  0  0
    8.7742   -6.1498   16.6764 C   0  0  0  0  0  0  0  0  0  0  0  0
   10.9418   -3.4032   21.2053 O   0  0  0  0  0  0  0  0  0  0  0  0
    1.4797   -8.6258   16.2950 C   0  0  0  0  0  0  0  0  0  0  0  0
    9.2861   -1.2743   25.3585 C   0  0  0  0  0  0  0  0  0  0  0  0
    1.8892  -10.3985   17.7511 N   0  0  0  0  0  0  0  0  0  0  0  0
    9.6210   -0.6952   24.0976 C   0  0  0  0  0  0  0  0  0  0  0  0
    7.0792   -9.0217   17.1429 C   0  0  0  0  0  0  0  0  0  0  0  0
    3.1713  -10.1816   17.6634 C   0  0  0  0  0  0  0  0  0  0  0  0
    2.7878   -8.3822   16.2137 C   0  0  0  0  0  0  0  0  0  0  0  0
    9.4601   -2.6590   25.6528 C   0  0  0  0  0  0  0  0  0  0  0  0
   10.1182   -1.5672   23.1165 C   0  0  0  0  0  0  0  0  0  0  0  0
    1.0552   -9.6360   17.0650 C   0  0  0  0  0  0  0  0  0  0  0  0
    3.6519   -9.1783   16.9039 C   0  0  0  0  0  0  0  0  0  0  0  0
    7.8675   -7.0096   15.9415 C   0  0  0  0  0  0  0  0  0  0  0  0
    5.9733   -9.6553   17.3832 N   0  0  0  0  0  0  0  0  0  0  0  0
   10.2411   -2.9363   23.4301 C   0  0  0  0  0  0  0  0  0  0  0  0
   10.7288   -3.8197   19.9525 C   0  0  0  0  0  0  0  0  0  0  0  0
   10.1189   -5.0054   19.6987 C   0  0  0  0  0  0  0  0  0  0  0  0
  1  3  4  0
  1  7  4  0
  2 21  4  0
  2 27  4  0
  3  9  4  0
  3 10  4  0
  4  8  4  0
  4 18  4  0
  4 25  1  0
  5  9  4  0
  5 12  4  0
  6 13  1  0
  6 27  1  0
  7 28  4  0
  8 11  4  0
  9 29  4  0
 10 12  4  0
 11 24  1  0
 11 26  4  0
 12 25  1  0
 13 28  1  0
 14 20  4  0
 14 23  4  0
 15 17  4  0
 15 21  4  0
 16 19  4  0
 16 23  4  0
 17 22  4  0
 18 26  4  0
 19 24  4  0
 20 24  4  0
 22 27  4  0
 28 29  4  0
M  END
$$$$

 Created by Python create_sdf_string function

 29 33  0  0  0  0  0  0  0  0999 V2000
   10.7215   -3.3326   17.6437 C   0  0  0  0  0  0  0  0  0  0  0  0
    9.9489   -3.4675   24.6487 N   0  0  0  0  0  0  0  0  0  0  0  0
   10.0172   -4.4740   17.4101 C   0  0  0  0  0  0  0  0  0  0  0  0
    6.9051   -7.9575   16.4222 C   0  0  0  0  0  0  0  0  0  0  0  0
    8.9969   -6.3552   17.9668 N   0  0  0  0  0  0  0  0  0  0  0  0
   10.6702   -3.9051   22.4070 C   0  0  0  0  0  0  0  0  0  0  0  0
   11.0625   -3.0028   18.8894 C   0  0  0  0  0  0  0  0  0  0  0  0
    5.6180   -7.9194   16.1754 O   0  0  0  0  0  0  0  0  0  0  0  0
    9.7259   -5.3080   18.4485 C   0  0  0  0  0  0  0  0  0  0  0  0
    9.4578   -5.0200   16.3036 N   0  0  0  0  0  0  0  0  0  0  0  0
    5.0287   -8.9365   16.8223 C   0  0  0  0  0  0  0  0  0  0  0  0
    8.7742   -6.1498   16.6764 C   0  0  0  0  0  0  0  0  0  0  0  0
   10.9418   -3.4032   21.2053 O   0  0  0  0  0  0  0  0  0  0  0  0
    1.4797   -8.6258   16.2950 C   0  0  0  0  0  0  0  0  0  0  0  0
    9.2861   -1.2743   25.3585 C   0  0  0  0  0  0  0  0  0  0  0  0
    1.8892  -10.3985   17.7511 N   0  0  0  0  0  0  0  0  0  0  0  0
    9.6210   -0.6952   24.0976 C   0  0  0  0  0  0  0  0  0  0  0  0
    7.0792   -9.0217   17.1429 C   0  0  0  0  0  0  0  0  0  0  0  0
    3.1713  -10.1816   17.6634 C   0  0  0  0  0  0  0  0  0  0  0  0
    2.7878   -8.3822   16.2137 C   0  0  0  0  0  0  0  0  0  0  0  0
    9.4601   -2.6590   25.6528 C   0  0  0  0  0  0  0  0  0  0  0  0
   10.1182   -1.5672   23.1165 C   0  0  0  0  0  0  0  0  0  0  0  0
    1.0552   -9.6360   17.0650 C   0  0  0  0  0  0  0  0  0  0  0  0
    3.6519   -9.1783   16.9039 C   0  0  0  0  0  0  0  0  0  0  0  0
    7.8675   -7.0096   15.9415 C   0  0  0  0  0  0  0  0  0  0  0  0
    5.9733   -9.6553   17.3832 N   0  0  0  0  0  0  0  0  0  0  0  0
   10.2411   -2.9363   23.4301 C   0  0  0  0  0  0  0  0  0  0  0  0
   10.7288   -3.8197   19.9525 C   0  0  0  0  0  0  0  0  0  0  0  0
   10.1189   -5.0054   19.6987 C   0  0  0  0  0  0  0  0  0  0  0  0
  1  3  4  0
  1  7  4  0
  2 21  4  0
  2 27  4  0
  3  9  4  0
  3 10  4  0
  4  8  4  0
  4 18  4  0
  4 25  1  0
  5  9  4  0
  5 12  4  0
  6 13  1  0
  6 27  1  0
  7 28  4  0
  8 11  4  0
  9 29  4  0
 10 12  4  0
 11 24  1  0
 11 26  4  0
 12 25  1  0
 13 28  1  0
 14 20  4  0
 14 23  4  0
 15 17  4  0
 15 21  4  0
 16 19  4  0
 16 23  4  0
 17 22  4  0
 18 26  4  0
 19 24  4  0
 20 24  4  0
 22 27  4  0
 28 29  4  0
M  END
$$$$

 Created by Python create_sdf_string function

 29 33  0  0  0  0  0  0  0  0999 V2000
   10.7215   -3.3326   17.6437 C   0  0  0  0  0  0  0  0  0  0  0  0
    9.9489   -3.4675   24.6487 N   0  0  0  0  0  0  0  0  0  0  0  0
   10.0172   -4.4740   17.4101 C   0  0  0  0  0  0  0  0  0  0  0  0
    6.9051   -7.9575   16.4222 C   0  0  0  0  0  0  0  0  0  0  0  0
    8.9969   -6.3552   17.9668 N   0  0  0  0  0  0  0  0  0  0  0  0
   10.6702   -3.9051   22.4070 C   0  0  0  0  0  0  0  0  0  0  0  0
   11.0625   -3.0028   18.8894 C   0  0  0  0  0  0  0  0  0  0  0  0
    5.6180   -7.9194   16.1754 O   0  0  0  0  0  0  0  0  0  0  0  0
    9.7259   -5.3080   18.4485 C   0  0  0  0  0  0  0  0  0  0  0  0
    9.4578   -5.0200   16.3036 N   0  0  0  0  0  0  0  0  0  0  0  0
    5.0287   -8.9365   16.8223 C   0  0  0  0  0  0  0  0  0  0  0  0
    8.7742   -6.1498   16.6764 C   0  0  0  0  0  0  0  0  0  0  0  0
   10.9418   -3.4032   21.2053 O   0  0  0  0  0  0  0  0  0  0  0  0
    1.4797   -8.6258   16.2950 C   0  0  0  0  0  0  0  0  0  0  0  0
    9.2861   -1.2743   25.3585 C   0  0  0  0  0  0  0  0  0  0  0  0
    1.8892  -10.3985   17.7511 N   0  0  0  0  0  0  0  0  0  0  0  0
    9.6210   -0.6952   24.0976 C   0  0  0  0  0  0  0  0  0  0  0  0
    7.0792   -9.0217   17.1429 C   0  0  0  0  0  0  0  0  0  0  0  0
    3.1713  -10.1816   17.6634 C   0  0  0  0  0  0  0  0  0  0  0  0
    2.7878   -8.3822   16.2137 C   0  0  0  0  0  0  0  0  0  0  0  0
    9.4601   -2.6590   25.6528 C   0  0  0  0  0  0  0  0  0  0  0  0
   10.1182   -1.5672   23.1165 C   0  0  0  0  0  0  0  0  0  0  0  0
    1.0552   -9.6360   17.0650 C   0  0  0  0  0  0  0  0  0  0  0  0
    3.6519   -9.1783   16.9039 C   0  0  0  0  0  0  0  0  0  0  0  0
    7.8675   -7.0096   15.9415 C   0  0  0  0  0  0  0  0  0  0  0  0
    5.9733   -9.6553   17.3832 N   0  0  0  0  0  0  0  0  0  0  0  0
   10.2411   -2.9363   23.4301 C   0  0  0  0  0  0  0  0  0  0  0  0
   10.7288   -3.8197   19.9525 C   0  0  0  0  0  0  0  0  0  0  0  0
   10.1189   -5.0054   19.6987 C   0  0  0  0  0  0  0  0  0  0  0  0
  1  3  4  0
  1  7  4  0
  2 21  4  0
  2 27  4  0
  3  9  4  0
  3 10  4  0
  4  8  4  0
  4 18  4  0
  4 25  1  0
  5  9  4  0
  5 12  4  0
  6 13  1  0
  6 27  1  0
  7 28  4  0
  8 11  4  0
  9 29  4  0
 10 12  4  0
 11 24  1  0
 11 26  4  0
 12 25  1  0
 13 28  1  0
 14 20  4  0
 14 23  4  0
 15 17  4  0
 15 21  4  0
 16 19  4  0
 16 23  4  0
 17 22  4  0
 18 26  4  0
 19 24  4  0
 20 24  4  0
 22 27  4  0
 28 29  4  0
M  END
$$$$

 Created by Python create_sdf_string function

 29 33  0  0  0  0  0  0  0  0999 V2000
   10.7215   -3.3326   17.6437 C   0  0  0  0  0  0  0  0  0  0  0  0
    9.9489   -3.4675   24.6487 N   0  0  0  0  0  0  0  0  0  0  0  0
   10.0172   -4.4740   17.4101 C   0  0  0  0  0  0  0  0  0  0  0  0
    6.9051   -7.9575   16.4222 C   0  0  0  0  0  0  0  0  0  0  0  0
    8.9969   -6.3552   17.9668 N   0  0  0  0  0  0  0  0  0  0  0  0
   10.6702   -3.9051   22.4070 C   0  0  0  0  0  0  0  0  0  0  0  0
   11.0625   -3.0028   18.8894 C   0  0  0  0  0  0  0  0  0  0  0  0
    5.6180   -7.9194   16.1754 O   0  0  0  0  0  0  0  0  0  0  0  0
    9.7259   -5.3080   18.4485 C   0  0  0  0  0  0  0  0  0  0  0  0
    9.4578   -5.0200   16.3036 N   0  0  0  0  0  0  0  0  0  0  0  0
    5.0287   -8.9365   16.8223 C   0  0  0  0  0  0  0  0  0  0  0  0
    8.7742   -6.1498   16.6764 C   0  0  0  0  0  0  0  0  0  0  0  0
   10.9418   -3.4032   21.2053 O   0  0  0  0  0  0  0  0  0  0  0  0
    1.4797   -8.6258   16.2950 C   0  0  0  0  0  0  0  0  0  0  0  0
    9.2861   -1.2743   25.3585 C   0  0  0  0  0  0  0  0  0  0  0  0
    1.8892  -10.3985   17.7511 N   0  0  0  0  0  0  0  0  0  0  0  0
    9.6210   -0.6952   24.0976 C   0  0  0  0  0  0  0  0  0  0  0  0
    7.0792   -9.0217   17.1429 C   0  0  0  0  0  0  0  0  0  0  0  0
    3.1713  -10.1816   17.6634 C   0  0  0  0  0  0  0  0  0  0  0  0
    2.7878   -8.3822   16.2137 C   0  0  0  0  0  0  0  0  0  0  0  0
    9.4601   -2.6590   25.6528 C   0  0  0  0  0  0  0  0  0  0  0  0
   10.1182   -1.5672   23.1165 C   0  0  0  0  0  0  0  0  0  0  0  0
    1.0552   -9.6360   17.0650 C   0  0  0  0  0  0  0  0  0  0  0  0
    3.6519   -9.1783   16.9039 C   0  0  0  0  0  0  0  0  0  0  0  0
    7.8675   -7.0096   15.9415 C   0  0  0  0  0  0  0  0  0  0  0  0
    5.9733   -9.6553   17.3832 N   0  0  0  0  0  0  0  0  0  0  0  0
   10.2411   -2.9363   23.4301 C   0  0  0  0  0  0  0  0  0  0  0  0
   10.7288   -3.8197   19.9525 C   0  0  0  0  0  0  0  0  0  0  0  0
   10.1189   -5.0054   19.6987 C   0  0  0  0  0  0  0  0  0  0  0  0
  1  3  4  0
  1  7  4  0
  2 21  4  0
  2 27  4  0
  3  9  4  0
  3 10  4  0
  4  8  4  0
  4 18  4  0
  4 25  1  0
  5  9  4  0
  5 12  4  0
  6 13  1  0
  6 27  1  0
  7 28  4  0
  8 11  4  0
  9 29  4  0
 10 12  4  0
 11 24  1  0
 11 26  4  0
 12 25  1  0
 13 28  1  0
 14 20  4  0
 14 23  4  0
 15 17  4  0
 15 21  4  0
 16 19  4  0
 16 23  4  0
 17 22  4  0
 18 26  4  0
 19 24  4  0
 20 24  4  0
 22 27  4  0
 28 29  4  0
M  END
$$$$

 Created by Python create_sdf_string function

 29 33  0  0  0  0  0  0  0  0999 V2000
   10.7215   -3.3326   17.6437 C   0  0  0  0  0  0  0  0  0  0  0  0
    9.9489   -3.4675   24.6487 N   0  0  0  0  0  0  0  0  0  0  0  0
   10.0172   -4.4740   17.4101 C   0  0  0  0  0  0  0  0  0  0  0  0
    6.9051   -7.9575   16.4222 C   0  0  0  0  0  0  0  0  0  0  0  0
    8.9969   -6.3552   17.9668 N   0  0  0  0  0  0  0  0  0  0  0  0
   10.6702   -3.9051   22.4070 C   0  0  0  0  0  0  0  0  0  0  0  0
   11.0625   -3.0028   18.8894 C   0  0  0  0  0  0  0  0  0  0  0  0
    5.6180   -7.9194   16.1754 O   0  0  0  0  0  0  0  0  0  0  0  0
    9.7259   -5.3080   18.4485 C   0  0  0  0  0  0  0  0  0  0  0  0
    9.4578   -5.0200   16.3036 N   0  0  0  0  0  0  0  0  0  0  0  0
    5.0287   -8.9365   16.8223 C   0  0  0  0  0  0  0  0  0  0  0  0
    8.7742   -6.1498   16.6764 C   0  0  0  0  0  0  0  0  0  0  0  0
   10.9418   -3.4032   21.2053 O   0  0  0  0  0  0  0  0  0  0  0  0
    1.4797   -8.6258   16.2950 C   0  0  0  0  0  0  0  0  0  0  0  0
    9.2861   -1.2743   25.3585 C   0  0  0  0  0  0  0  0  0  0  0  0
    1.8892  -10.3985   17.7511 N   0  0  0  0  0  0  0  0  0  0  0  0
    9.6210   -0.6952   24.0976 C   0  0  0  0  0  0  0  0  0  0  0  0
    7.0792   -9.0217   17.1429 C   0  0  0  0  0  0  0  0  0  0  0  0
    3.1713  -10.1816   17.6634 C   0  0  0  0  0  0  0  0  0  0  0  0
    2.7878   -8.3822   16.2137 C   0  0  0  0  0  0  0  0  0  0  0  0
    9.4601   -2.6590   25.6528 C   0  0  0  0  0  0  0  0  0  0  0  0
   10.1182   -1.5672   23.1165 C   0  0  0  0  0  0  0  0  0  0  0  0
    1.0552   -9.6360   17.0650 C   0  0  0  0  0  0  0  0  0  0  0  0
    3.6519   -9.1783   16.9039 C   0  0  0  0  0  0  0  0  0  0  0  0
    7.8675   -7.0096   15.9415 C   0  0  0  0  0  0  0  0  0  0  0  0
    5.9733   -9.6553   17.3832 N   0  0  0  0  0  0  0  0  0  0  0  0
   10.2411   -2.9363   23.4301 C   0  0  0  0  0  0  0  0  0  0  0  0
   10.7288   -3.8197   19.9525 C   0  0  0  0  0  0  0  0  0  0  0  0
   10.1189   -5.0054   19.6987 C   0  0  0  0  0  0  0  0  0  0  0  0
  1  3  4  0
  1  7  4  0
  2 21  4  0
  2 27  4  0
  3  9  4  0
  3 10  4  0
  4  8  4  0
  4 18  4  0
  4 25  1  0
  5  9  4  0
  5 12  4  0
  6 13  1  0
  6 27  1  0
  7 28  4  0
  8 11  4  0
  9 29  4  0
 10 12  4  0
 11 24  1  0
 11 26  4  0
 12 25  1  0
 13 28  1  0
 14 20  4  0
 14 23  4  0
 15 17  4  0
 15 21  4  0
 16 19  4  0
 16 23  4  0
 17 22  4  0
 18 26  4  0
 19 24  4  0
 20 24  4  0
 22 27  4  0
 28 29  4  0
M  END
$$$$

 Created by Python create_sdf_string function

 29 33  0  0  0  0  0  0  0  0999 V2000
   10.7215   -3.3326   17.6437 C   0  0  0  0  0  0  0  0  0  0  0  0
    9.9489   -3.4675   24.6487 N   0  0  0  0  0  0  0  0  0  0  0  0
   10.0172   -4.4740   17.4101 C   0  0  0  0  0  0  0  0  0  0  0  0
    6.9051   -7.9575   16.4222 C   0  0  0  0  0  0  0  0  0  0  0  0
    8.9969   -6.3552   17.9668 N   0  0  0  0  0  0  0  0  0  0  0  0
   10.6702   -3.9051   22.4070 C   0  0  0  0  0  0  0  0  0  0  0  0
   11.0625   -3.0028   18.8894 C   0  0  0  0  0  0  0  0  0  0  0  0
    5.6180   -7.9194   16.1754 O   0  0  0  0  0  0  0  0  0  0  0  0
    9.7259   -5.3080   18.4485 C   0  0  0  0  0  0  0  0  0  0  0  0
    9.4578   -5.0200   16.3036 N   0  0  0  0  0  0  0  0  0  0  0  0
    5.0287   -8.9365   16.8223 C   0  0  0  0  0  0  0  0  0  0  0  0
    8.7742   -6.1498   16.6764 C   0  0  0  0  0  0  0  0  0  0  0  0
   10.9418   -3.4032   21.2053 O   0  0  0  0  0  0  0  0  0  0  0  0
    1.4797   -8.6258   16.2950 C   0  0  0  0  0  0  0  0  0  0  0  0
    9.2861   -1.2743   25.3585 C   0  0  0  0  0  0  0  0  0  0  0  0
    1.8892  -10.3985   17.7511 N   0  0  0  0  0  0  0  0  0  0  0  0
    9.6210   -0.6952   24.0976 C   0  0  0  0  0  0  0  0  0  0  0  0
    7.0792   -9.0217   17.1429 C   0  0  0  0  0  0  0  0  0  0  0  0
    3.1713  -10.1816   17.6634 C   0  0  0  0  0  0  0  0  0  0  0  0
    2.7878   -8.3822   16.2137 C   0  0  0  0  0  0  0  0  0  0  0  0
    9.4601   -2.6590   25.6528 C   0  0  0  0  0  0  0  0  0  0  0  0
   10.1182   -1.5672   23.1165 C   0  0  0  0  0  0  0  0  0  0  0  0
    1.0552   -9.6360   17.0650 C   0  0  0  0  0  0  0  0  0  0  0  0
    3.6519   -9.1783   16.9039 C   0  0  0  0  0  0  0  0  0  0  0  0
    7.8675   -7.0096   15.9415 C   0  0  0  0  0  0  0  0  0  0  0  0
    5.9733   -9.6553   17.3832 N   0  0  0  0  0  0  0  0  0  0  0  0
   10.2411   -2.9363   23.4301 C   0  0  0  0  0  0  0  0  0  0  0  0
   10.7288   -3.8197   19.9525 C   0  0  0  0  0  0  0  0  0  0  0  0
   10.1189   -5.0054   19.6987 C   0  0  0  0  0  0  0  0  0  0  0  0
  1  3  4  0
  1  7  4  0
  2 21  4  0
  2 27  4  0
  3  9  4  0
  3 10  4  0
  4  8  4  0
  4 18  4  0
  4 25  1  0
  5  9  4  0
  5 12  4  0
  6 13  1  0
  6 27  1  0
  7 28  4  0
  8 11  4  0
  9 29  4  0
 10 12  4  0
 11 24  1  0
 11 26  4  0
 12 25  1  0
 13 28  1  0
 14 20  4  0
 14 23  4  0
 15 17  4  0
 15 21  4  0
 16 19  4  0
 16 23  4  0
 17 22  4  0
 18 26  4  0
 19 24  4  0
 20 24  4  0
 22 27  4  0
 28 29  4  0
M  END
$$$$

 Created by Python create_sdf_string function

 29 33  0  0  0  0  0  0  0  0999 V2000
   10.7215   -3.3326   17.6437 C   0  0  0  0  0  0  0  0  0  0  0  0
    9.9489   -3.4675   24.6487 N   0  0  0  0  0  0  0  0  0  0  0  0
   10.0172   -4.4740   17.4101 C   0  0  0  0  0  0  0  0  0  0  0  0
    6.9051   -7.9575   16.4222 C   0  0  0  0  0  0  0  0  0  0  0  0
    8.9969   -6.3552   17.9668 N   0  0  0  0  0  0  0  0  0  0  0  0
   10.6702   -3.9051   22.4070 C   0  0  0  0  0  0  0  0  0  0  0  0
   11.0625   -3.0028   18.8894 C   0  0  0  0  0  0  0  0  0  0  0  0
    5.6180   -7.9194   16.1754 O   0  0  0  0  0  0  0  0  0  0  0  0
    9.7259   -5.3080   18.4485 C   0  0  0  0  0  0  0  0  0  0  0  0
    9.4578   -5.0200   16.3036 N   0  0  0  0  0  0  0  0  0  0  0  0
    5.0287   -8.9365   16.8223 C   0  0  0  0  0  0  0  0  0  0  0  0
    8.7742   -6.1498   16.6764 C   0  0  0  0  0  0  0  0  0  0  0  0
   10.9418   -3.4032   21.2053 O   0  0  0  0  0  0  0  0  0  0  0  0
    1.4797   -8.6258   16.2950 C   0  0  0  0  0  0  0  0  0  0  0  0
    9.2861   -1.2743   25.3585 C   0  0  0  0  0  0  0  0  0  0  0  0
    1.8892  -10.3985   17.7511 N   0  0  0  0  0  0  0  0  0  0  0  0
    9.6210   -0.6952   24.0976 C   0  0  0  0  0  0  0  0  0  0  0  0
    7.0792   -9.0217   17.1429 C   0  0  0  0  0  0  0  0  0  0  0  0
    3.1713  -10.1816   17.6634 C   0  0  0  0  0  0  0  0  0  0  0  0
    2.7878   -8.3822   16.2137 C   0  0  0  0  0  0  0  0  0  0  0  0
    9.4601   -2.6590   25.6528 C   0  0  0  0  0  0  0  0  0  0  0  0
   10.1182   -1.5672   23.1165 C   0  0  0  0  0  0  0  0  0  0  0  0
    1.0552   -9.6360   17.0650 C   0  0  0  0  0  0  0  0  0  0  0  0
    3.6519   -9.1783   16.9039 C   0  0  0  0  0  0  0  0  0  0  0  0
    7.8675   -7.0096   15.9415 C   0  0  0  0  0  0  0  0  0  0  0  0
    5.9733   -9.6553   17.3832 N   0  0  0  0  0  0  0  0  0  0  0  0
   10.2411   -2.9363   23.4301 C   0  0  0  0  0  0  0  0  0  0  0  0
   10.7288   -3.8197   19.9525 C   0  0  0  0  0  0  0  0  0  0  0  0
   10.1189   -5.0054   19.6987 C   0  0  0  0  0  0  0  0  0  0  0  0
  1  3  4  0
  1  7  4  0
  2 21  4  0
  2 27  4  0
  3  9  4  0
  3 10  4  0
  4  8  4  0
  4 18  4  0
  4 25  1  0
  5  9  4  0
  5 12  4  0
  6 13  1  0
  6 27  1  0
  7 28  4  0
  8 11  4  0
  9 29  4  0
 10 12  4  0
 11 24  1  0
 11 26  4  0
 12 25  1  0
 13 28  1  0
 14 20  4  0
 14 23  4  0
 15 17  4  0
 15 21  4  0
 16 19  4  0
 16 23  4  0
 17 22  4  0
 18 26  4  0
 19 24  4  0
 20 24  4  0
 22 27  4  0
 28 29  4  0
M  END
$$$$

 Created by Python create_sdf_string function

 29 33  0  0  0  0  0  0  0  0999 V2000
   10.7215   -3.3326   17.6437 C   0  0  0  0  0  0  0  0  0  0  0  0
    9.9489   -3.4675   24.6487 N   0  0  0  0  0  0  0  0  0  0  0  0
   10.0172   -4.4740   17.4101 C   0  0  0  0  0  0  0  0  0  0  0  0
    6.9051   -7.9575   16.4222 C   0  0  0  0  0  0  0  0  0  0  0  0
    8.9969   -6.3552   17.9668 N   0  0  0  0  0  0  0  0  0  0  0  0
   10.6702   -3.9051   22.4070 C   0  0  0  0  0  0  0  0  0  0  0  0
   11.0625   -3.0028   18.8894 C   0  0  0  0  0  0  0  0  0  0  0  0
    5.6180   -7.9194   16.1754 O   0  0  0  0  0  0  0  0  0  0  0  0
    9.7259   -5.3080   18.4485 C   0  0  0  0  0  0  0  0  0  0  0  0
    9.4578   -5.0200   16.3036 N   0  0  0  0  0  0  0  0  0  0  0  0
    5.0287   -8.9365   16.8223 C   0  0  0  0  0  0  0  0  0  0  0  0
    8.7742   -6.1498   16.6764 C   0  0  0  0  0  0  0  0  0  0  0  0
   10.9418   -3.4032   21.2053 O   0  0  0  0  0  0  0  0  0  0  0  0
    1.4797   -8.6258   16.2950 C   0  0  0  0  0  0  0  0  0  0  0  0
    9.2861   -1.2743   25.3585 C   0  0  0  0  0  0  0  0  0  0  0  0
    1.8892  -10.3985   17.7511 N   0  0  0  0  0  0  0  0  0  0  0  0
    9.6210   -0.6952   24.0976 C   0  0  0  0  0  0  0  0  0  0  0  0
    7.0792   -9.0217   17.1429 C   0  0  0  0  0  0  0  0  0  0  0  0
    3.1713  -10.1816   17.6634 C   0  0  0  0  0  0  0  0  0  0  0  0
    2.7878   -8.3822   16.2137 C   0  0  0  0  0  0  0  0  0  0  0  0
    9.4601   -2.6590   25.6528 C   0  0  0  0  0  0  0  0  0  0  0  0
   10.1182   -1.5672   23.1165 C   0  0  0  0  0  0  0  0  0  0  0  0
    1.0552   -9.6360   17.0650 C   0  0  0  0  0  0  0  0  0  0  0  0
    3.6519   -9.1783   16.9039 C   0  0  0  0  0  0  0  0  0  0  0  0
    7.8675   -7.0096   15.9415 C   0  0  0  0  0  0  0  0  0  0  0  0
    5.9733   -9.6553   17.3832 N   0  0  0  0  0  0  0  0  0  0  0  0
   10.2411   -2.9363   23.4301 C   0  0  0  0  0  0  0  0  0  0  0  0
   10.7288   -3.8197   19.9525 C   0  0  0  0  0  0  0  0  0  0  0  0
   10.1189   -5.0054   19.6987 C   0  0  0  0  0  0  0  0  0  0  0  0
  1  3  4  0
  1  7  4  0
  2 21  4  0
  2 27  4  0
  3  9  4  0
  3 10  4  0
  4  8  4  0
  4 18  4  0
  4 25  1  0
  5  9  4  0
  5 12  4  0
  6 13  1  0
  6 27  1  0
  7 28  4  0
  8 11  4  0
  9 29  4  0
 10 12  4  0
 11 24  1  0
 11 26  4  0
 12 25  1  0
 13 28  1  0
 14 20  4  0
 14 23  4  0
 15 17  4  0
 15 21  4  0
 16 19  4  0
 16 23  4  0
 17 22  4  0
 18 26  4  0
 19 24  4  0
 20 24  4  0
 22 27  4  0
 28 29  4  0
M  END
$$$$

 Created by Python create_sdf_string function

 29 33  0  0  0  0  0  0  0  0999 V2000
   10.7215   -3.3326   17.6437 C   0  0  0  0  0  0  0  0  0  0  0  0
    9.9489   -3.4675   24.6487 N   0  0  0  0  0  0  0  0  0  0  0  0
   10.0172   -4.4740   17.4101 C   0  0  0  0  0  0  0  0  0  0  0  0
    6.9051   -7.9575   16.4222 C   0  0  0  0  0  0  0  0  0  0  0  0
    8.9969   -6.3552   17.9668 N   0  0  0  0  0  0  0  0  0  0  0  0
   10.6702   -3.9051   22.4070 C   0  0  0  0  0  0  0  0  0  0  0  0
   11.0625   -3.0028   18.8894 C   0  0  0  0  0  0  0  0  0  0  0  0
    5.6180   -7.9194   16.1754 O   0  0  0  0  0  0  0  0  0  0  0  0
    9.7259   -5.3080   18.4485 C   0  0  0  0  0  0  0  0  0  0  0  0
    9.4578   -5.0200   16.3036 N   0  0  0  0  0  0  0  0  0  0  0  0
    5.0287   -8.9365   16.8223 C   0  0  0  0  0  0  0  0  0  0  0  0
    8.7742   -6.1498   16.6764 C   0  0  0  0  0  0  0  0  0  0  0  0
   10.9418   -3.4032   21.2053 O   0  0  0  0  0  0  0  0  0  0  0  0
    1.4797   -8.6258   16.2950 C   0  0  0  0  0  0  0  0  0  0  0  0
    9.2861   -1.2743   25.3585 C   0  0  0  0  0  0  0  0  0  0  0  0
    1.8892  -10.3985   17.7511 N   0  0  0  0  0  0  0  0  0  0  0  0
    9.6210   -0.6952   24.0976 C   0  0  0  0  0  0  0  0  0  0  0  0
    7.0792   -9.0217   17.1429 C   0  0  0  0  0  0  0  0  0  0  0  0
    3.1713  -10.1816   17.6634 C   0  0  0  0  0  0  0  0  0  0  0  0
    2.7878   -8.3822   16.2137 C   0  0  0  0  0  0  0  0  0  0  0  0
    9.4601   -2.6590   25.6528 C   0  0  0  0  0  0  0  0  0  0  0  0
   10.1182   -1.5672   23.1165 C   0  0  0  0  0  0  0  0  0  0  0  0
    1.0552   -9.6360   17.0650 C   0  0  0  0  0  0  0  0  0  0  0  0
    3.6519   -9.1783   16.9039 C   0  0  0  0  0  0  0  0  0  0  0  0
    7.8675   -7.0096   15.9415 C   0  0  0  0  0  0  0  0  0  0  0  0
    5.9733   -9.6553   17.3832 N   0  0  0  0  0  0  0  0  0  0  0  0
   10.2411   -2.9363   23.4301 C   0  0  0  0  0  0  0  0  0  0  0  0
   10.7288   -3.8197   19.9525 C   0  0  0  0  0  0  0  0  0  0  0  0
   10.1189   -5.0054   19.6987 C   0  0  0  0  0  0  0  0  0  0  0  0
  1  3  4  0
  1  7  4  0
  2 21  4  0
  2 27  4  0
  3  9  4  0
  3 10  4  0
  4  8  4  0
  4 18  4  0
  4 25  1  0
  5  9  4  0
  5 12  4  0
  6 13  1  0
  6 27  1  0
  7 28  4  0
  8 11  4  0
  9 29  4  0
 10 12  4  0
 11 24  1  0
 11 26  4  0
 12 25  1  0
 13 28  1  0
 14 20  4  0
 14 23  4  0
 15 17  4  0
 15 21  4  0
 16 19  4  0
 16 23  4  0
 17 22  4  0
 18 26  4  0
 19 24  4  0
 20 24  4  0
 22 27  4  0
 28 29  4  0
M  END
$$$$

 Created by Python create_sdf_string function

 29 33  0  0  0  0  0  0  0  0999 V2000
   10.7215   -3.3326   17.6437 C   0  0  0  0  0  0  0  0  0  0  0  0
    9.9489   -3.4675   24.6487 N   0  0  0  0  0  0  0  0  0  0  0  0
   10.0172   -4.4740   17.4101 C   0  0  0  0  0  0  0  0  0  0  0  0
    6.9051   -7.9575   16.4222 C   0  0  0  0  0  0  0  0  0  0  0  0
    8.9969   -6.3552   17.9668 N   0  0  0  0  0  0  0  0  0  0  0  0
   10.6702   -3.9051   22.4070 C   0  0  0  0  0  0  0  0  0  0  0  0
   11.0625   -3.0028   18.8894 C   0  0  0  0  0  0  0  0  0  0  0  0
    5.6180   -7.9194   16.1754 O   0  0  0  0  0  0  0  0  0  0  0  0
    9.7259   -5.3080   18.4485 C   0  0  0  0  0  0  0  0  0  0  0  0
    9.4578   -5.0200   16.3036 N   0  0  0  0  0  0  0  0  0  0  0  0
    5.0287   -8.9365   16.8223 C   0  0  0  0  0  0  0  0  0  0  0  0
    8.7742   -6.1498   16.6764 C   0  0  0  0  0  0  0  0  0  0  0  0
   10.9418   -3.4032   21.2053 O   0  0  0  0  0  0  0  0  0  0  0  0
    1.4797   -8.6258   16.2950 C   0  0  0  0  0  0  0  0  0  0  0  0
    9.2861   -1.2743   25.3585 C   0  0  0  0  0  0  0  0  0  0  0  0
    1.8892  -10.3985   17.7511 N   0  0  0  0  0  0  0  0  0  0  0  0
    9.6210   -0.6952   24.0976 C   0  0  0  0  0  0  0  0  0  0  0  0
    7.0792   -9.0217   17.1429 C   0  0  0  0  0  0  0  0  0  0  0  0
    3.1713  -10.1816   17.6634 C   0  0  0  0  0  0  0  0  0  0  0  0
    2.7878   -8.3822   16.2137 C   0  0  0  0  0  0  0  0  0  0  0  0
    9.4601   -2.6590   25.6528 C   0  0  0  0  0  0  0  0  0  0  0  0
   10.1182   -1.5672   23.1165 C   0  0  0  0  0  0  0  0  0  0  0  0
    1.0552   -9.6360   17.0650 C   0  0  0  0  0  0  0  0  0  0  0  0
    3.6519   -9.1783   16.9039 C   0  0  0  0  0  0  0  0  0  0  0  0
    7.8675   -7.0096   15.9415 C   0  0  0  0  0  0  0  0  0  0  0  0
    5.9733   -9.6553   17.3832 N   0  0  0  0  0  0  0  0  0  0  0  0
   10.2411   -2.9363   23.4301 C   0  0  0  0  0  0  0  0  0  0  0  0
   10.7288   -3.8197   19.9525 C   0  0  0  0  0  0  0  0  0  0  0  0
   10.1189   -5.0054   19.6987 C   0  0  0  0  0  0  0  0  0  0  0  0
  1  3  4  0
  1  7  4  0
  2 21  4  0
  2 27  4  0
  3  9  4  0
  3 10  4  0
  4  8  4  0
  4 18  4  0
  4 25  1  0
  5  9  4  0
  5 12  4  0
  6 13  1  0
  6 27  1  0
  7 28  4  0
  8 11  4  0
  9 29  4  0
 10 12  4  0
 11 24  1  0
 11 26  4  0
 12 25  1  0
 13 28  1  0
 14 20  4  0
 14 23  4  0
 15 17  4  0
 15 21  4  0
 16 19  4  0
 16 23  4  0
 17 22  4  0
 18 26  4  0
 19 24  4  0
 20 24  4  0
 22 27  4  0
 28 29  4  0
M  END
$$$$

 Created by Python create_sdf_string function

 29 33  0  0  0  0  0  0  0  0999 V2000
   10.7215   -3.3326   17.6437 C   0  0  0  0  0  0  0  0  0  0  0  0
    9.9489   -3.4675   24.6487 N   0  0  0  0  0  0  0  0  0  0  0  0
   10.0172   -4.4740   17.4101 C   0  0  0  0  0  0  0  0  0  0  0  0
    6.9051   -7.9575   16.4222 C   0  0  0  0  0  0  0  0  0  0  0  0
    8.9969   -6.3552   17.9668 N   0  0  0  0  0  0  0  0  0  0  0  0
   10.6702   -3.9051   22.4070 C   0  0  0  0  0  0  0  0  0  0  0  0
   11.0625   -3.0028   18.8894 C   0  0  0  0  0  0  0  0  0  0  0  0
    5.6180   -7.9194   16.1754 O   0  0  0  0  0  0  0  0  0  0  0  0
    9.7259   -5.3080   18.4485 C   0  0  0  0  0  0  0  0  0  0  0  0
    9.4578   -5.0200   16.3036 N   0  0  0  0  0  0  0  0  0  0  0  0
    5.0287   -8.9365   16.8223 C   0  0  0  0  0  0  0  0  0  0  0  0
    8.7742   -6.1498   16.6764 C   0  0  0  0  0  0  0  0  0  0  0  0
   10.9418   -3.4032   21.2053 O   0  0  0  0  0  0  0  0  0  0  0  0
    1.4797   -8.6258   16.2950 C   0  0  0  0  0  0  0  0  0  0  0  0
    9.2861   -1.2743   25.3585 C   0  0  0  0  0  0  0  0  0  0  0  0
    1.8892  -10.3985   17.7511 N   0  0  0  0  0  0  0  0  0  0  0  0
    9.6210   -0.6952   24.0976 C   0  0  0  0  0  0  0  0  0  0  0  0
    7.0792   -9.0217   17.1429 C   0  0  0  0  0  0  0  0  0  0  0  0
    3.1713  -10.1816   17.6634 C   0  0  0  0  0  0  0  0  0  0  0  0
    2.7878   -8.3822   16.2137 C   0  0  0  0  0  0  0  0  0  0  0  0
    9.4601   -2.6590   25.6528 C   0  0  0  0  0  0  0  0  0  0  0  0
   10.1182   -1.5672   23.1165 C   0  0  0  0  0  0  0  0  0  0  0  0
    1.0552   -9.6360   17.0650 C   0  0  0  0  0  0  0  0  0  0  0  0
    3.6519   -9.1783   16.9039 C   0  0  0  0  0  0  0  0  0  0  0  0
    7.8675   -7.0096   15.9415 C   0  0  0  0  0  0  0  0  0  0  0  0
    5.9733   -9.6553   17.3832 N   0  0  0  0  0  0  0  0  0  0  0  0
   10.2411   -2.9363   23.4301 C   0  0  0  0  0  0  0  0  0  0  0  0
   10.7288   -3.8197   19.9525 C   0  0  0  0  0  0  0  0  0  0  0  0
   10.1189   -5.0054   19.6987 C   0  0  0  0  0  0  0  0  0  0  0  0
  1  3  4  0
  1  7  4  0
  2 21  4  0
  2 27  4  0
  3  9  4  0
  3 10  4  0
  4  8  4  0
  4 18  4  0
  4 25  1  0
  5  9  4  0
  5 12  4  0
  6 13  1  0
  6 27  1  0
  7 28  4  0
  8 11  4  0
  9 29  4  0
 10 12  4  0
 11 24  1  0
 11 26  4  0
 12 25  1  0
 13 28  1  0
 14 20  4  0
 14 23  4  0
 15 17  4  0
 15 21  4  0
 16 19  4  0
 16 23  4  0
 17 22  4  0
 18 26  4  0
 19 24  4  0
 20 24  4  0
 22 27  4  0
 28 29  4  0
M  END
$$$$

 Created by Python create_sdf_string function

 29 33  0  0  0  0  0  0  0  0999 V2000
   10.7215   -3.3326   17.6437 C   0  0  0  0  0  0  0  0  0  0  0  0
    9.9489   -3.4675   24.6487 N   0  0  0  0  0  0  0  0  0  0  0  0
   10.0172   -4.4740   17.4101 C   0  0  0  0  0  0  0  0  0  0  0  0
    6.9051   -7.9575   16.4222 C   0  0  0  0  0  0  0  0  0  0  0  0
    8.9969   -6.3552   17.9668 N   0  0  0  0  0  0  0  0  0  0  0  0
   10.6702   -3.9051   22.4070 C   0  0  0  0  0  0  0  0  0  0  0  0
   11.0625   -3.0028   18.8894 C   0  0  0  0  0  0  0  0  0  0  0  0
    5.6180   -7.9194   16.1754 O   0  0  0  0  0  0  0  0  0  0  0  0
    9.7259   -5.3080   18.4485 C   0  0  0  0  0  0  0  0  0  0  0  0
    9.4578   -5.0200   16.3036 N   0  0  0  0  0  0  0  0  0  0  0  0
    5.0287   -8.9365   16.8223 C   0  0  0  0  0  0  0  0  0  0  0  0
    8.7742   -6.1498   16.6764 C   0  0  0  0  0  0  0  0  0  0  0  0
   10.9418   -3.4032   21.2053 O   0  0  0  0  0  0  0  0  0  0  0  0
    1.4797   -8.6258   16.2950 C   0  0  0  0  0  0  0  0  0  0  0  0
    9.2861   -1.2743   25.3585 C   0  0  0  0  0  0  0  0  0  0  0  0
    1.8892  -10.3985   17.7511 N   0  0  0  0  0  0  0  0  0  0  0  0
    9.6210   -0.6952   24.0976 C   0  0  0  0  0  0  0  0  0  0  0  0
    7.0792   -9.0217   17.1429 C   0  0  0  0  0  0  0  0  0  0  0  0
    3.1713  -10.1816   17.6634 C   0  0  0  0  0  0  0  0  0  0  0  0
    2.7878   -8.3822   16.2137 C   0  0  0  0  0  0  0  0  0  0  0  0
    9.4601   -2.6590   25.6528 C   0  0  0  0  0  0  0  0  0  0  0  0
   10.1182   -1.5672   23.1165 C   0  0  0  0  0  0  0  0  0  0  0  0
    1.0552   -9.6360   17.0650 C   0  0  0  0  0  0  0  0  0  0  0  0
    3.6519   -9.1783   16.9039 C   0  0  0  0  0  0  0  0  0  0  0  0
    7.8675   -7.0096   15.9415 C   0  0  0  0  0  0  0  0  0  0  0  0
    5.9733   -9.6553   17.3832 N   0  0  0  0  0  0  0  0  0  0  0  0
   10.2411   -2.9363   23.4301 C   0  0  0  0  0  0  0  0  0  0  0  0
   10.7288   -3.8197   19.9525 C   0  0  0  0  0  0  0  0  0  0  0  0
   10.1189   -5.0054   19.6987 C   0  0  0  0  0  0  0  0  0  0  0  0
  1  3  4  0
  1  7  4  0
  2 21  4  0
  2 27  4  0
  3  9  4  0
  3 10  4  0
  4  8  4  0
  4 18  4  0
  4 25  1  0
  5  9  4  0
  5 12  4  0
  6 13  1  0
  6 27  1  0
  7 28  4  0
  8 11  4  0
  9 29  4  0
 10 12  4  0
 11 24  1  0
 11 26  4  0
 12 25  1  0
 13 28  1  0
 14 20  4  0
 14 23  4  0
 15 17  4  0
 15 21  4  0
 16 19  4  0
 16 23  4  0
 17 22  4  0
 18 26  4  0
 19 24  4  0
 20 24  4  0
 22 27  4  0
 28 29  4  0
M  END
$$$$

 Created by Python create_sdf_string function

 29 33  0  0  0  0  0  0  0  0999 V2000
   10.7215   -3.3326   17.6437 C   0  0  0  0  0  0  0  0  0  0  0  0
    9.9489   -3.4675   24.6487 N   0  0  0  0  0  0  0  0  0  0  0  0
   10.0172   -4.4740   17.4101 C   0  0  0  0  0  0  0  0  0  0  0  0
    6.9051   -7.9575   16.4222 C   0  0  0  0  0  0  0  0  0  0  0  0
    8.9969   -6.3552   17.9668 N   0  0  0  0  0  0  0  0  0  0  0  0
   10.6702   -3.9051   22.4070 C   0  0  0  0  0  0  0  0  0  0  0  0
   11.0625   -3.0028   18.8894 C   0  0  0  0  0  0  0  0  0  0  0  0
    5.6180   -7.9194   16.1754 O   0  0  0  0  0  0  0  0  0  0  0  0
    9.7259   -5.3080   18.4485 C   0  0  0  0  0  0  0  0  0  0  0  0
    9.4578   -5.0200   16.3036 N   0  0  0  0  0  0  0  0  0  0  0  0
    5.0287   -8.9365   16.8223 C   0  0  0  0  0  0  0  0  0  0  0  0
    8.7742   -6.1498   16.6764 C   0  0  0  0  0  0  0  0  0  0  0  0
   10.9418   -3.4032   21.2053 O   0  0  0  0  0  0  0  0  0  0  0  0
    1.4797   -8.6258   16.2950 C   0  0  0  0  0  0  0  0  0  0  0  0
    9.2861   -1.2743   25.3585 C   0  0  0  0  0  0  0  0  0  0  0  0
    1.8892  -10.3985   17.7511 N   0  0  0  0  0  0  0  0  0  0  0  0
    9.6210   -0.6952   24.0976 C   0  0  0  0  0  0  0  0  0  0  0  0
    7.0792   -9.0217   17.1429 C   0  0  0  0  0  0  0  0  0  0  0  0
    3.1713  -10.1816   17.6634 C   0  0  0  0  0  0  0  0  0  0  0  0
    2.7878   -8.3822   16.2137 C   0  0  0  0  0  0  0  0  0  0  0  0
    9.4601   -2.6590   25.6528 C   0  0  0  0  0  0  0  0  0  0  0  0
   10.1182   -1.5672   23.1165 C   0  0  0  0  0  0  0  0  0  0  0  0
    1.0552   -9.6360   17.0650 C   0  0  0  0  0  0  0  0  0  0  0  0
    3.6519   -9.1783   16.9039 C   0  0  0  0  0  0  0  0  0  0  0  0
    7.8675   -7.0096   15.9415 C   0  0  0  0  0  0  0  0  0  0  0  0
    5.9733   -9.6553   17.3832 N   0  0  0  0  0  0  0  0  0  0  0  0
   10.2411   -2.9363   23.4301 C   0  0  0  0  0  0  0  0  0  0  0  0
   10.7288   -3.8197   19.9525 C   0  0  0  0  0  0  0  0  0  0  0  0
   10.1189   -5.0054   19.6987 C   0  0  0  0  0  0  0  0  0  0  0  0
  1  3  4  0
  1  7  4  0
  2 21  4  0
  2 27  4  0
  3  9  4  0
  3 10  4  0
  4  8  4  0
  4 18  4  0
  4 25  1  0
  5  9  4  0
  5 12  4  0
  6 13  1  0
  6 27  1  0
  7 28  4  0
  8 11  4  0
  9 29  4  0
 10 12  4  0
 11 24  1  0
 11 26  4  0
 12 25  1  0
 13 28  1  0
 14 20  4  0
 14 23  4  0
 15 17  4  0
 15 21  4  0
 16 19  4  0
 16 23  4  0
 17 22  4  0
 18 26  4  0
 19 24  4  0
 20 24  4  0
 22 27  4  0
 28 29  4  0
M  END
$$$$

 Created by Python create_sdf_string function

 29 33  0  0  0  0  0  0  0  0999 V2000
   10.7215   -3.3326   17.6437 C   0  0  0  0  0  0  0  0  0  0  0  0
    9.9489   -3.4675   24.6487 N   0  0  0  0  0  0  0  0  0  0  0  0
   10.0172   -4.4740   17.4101 C   0  0  0  0  0  0  0  0  0  0  0  0
    6.9051   -7.9575   16.4222 C   0  0  0  0  0  0  0  0  0  0  0  0
    8.9969   -6.3552   17.9668 N   0  0  0  0  0  0  0  0  0  0  0  0
   10.6702   -3.9051   22.4070 C   0  0  0  0  0  0  0  0  0  0  0  0
   11.0625   -3.0028   18.8894 C   0  0  0  0  0  0  0  0  0  0  0  0
    5.6180   -7.9194   16.1754 O   0  0  0  0  0  0  0  0  0  0  0  0
    9.7259   -5.3080   18.4485 C   0  0  0  0  0  0  0  0  0  0  0  0
    9.4578   -5.0200   16.3036 N   0  0  0  0  0  0  0  0  0  0  0  0
    5.0287   -8.9365   16.8223 C   0  0  0  0  0  0  0  0  0  0  0  0
    8.7742   -6.1498   16.6764 C   0  0  0  0  0  0  0  0  0  0  0  0
   10.9418   -3.4032   21.2053 O   0  0  0  0  0  0  0  0  0  0  0  0
    1.4797   -8.6258   16.2950 C   0  0  0  0  0  0  0  0  0  0  0  0
    9.2861   -1.2743   25.3585 C   0  0  0  0  0  0  0  0  0  0  0  0
    1.8892  -10.3985   17.7511 N   0  0  0  0  0  0  0  0  0  0  0  0
    9.6210   -0.6952   24.0976 C   0  0  0  0  0  0  0  0  0  0  0  0
    7.0792   -9.0217   17.1429 C   0  0  0  0  0  0  0  0  0  0  0  0
    3.1713  -10.1816   17.6634 C   0  0  0  0  0  0  0  0  0  0  0  0
    2.7878   -8.3822   16.2137 C   0  0  0  0  0  0  0  0  0  0  0  0
    9.4601   -2.6590   25.6528 C   0  0  0  0  0  0  0  0  0  0  0  0
   10.1182   -1.5672   23.1165 C   0  0  0  0  0  0  0  0  0  0  0  0
    1.0552   -9.6360   17.0650 C   0  0  0  0  0  0  0  0  0  0  0  0
    3.6519   -9.1783   16.9039 C   0  0  0  0  0  0  0  0  0  0  0  0
    7.8675   -7.0096   15.9415 C   0  0  0  0  0  0  0  0  0  0  0  0
    5.9733   -9.6553   17.3832 N   0  0  0  0  0  0  0  0  0  0  0  0
   10.2411   -2.9363   23.4301 C   0  0  0  0  0  0  0  0  0  0  0  0
   10.7288   -3.8197   19.9525 C   0  0  0  0  0  0  0  0  0  0  0  0
   10.1189   -5.0054   19.6987 C   0  0  0  0  0  0  0  0  0  0  0  0
  1  3  4  0
  1  7  4  0
  2 21  4  0
  2 27  4  0
  3  9  4  0
  3 10  4  0
  4  8  4  0
  4 18  4  0
  4 25  1  0
  5  9  4  0
  5 12  4  0
  6 13  1  0
  6 27  1  0
  7 28  4  0
  8 11  4  0
  9 29  4  0
 10 12  4  0
 11 24  1  0
 11 26  4  0
 12 25  1  0
 13 28  1  0
 14 20  4  0
 14 23  4  0
 15 17  4  0
 15 21  4  0
 16 19  4  0
 16 23  4  0
 17 22  4  0
 18 26  4  0
 19 24  4  0
 20 24  4  0
 22 27  4  0
 28 29  4  0
M  END
$$$$

 Created by Python create_sdf_string function

 29 33  0  0  0  0  0  0  0  0999 V2000
   10.7215   -3.3326   17.6437 C   0  0  0  0  0  0  0  0  0  0  0  0
    9.9489   -3.4675   24.6487 N   0  0  0  0  0  0  0  0  0  0  0  0
   10.0172   -4.4740   17.4101 C   0  0  0  0  0  0  0  0  0  0  0  0
    6.9051   -7.9575   16.4222 C   0  0  0  0  0  0  0  0  0  0  0  0
    8.9969   -6.3552   17.9668 N   0  0  0  0  0  0  0  0  0  0  0  0
   10.6702   -3.9051   22.4070 C   0  0  0  0  0  0  0  0  0  0  0  0
   11.0625   -3.0028   18.8894 C   0  0  0  0  0  0  0  0  0  0  0  0
    5.6180   -7.9194   16.1754 O   0  0  0  0  0  0  0  0  0  0  0  0
    9.7259   -5.3080   18.4485 C   0  0  0  0  0  0  0  0  0  0  0  0
    9.4578   -5.0200   16.3036 N   0  0  0  0  0  0  0  0  0  0  0  0
    5.0287   -8.9365   16.8223 C   0  0  0  0  0  0  0  0  0  0  0  0
    8.7742   -6.1498   16.6764 C   0  0  0  0  0  0  0  0  0  0  0  0
   10.9418   -3.4032   21.2053 O   0  0  0  0  0  0  0  0  0  0  0  0
    1.4797   -8.6258   16.2950 C   0  0  0  0  0  0  0  0  0  0  0  0
    9.2861   -1.2743   25.3585 C   0  0  0  0  0  0  0  0  0  0  0  0
    1.8892  -10.3985   17.7511 N   0  0  0  0  0  0  0  0  0  0  0  0
    9.6210   -0.6952   24.0976 C   0  0  0  0  0  0  0  0  0  0  0  0
    7.0792   -9.0217   17.1429 C   0  0  0  0  0  0  0  0  0  0  0  0
    3.1713  -10.1816   17.6634 C   0  0  0  0  0  0  0  0  0  0  0  0
    2.7878   -8.3822   16.2137 C   0  0  0  0  0  0  0  0  0  0  0  0
    9.4601   -2.6590   25.6528 C   0  0  0  0  0  0  0  0  0  0  0  0
   10.1182   -1.5672   23.1165 C   0  0  0  0  0  0  0  0  0  0  0  0
    1.0552   -9.6360   17.0650 C   0  0  0  0  0  0  0  0  0  0  0  0
    3.6519   -9.1783   16.9039 C   0  0  0  0  0  0  0  0  0  0  0  0
    7.8675   -7.0096   15.9415 C   0  0  0  0  0  0  0  0  0  0  0  0
    5.9733   -9.6553   17.3832 N   0  0  0  0  0  0  0  0  0  0  0  0
   10.2411   -2.9363   23.4301 C   0  0  0  0  0  0  0  0  0  0  0  0
   10.7288   -3.8197   19.9525 C   0  0  0  0  0  0  0  0  0  0  0  0
   10.1189   -5.0054   19.6987 C   0  0  0  0  0  0  0  0  0  0  0  0
  1  3  4  0
  1  7  4  0
  2 21  4  0
  2 27  4  0
  3  9  4  0
  3 10  4  0
  4  8  4  0
  4 18  4  0
  4 25  1  0
  5  9  4  0
  5 12  4  0
  6 13  1  0
  6 27  1  0
  7 28  4  0
  8 11  4  0
  9 29  4  0
 10 12  4  0
 11 24  1  0
 11 26  4  0
 12 25  1  0
 13 28  1  0
 14 20  4  0
 14 23  4  0
 15 17  4  0
 15 21  4  0
 16 19  4  0
 16 23  4  0
 17 22  4  0
 18 26  4  0
 19 24  4  0
 20 24  4  0
 22 27  4  0
 28 29  4  0
M  END
$$$$

 Created by Python create_sdf_string function

 29 33  0  0  0  0  0  0  0  0999 V2000
   10.7215   -3.3326   17.6437 C   0  0  0  0  0  0  0  0  0  0  0  0
    9.9489   -3.4675   24.6487 N   0  0  0  0  0  0  0  0  0  0  0  0
   10.0172   -4.4740   17.4101 C   0  0  0  0  0  0  0  0  0  0  0  0
    6.9051   -7.9575   16.4222 C   0  0  0  0  0  0  0  0  0  0  0  0
    8.9969   -6.3552   17.9668 N   0  0  0  0  0  0  0  0  0  0  0  0
   10.6702   -3.9051   22.4070 C   0  0  0  0  0  0  0  0  0  0  0  0
   11.0625   -3.0028   18.8894 C   0  0  0  0  0  0  0  0  0  0  0  0
    5.6180   -7.9194   16.1754 O   0  0  0  0  0  0  0  0  0  0  0  0
    9.7259   -5.3080   18.4485 C   0  0  0  0  0  0  0  0  0  0  0  0
    9.4578   -5.0200   16.3036 N   0  0  0  0  0  0  0  0  0  0  0  0
    5.0287   -8.9365   16.8223 C   0  0  0  0  0  0  0  0  0  0  0  0
    8.7742   -6.1498   16.6764 C   0  0  0  0  0  0  0  0  0  0  0  0
   10.9418   -3.4032   21.2053 O   0  0  0  0  0  0  0  0  0  0  0  0
    1.4797   -8.6258   16.2950 C   0  0  0  0  0  0  0  0  0  0  0  0
    9.2861   -1.2743   25.3585 C   0  0  0  0  0  0  0  0  0  0  0  0
    1.8892  -10.3985   17.7511 N   0  0  0  0  0  0  0  0  0  0  0  0
    9.6210   -0.6952   24.0976 C   0  0  0  0  0  0  0  0  0  0  0  0
    7.0792   -9.0217   17.1429 C   0  0  0  0  0  0  0  0  0  0  0  0
    3.1713  -10.1816   17.6634 C   0  0  0  0  0  0  0  0  0  0  0  0
    2.7878   -8.3822   16.2137 C   0  0  0  0  0  0  0  0  0  0  0  0
    9.4601   -2.6590   25.6528 C   0  0  0  0  0  0  0  0  0  0  0  0
   10.1182   -1.5672   23.1165 C   0  0  0  0  0  0  0  0  0  0  0  0
    1.0552   -9.6360   17.0650 C   0  0  0  0  0  0  0  0  0  0  0  0
    3.6519   -9.1783   16.9039 C   0  0  0  0  0  0  0  0  0  0  0  0
    7.8675   -7.0096   15.9415 C   0  0  0  0  0  0  0  0  0  0  0  0
    5.9733   -9.6553   17.3832 N   0  0  0  0  0  0  0  0  0  0  0  0
   10.2411   -2.9363   23.4301 C   0  0  0  0  0  0  0  0  0  0  0  0
   10.7288   -3.8197   19.9525 C   0  0  0  0  0  0  0  0  0  0  0  0
   10.1189   -5.0054   19.6987 C   0  0  0  0  0  0  0  0  0  0  0  0
  1  3  4  0
  1  7  4  0
  2 21  4  0
  2 27  4  0
  3  9  4  0
  3 10  4  0
  4  8  4  0
  4 18  4  0
  4 25  1  0
  5  9  4  0
  5 12  4  0
  6 13  1  0
  6 27  1  0
  7 28  4  0
  8 11  4  0
  9 29  4  0
 10 12  4  0
 11 24  1  0
 11 26  4  0
 12 25  1  0
 13 28  1  0
 14 20  4  0
 14 23  4  0
 15 17  4  0
 15 21  4  0
 16 19  4  0
 16 23  4  0
 17 22  4  0
 18 26  4  0
 19 24  4  0
 20 24  4  0
 22 27  4  0
 28 29  4  0
M  END
$$$$

 Created by Python create_sdf_string function

 29 33  0  0  0  0  0  0  0  0999 V2000
   10.7215   -3.3326   17.6437 C   0  0  0  0  0  0  0  0  0  0  0  0
    9.9489   -3.4675   24.6487 N   0  0  0  0  0  0  0  0  0  0  0  0
   10.0172   -4.4740   17.4101 C   0  0  0  0  0  0  0  0  0  0  0  0
    6.9051   -7.9575   16.4222 C   0  0  0  0  0  0  0  0  0  0  0  0
    8.9969   -6.3552   17.9668 N   0  0  0  0  0  0  0  0  0  0  0  0
   10.6702   -3.9051   22.4070 C   0  0  0  0  0  0  0  0  0  0  0  0
   11.0625   -3.0028   18.8894 C   0  0  0  0  0  0  0  0  0  0  0  0
    5.6180   -7.9194   16.1754 O   0  0  0  0  0  0  0  0  0  0  0  0
    9.7259   -5.3080   18.4485 C   0  0  0  0  0  0  0  0  0  0  0  0
    9.4578   -5.0200   16.3036 N   0  0  0  0  0  0  0  0  0  0  0  0
    5.0287   -8.9365   16.8223 C   0  0  0  0  0  0  0  0  0  0  0  0
    8.7742   -6.1498   16.6764 C   0  0  0  0  0  0  0  0  0  0  0  0
   10.9418   -3.4032   21.2053 O   0  0  0  0  0  0  0  0  0  0  0  0
    1.4797   -8.6258   16.2950 C   0  0  0  0  0  0  0  0  0  0  0  0
    9.2861   -1.2743   25.3585 C   0  0  0  0  0  0  0  0  0  0  0  0
    1.8892  -10.3985   17.7511 N   0  0  0  0  0  0  0  0  0  0  0  0
    9.6210   -0.6952   24.0976 C   0  0  0  0  0  0  0  0  0  0  0  0
    7.0792   -9.0217   17.1429 C   0  0  0  0  0  0  0  0  0  0  0  0
    3.1713  -10.1816   17.6634 C   0  0  0  0  0  0  0  0  0  0  0  0
    2.7878   -8.3822   16.2137 C   0  0  0  0  0  0  0  0  0  0  0  0
    9.4601   -2.6590   25.6528 C   0  0  0  0  0  0  0  0  0  0  0  0
   10.1182   -1.5672   23.1165 C   0  0  0  0  0  0  0  0  0  0  0  0
    1.0552   -9.6360   17.0650 C   0  0  0  0  0  0  0  0  0  0  0  0
    3.6519   -9.1783   16.9039 C   0  0  0  0  0  0  0  0  0  0  0  0
    7.8675   -7.0096   15.9415 C   0  0  0  0  0  0  0  0  0  0  0  0
    5.9733   -9.6553   17.3832 N   0  0  0  0  0  0  0  0  0  0  0  0
   10.2411   -2.9363   23.4301 C   0  0  0  0  0  0  0  0  0  0  0  0
   10.7288   -3.8197   19.9525 C   0  0  0  0  0  0  0  0  0  0  0  0
   10.1189   -5.0054   19.6987 C   0  0  0  0  0  0  0  0  0  0  0  0
  1  3  4  0
  1  7  4  0
  2 21  4  0
  2 27  4  0
  3  9  4  0
  3 10  4  0
  4  8  4  0
  4 18  4  0
  4 25  1  0
  5  9  4  0
  5 12  4  0
  6 13  1  0
  6 27  1  0
  7 28  4  0
  8 11  4  0
  9 29  4  0
 10 12  4  0
 11 24  1  0
 11 26  4  0
 12 25  1  0
 13 28  1  0
 14 20  4  0
 14 23  4  0
 15 17  4  0
 15 21  4  0
 16 19  4  0
 16 23  4  0
 17 22  4  0
 18 26  4  0
 19 24  4  0
 20 24  4  0
 22 27  4  0
 28 29  4  0
M  END
$$$$

 Created by Python create_sdf_string function

 29 33  0  0  0  0  0  0  0  0999 V2000
   10.7215   -3.3326   17.6437 C   0  0  0  0  0  0  0  0  0  0  0  0
    9.9489   -3.4675   24.6487 N   0  0  0  0  0  0  0  0  0  0  0  0
   10.0172   -4.4740   17.4101 C   0  0  0  0  0  0  0  0  0  0  0  0
    6.9051   -7.9575   16.4222 C   0  0  0  0  0  0  0  0  0  0  0  0
    8.9969   -6.3552   17.9668 N   0  0  0  0  0  0  0  0  0  0  0  0
   10.6702   -3.9051   22.4070 C   0  0  0  0  0  0  0  0  0  0  0  0
   11.0625   -3.0028   18.8894 C   0  0  0  0  0  0  0  0  0  0  0  0
    5.6180   -7.9194   16.1754 O   0  0  0  0  0  0  0  0  0  0  0  0
    9.7259   -5.3080   18.4485 C   0  0  0  0  0  0  0  0  0  0  0  0
    9.4578   -5.0200   16.3036 N   0  0  0  0  0  0  0  0  0  0  0  0
    5.0287   -8.9365   16.8223 C   0  0  0  0  0  0  0  0  0  0  0  0
    8.7742   -6.1498   16.6764 C   0  0  0  0  0  0  0  0  0  0  0  0
   10.9418   -3.4032   21.2053 O   0  0  0  0  0  0  0  0  0  0  0  0
    1.4797   -8.6258   16.2950 C   0  0  0  0  0  0  0  0  0  0  0  0
    9.2861   -1.2743   25.3585 C   0  0  0  0  0  0  0  0  0  0  0  0
    1.8892  -10.3985   17.7511 N   0  0  0  0  0  0  0  0  0  0  0  0
    9.6210   -0.6952   24.0976 C   0  0  0  0  0  0  0  0  0  0  0  0
    7.0792   -9.0217   17.1429 C   0  0  0  0  0  0  0  0  0  0  0  0
    3.1713  -10.1816   17.6634 C   0  0  0  0  0  0  0  0  0  0  0  0
    2.7878   -8.3822   16.2137 C   0  0  0  0  0  0  0  0  0  0  0  0
    9.4601   -2.6590   25.6528 C   0  0  0  0  0  0  0  0  0  0  0  0
   10.1182   -1.5672   23.1165 C   0  0  0  0  0  0  0  0  0  0  0  0
    1.0552   -9.6360   17.0650 C   0  0  0  0  0  0  0  0  0  0  0  0
    3.6519   -9.1783   16.9039 C   0  0  0  0  0  0  0  0  0  0  0  0
    7.8675   -7.0096   15.9415 C   0  0  0  0  0  0  0  0  0  0  0  0
    5.9733   -9.6553   17.3832 N   0  0  0  0  0  0  0  0  0  0  0  0
   10.2411   -2.9363   23.4301 C   0  0  0  0  0  0  0  0  0  0  0  0
   10.7288   -3.8197   19.9525 C   0  0  0  0  0  0  0  0  0  0  0  0
   10.1189   -5.0054   19.6987 C   0  0  0  0  0  0  0  0  0  0  0  0
  1  3  4  0
  1  7  4  0
  2 21  4  0
  2 27  4  0
  3  9  4  0
  3 10  4  0
  4  8  4  0
  4 18  4  0
  4 25  1  0
  5  9  4  0
  5 12  4  0
  6 13  1  0
  6 27  1  0
  7 28  4  0
  8 11  4  0
  9 29  4  0
 10 12  4  0
 11 24  1  0
 11 26  4  0
 12 25  1  0
 13 28  1  0
 14 20  4  0
 14 23  4  0
 15 17  4  0
 15 21  4  0
 16 19  4  0
 16 23  4  0
 17 22  4  0
 18 26  4  0
 19 24  4  0
 20 24  4  0
 22 27  4  0
 28 29  4  0
M  END
$$$$

 Created by Python create_sdf_string function

 29 33  0  0  0  0  0  0  0  0999 V2000
   10.7215   -3.3326   17.6437 C   0  0  0  0  0  0  0  0  0  0  0  0
    9.9489   -3.4675   24.6487 N   0  0  0  0  0  0  0  0  0  0  0  0
   10.0172   -4.4740   17.4101 C   0  0  0  0  0  0  0  0  0  0  0  0
    6.9051   -7.9575   16.4222 C   0  0  0  0  0  0  0  0  0  0  0  0
    8.9969   -6.3552   17.9668 N   0  0  0  0  0  0  0  0  0  0  0  0
   10.6702   -3.9051   22.4070 C   0  0  0  0  0  0  0  0  0  0  0  0
   11.0625   -3.0028   18.8894 C   0  0  0  0  0  0  0  0  0  0  0  0
    5.6180   -7.9194   16.1754 O   0  0  0  0  0  0  0  0  0  0  0  0
    9.7259   -5.3080   18.4485 C   0  0  0  0  0  0  0  0  0  0  0  0
    9.4578   -5.0200   16.3036 N   0  0  0  0  0  0  0  0  0  0  0  0
    5.0287   -8.9365   16.8223 C   0  0  0  0  0  0  0  0  0  0  0  0
    8.7742   -6.1498   16.6764 C   0  0  0  0  0  0  0  0  0  0  0  0
   10.9418   -3.4032   21.2053 O   0  0  0  0  0  0  0  0  0  0  0  0
    1.4797   -8.6258   16.2950 C   0  0  0  0  0  0  0  0  0  0  0  0
    9.2861   -1.2743   25.3585 C   0  0  0  0  0  0  0  0  0  0  0  0
    1.8892  -10.3985   17.7511 N   0  0  0  0  0  0  0  0  0  0  0  0
    9.6210   -0.6952   24.0976 C   0  0  0  0  0  0  0  0  0  0  0  0
    7.0792   -9.0217   17.1429 C   0  0  0  0  0  0  0  0  0  0  0  0
    3.1713  -10.1816   17.6634 C   0  0  0  0  0  0  0  0  0  0  0  0
    2.7878   -8.3822   16.2137 C   0  0  0  0  0  0  0  0  0  0  0  0
    9.4601   -2.6590   25.6528 C   0  0  0  0  0  0  0  0  0  0  0  0
   10.1182   -1.5672   23.1165 C   0  0  0  0  0  0  0  0  0  0  0  0
    1.0552   -9.6360   17.0650 C   0  0  0  0  0  0  0  0  0  0  0  0
    3.6519   -9.1783   16.9039 C   0  0  0  0  0  0  0  0  0  0  0  0
    7.8675   -7.0096   15.9415 C   0  0  0  0  0  0  0  0  0  0  0  0
    5.9733   -9.6553   17.3832 N   0  0  0  0  0  0  0  0  0  0  0  0
   10.2411   -2.9363   23.4301 C   0  0  0  0  0  0  0  0  0  0  0  0
   10.7288   -3.8197   19.9525 C   0  0  0  0  0  0  0  0  0  0  0  0
   10.1189   -5.0054   19.6987 C   0  0  0  0  0  0  0  0  0  0  0  0
  1  3  4  0
  1  7  4  0
  2 21  4  0
  2 27  4  0
  3  9  4  0
  3 10  4  0
  4  8  4  0
  4 18  4  0
  4 25  1  0
  5  9  4  0
  5 12  4  0
  6 13  1  0
  6 27  1  0
  7 28  4  0
  8 11  4  0
  9 29  4  0
 10 12  4  0
 11 24  1  0
 11 26  4  0
 12 25  1  0
 13 28  1  0
 14 20  4  0
 14 23  4  0
 15 17  4  0
 15 21  4  0
 16 19  4  0
 16 23  4  0
 17 22  4  0
 18 26  4  0
 19 24  4  0
 20 24  4  0
 22 27  4  0
 28 29  4  0
M  END
$$$$

 Created by Python create_sdf_string function

 29 33  0  0  0  0  0  0  0  0999 V2000
   10.7215   -3.3326   17.6437 C   0  0  0  0  0  0  0  0  0  0  0  0
    9.9489   -3.4675   24.6487 N   0  0  0  0  0  0  0  0  0  0  0  0
   10.0172   -4.4740   17.4101 C   0  0  0  0  0  0  0  0  0  0  0  0
    6.9051   -7.9575   16.4222 C   0  0  0  0  0  0  0  0  0  0  0  0
    8.9969   -6.3552   17.9668 N   0  0  0  0  0  0  0  0  0  0  0  0
   10.6702   -3.9051   22.4070 C   0  0  0  0  0  0  0  0  0  0  0  0
   11.0625   -3.0028   18.8894 C   0  0  0  0  0  0  0  0  0  0  0  0
    5.6180   -7.9194   16.1754 O   0  0  0  0  0  0  0  0  0  0  0  0
    9.7259   -5.3080   18.4485 C   0  0  0  0  0  0  0  0  0  0  0  0
    9.4578   -5.0200   16.3036 N   0  0  0  0  0  0  0  0  0  0  0  0
    5.0287   -8.9365   16.8223 C   0  0  0  0  0  0  0  0  0  0  0  0
    8.7742   -6.1498   16.6764 C   0  0  0  0  0  0  0  0  0  0  0  0
   10.9418   -3.4032   21.2053 O   0  0  0  0  0  0  0  0  0  0  0  0
    1.4797   -8.6258   16.2950 C   0  0  0  0  0  0  0  0  0  0  0  0
    9.2861   -1.2743   25.3585 C   0  0  0  0  0  0  0  0  0  0  0  0
    1.8892  -10.3985   17.7511 N   0  0  0  0  0  0  0  0  0  0  0  0
    9.6210   -0.6952   24.0976 C   0  0  0  0  0  0  0  0  0  0  0  0
    7.0792   -9.0217   17.1429 C   0  0  0  0  0  0  0  0  0  0  0  0
    3.1713  -10.1816   17.6634 C   0  0  0  0  0  0  0  0  0  0  0  0
    2.7878   -8.3822   16.2137 C   0  0  0  0  0  0  0  0  0  0  0  0
    9.4601   -2.6590   25.6528 C   0  0  0  0  0  0  0  0  0  0  0  0
   10.1182   -1.5672   23.1165 C   0  0  0  0  0  0  0  0  0  0  0  0
    1.0552   -9.6360   17.0650 C   0  0  0  0  0  0  0  0  0  0  0  0
    3.6519   -9.1783   16.9039 C   0  0  0  0  0  0  0  0  0  0  0  0
    7.8675   -7.0096   15.9415 C   0  0  0  0  0  0  0  0  0  0  0  0
    5.9733   -9.6553   17.3832 N   0  0  0  0  0  0  0  0  0  0  0  0
   10.2411   -2.9363   23.4301 C   0  0  0  0  0  0  0  0  0  0  0  0
   10.7288   -3.8197   19.9525 C   0  0  0  0  0  0  0  0  0  0  0  0
   10.1189   -5.0054   19.6987 C   0  0  0  0  0  0  0  0  0  0  0  0
  1  3  4  0
  1  7  4  0
  2 21  4  0
  2 27  4  0
  3  9  4  0
  3 10  4  0
  4  8  4  0
  4 18  4  0
  4 25  1  0
  5  9  4  0
  5 12  4  0
  6 13  1  0
  6 27  1  0
  7 28  4  0
  8 11  4  0
  9 29  4  0
 10 12  4  0
 11 24  1  0
 11 26  4  0
 12 25  1  0
 13 28  1  0
 14 20  4  0
 14 23  4  0
 15 17  4  0
 15 21  4  0
 16 19  4  0
 16 23  4  0
 17 22  4  0
 18 26  4  0
 19 24  4  0
 20 24  4  0
 22 27  4  0
 28 29  4  0
M  END
$$$$

 Created by Python create_sdf_string function

 29 33  0  0  0  0  0  0  0  0999 V2000
   10.7215   -3.3326   17.6437 C   0  0  0  0  0  0  0  0  0  0  0  0
    9.9489   -3.4675   24.6487 N   0  0  0  0  0  0  0  0  0  0  0  0
   10.0172   -4.4740   17.4101 C   0  0  0  0  0  0  0  0  0  0  0  0
    6.9051   -7.9575   16.4222 C   0  0  0  0  0  0  0  0  0  0  0  0
    8.9969   -6.3552   17.9668 N   0  0  0  0  0  0  0  0  0  0  0  0
   10.6702   -3.9051   22.4070 C   0  0  0  0  0  0  0  0  0  0  0  0
   11.0625   -3.0028   18.8894 C   0  0  0  0  0  0  0  0  0  0  0  0
    5.6180   -7.9194   16.1754 O   0  0  0  0  0  0  0  0  0  0  0  0
    9.7259   -5.3080   18.4485 C   0  0  0  0  0  0  0  0  0  0  0  0
    9.4578   -5.0200   16.3036 N   0  0  0  0  0  0  0  0  0  0  0  0
    5.0287   -8.9365   16.8223 C   0  0  0  0  0  0  0  0  0  0  0  0
    8.7742   -6.1498   16.6764 C   0  0  0  0  0  0  0  0  0  0  0  0
   10.9418   -3.4032   21.2053 O   0  0  0  0  0  0  0  0  0  0  0  0
    1.4797   -8.6258   16.2950 C   0  0  0  0  0  0  0  0  0  0  0  0
    9.2861   -1.2743   25.3585 C   0  0  0  0  0  0  0  0  0  0  0  0
    1.8892  -10.3985   17.7511 N   0  0  0  0  0  0  0  0  0  0  0  0
    9.6210   -0.6952   24.0976 C   0  0  0  0  0  0  0  0  0  0  0  0
    7.0792   -9.0217   17.1429 C   0  0  0  0  0  0  0  0  0  0  0  0
    3.1713  -10.1816   17.6634 C   0  0  0  0  0  0  0  0  0  0  0  0
    2.7878   -8.3822   16.2137 C   0  0  0  0  0  0  0  0  0  0  0  0
    9.4601   -2.6590   25.6528 C   0  0  0  0  0  0  0  0  0  0  0  0
   10.1182   -1.5672   23.1165 C   0  0  0  0  0  0  0  0  0  0  0  0
    1.0552   -9.6360   17.0650 C   0  0  0  0  0  0  0  0  0  0  0  0
    3.6519   -9.1783   16.9039 C   0  0  0  0  0  0  0  0  0  0  0  0
    7.8675   -7.0096   15.9415 C   0  0  0  0  0  0  0  0  0  0  0  0
    5.9733   -9.6553   17.3832 N   0  0  0  0  0  0  0  0  0  0  0  0
   10.2411   -2.9363   23.4301 C   0  0  0  0  0  0  0  0  0  0  0  0
   10.7288   -3.8197   19.9525 C   0  0  0  0  0  0  0  0  0  0  0  0
   10.1189   -5.0054   19.6987 C   0  0  0  0  0  0  0  0  0  0  0  0
  1  3  4  0
  1  7  4  0
  2 21  4  0
  2 27  4  0
  3  9  4  0
  3 10  4  0
  4  8  4  0
  4 18  4  0
  4 25  1  0
  5  9  4  0
  5 12  4  0
  6 13  1  0
  6 27  1  0
  7 28  4  0
  8 11  4  0
  9 29  4  0
 10 12  4  0
 11 24  1  0
 11 26  4  0
 12 25  1  0
 13 28  1  0
 14 20  4  0
 14 23  4  0
 15 17  4  0
 15 21  4  0
 16 19  4  0
 16 23  4  0
 17 22  4  0
 18 26  4  0
 19 24  4  0
 20 24  4  0
 22 27  4  0
 28 29  4  0
M  END
$$$$

 Created by Python create_sdf_string function

 29 33  0  0  0  0  0  0  0  0999 V2000
   10.7215   -3.3326   17.6437 C   0  0  0  0  0  0  0  0  0  0  0  0
    9.9489   -3.4675   24.6487 N   0  0  0  0  0  0  0  0  0  0  0  0
   10.0172   -4.4740   17.4101 C   0  0  0  0  0  0  0  0  0  0  0  0
    6.9051   -7.9575   16.4222 C   0  0  0  0  0  0  0  0  0  0  0  0
    8.9969   -6.3552   17.9668 N   0  0  0  0  0  0  0  0  0  0  0  0
   10.6702   -3.9051   22.4070 C   0  0  0  0  0  0  0  0  0  0  0  0
   11.0625   -3.0028   18.8894 C   0  0  0  0  0  0  0  0  0  0  0  0
    5.6180   -7.9194   16.1754 O   0  0  0  0  0  0  0  0  0  0  0  0
    9.7259   -5.3080   18.4485 C   0  0  0  0  0  0  0  0  0  0  0  0
    9.4578   -5.0200   16.3036 N   0  0  0  0  0  0  0  0  0  0  0  0
    5.0287   -8.9365   16.8223 C   0  0  0  0  0  0  0  0  0  0  0  0
    8.7742   -6.1498   16.6764 C   0  0  0  0  0  0  0  0  0  0  0  0
   10.9418   -3.4032   21.2053 O   0  0  0  0  0  0  0  0  0  0  0  0
    1.4797   -8.6258   16.2950 C   0  0  0  0  0  0  0  0  0  0  0  0
    9.2861   -1.2743   25.3585 C   0  0  0  0  0  0  0  0  0  0  0  0
    1.8892  -10.3985   17.7511 N   0  0  0  0  0  0  0  0  0  0  0  0
    9.6210   -0.6952   24.0976 C   0  0  0  0  0  0  0  0  0  0  0  0
    7.0792   -9.0217   17.1429 C   0  0  0  0  0  0  0  0  0  0  0  0
    3.1713  -10.1816   17.6634 C   0  0  0  0  0  0  0  0  0  0  0  0
    2.7878   -8.3822   16.2137 C   0  0  0  0  0  0  0  0  0  0  0  0
    9.4601   -2.6590   25.6528 C   0  0  0  0  0  0  0  0  0  0  0  0
   10.1182   -1.5672   23.1165 C   0  0  0  0  0  0  0  0  0  0  0  0
    1.0552   -9.6360   17.0650 C   0  0  0  0  0  0  0  0  0  0  0  0
    3.6519   -9.1783   16.9039 C   0  0  0  0  0  0  0  0  0  0  0  0
    7.8675   -7.0096   15.9415 C   0  0  0  0  0  0  0  0  0  0  0  0
    5.9733   -9.6553   17.3832 N   0  0  0  0  0  0  0  0  0  0  0  0
   10.2411   -2.9363   23.4301 C   0  0  0  0  0  0  0  0  0  0  0  0
   10.7288   -3.8197   19.9525 C   0  0  0  0  0  0  0  0  0  0  0  0
   10.1189   -5.0054   19.6987 C   0  0  0  0  0  0  0  0  0  0  0  0
  1  3  4  0
  1  7  4  0
  2 21  4  0
  2 27  4  0
  3  9  4  0
  3 10  4  0
  4  8  4  0
  4 18  4  0
  4 25  1  0
  5  9  4  0
  5 12  4  0
  6 13  1  0
  6 27  1  0
  7 28  4  0
  8 11  4  0
  9 29  4  0
 10 12  4  0
 11 24  1  0
 11 26  4  0
 12 25  1  0
 13 28  1  0
 14 20  4  0
 14 23  4  0
 15 17  4  0
 15 21  4  0
 16 19  4  0
 16 23  4  0
 17 22  4  0
 18 26  4  0
 19 24  4  0
 20 24  4  0
 22 27  4  0
 28 29  4  0
M  END
$$$$

 Created by Python create_sdf_string function

 29 33  0  0  0  0  0  0  0  0999 V2000
   10.7215   -3.3326   17.6437 C   0  0  0  0  0  0  0  0  0  0  0  0
    9.9489   -3.4675   24.6487 N   0  0  0  0  0  0  0  0  0  0  0  0
   10.0172   -4.4740   17.4101 C   0  0  0  0  0  0  0  0  0  0  0  0
    6.9051   -7.9575   16.4222 C   0  0  0  0  0  0  0  0  0  0  0  0
    8.9969   -6.3552   17.9668 N   0  0  0  0  0  0  0  0  0  0  0  0
   10.6702   -3.9051   22.4070 C   0  0  0  0  0  0  0  0  0  0  0  0
   11.0625   -3.0028   18.8894 C   0  0  0  0  0  0  0  0  0  0  0  0
    5.6180   -7.9194   16.1754 O   0  0  0  0  0  0  0  0  0  0  0  0
    9.7259   -5.3080   18.4485 C   0  0  0  0  0  0  0  0  0  0  0  0
    9.4578   -5.0200   16.3036 N   0  0  0  0  0  0  0  0  0  0  0  0
    5.0287   -8.9365   16.8223 C   0  0  0  0  0  0  0  0  0  0  0  0
    8.7742   -6.1498   16.6764 C   0  0  0  0  0  0  0  0  0  0  0  0
   10.9418   -3.4032   21.2053 O   0  0  0  0  0  0  0  0  0  0  0  0
    1.4797   -8.6258   16.2950 C   0  0  0  0  0  0  0  0  0  0  0  0
    9.2861   -1.2743   25.3585 C   0  0  0  0  0  0  0  0  0  0  0  0
    1.8892  -10.3985   17.7511 N   0  0  0  0  0  0  0  0  0  0  0  0
    9.6210   -0.6952   24.0976 C   0  0  0  0  0  0  0  0  0  0  0  0
    7.0792   -9.0217   17.1429 C   0  0  0  0  0  0  0  0  0  0  0  0
    3.1713  -10.1816   17.6634 C   0  0  0  0  0  0  0  0  0  0  0  0
    2.7878   -8.3822   16.2137 C   0  0  0  0  0  0  0  0  0  0  0  0
    9.4601   -2.6590   25.6528 C   0  0  0  0  0  0  0  0  0  0  0  0
   10.1182   -1.5672   23.1165 C   0  0  0  0  0  0  0  0  0  0  0  0
    1.0552   -9.6360   17.0650 C   0  0  0  0  0  0  0  0  0  0  0  0
    3.6519   -9.1783   16.9039 C   0  0  0  0  0  0  0  0  0  0  0  0
    7.8675   -7.0096   15.9415 C   0  0  0  0  0  0  0  0  0  0  0  0
    5.9733   -9.6553   17.3832 N   0  0  0  0  0  0  0  0  0  0  0  0
   10.2411   -2.9363   23.4301 C   0  0  0  0  0  0  0  0  0  0  0  0
   10.7288   -3.8197   19.9525 C   0  0  0  0  0  0  0  0  0  0  0  0
   10.1189   -5.0054   19.6987 C   0  0  0  0  0  0  0  0  0  0  0  0
  1  3  4  0
  1  7  4  0
  2 21  4  0
  2 27  4  0
  3  9  4  0
  3 10  4  0
  4  8  4  0
  4 18  4  0
  4 25  1  0
  5  9  4  0
  5 12  4  0
  6 13  1  0
  6 27  1  0
  7 28  4  0
  8 11  4  0
  9 29  4  0
 10 12  4  0
 11 24  1  0
 11 26  4  0
 12 25  1  0
 13 28  1  0
 14 20  4  0
 14 23  4  0
 15 17  4  0
 15 21  4  0
 16 19  4  0
 16 23  4  0
 17 22  4  0
 18 26  4  0
 19 24  4  0
 20 24  4  0
 22 27  4  0
 28 29  4  0
M  END
$$$$

 Created by Python create_sdf_string function

 29 33  0  0  0  0  0  0  0  0999 V2000
   10.7215   -3.3326   17.6437 C   0  0  0  0  0  0  0  0  0  0  0  0
    9.9489   -3.4675   24.6487 N   0  0  0  0  0  0  0  0  0  0  0  0
   10.0172   -4.4740   17.4101 C   0  0  0  0  0  0  0  0  0  0  0  0
    6.9051   -7.9575   16.4222 C   0  0  0  0  0  0  0  0  0  0  0  0
    8.9969   -6.3552   17.9668 N   0  0  0  0  0  0  0  0  0  0  0  0
   10.6702   -3.9051   22.4070 C   0  0  0  0  0  0  0  0  0  0  0  0
   11.0625   -3.0028   18.8894 C   0  0  0  0  0  0  0  0  0  0  0  0
    5.6180   -7.9194   16.1754 O   0  0  0  0  0  0  0  0  0  0  0  0
    9.7259   -5.3080   18.4485 C   0  0  0  0  0  0  0  0  0  0  0  0
    9.4578   -5.0200   16.3036 N   0  0  0  0  0  0  0  0  0  0  0  0
    5.0287   -8.9365   16.8223 C   0  0  0  0  0  0  0  0  0  0  0  0
    8.7742   -6.1498   16.6764 C   0  0  0  0  0  0  0  0  0  0  0  0
   10.9418   -3.4032   21.2053 O   0  0  0  0  0  0  0  0  0  0  0  0
    1.4797   -8.6258   16.2950 C   0  0  0  0  0  0  0  0  0  0  0  0
    9.2861   -1.2743   25.3585 C   0  0  0  0  0  0  0  0  0  0  0  0
    1.8892  -10.3985   17.7511 N   0  0  0  0  0  0  0  0  0  0  0  0
    9.6210   -0.6952   24.0976 C   0  0  0  0  0  0  0  0  0  0  0  0
    7.0792   -9.0217   17.1429 C   0  0  0  0  0  0  0  0  0  0  0  0
    3.1713  -10.1816   17.6634 C   0  0  0  0  0  0  0  0  0  0  0  0
    2.7878   -8.3822   16.2137 C   0  0  0  0  0  0  0  0  0  0  0  0
    9.4601   -2.6590   25.6528 C   0  0  0  0  0  0  0  0  0  0  0  0
   10.1182   -1.5672   23.1165 C   0  0  0  0  0  0  0  0  0  0  0  0
    1.0552   -9.6360   17.0650 C   0  0  0  0  0  0  0  0  0  0  0  0
    3.6519   -9.1783   16.9039 C   0  0  0  0  0  0  0  0  0  0  0  0
    7.8675   -7.0096   15.9415 C   0  0  0  0  0  0  0  0  0  0  0  0
    5.9733   -9.6553   17.3832 N   0  0  0  0  0  0  0  0  0  0  0  0
   10.2411   -2.9363   23.4301 C   0  0  0  0  0  0  0  0  0  0  0  0
   10.7288   -3.8197   19.9525 C   0  0  0  0  0  0  0  0  0  0  0  0
   10.1189   -5.0054   19.6987 C   0  0  0  0  0  0  0  0  0  0  0  0
  1  3  4  0
  1  7  4  0
  2 21  4  0
  2 27  4  0
  3  9  4  0
  3 10  4  0
  4  8  4  0
  4 18  4  0
  4 25  1  0
  5  9  4  0
  5 12  4  0
  6 13  1  0
  6 27  1  0
  7 28  4  0
  8 11  4  0
  9 29  4  0
 10 12  4  0
 11 24  1  0
 11 26  4  0
 12 25  1  0
 13 28  1  0
 14 20  4  0
 14 23  4  0
 15 17  4  0
 15 21  4  0
 16 19  4  0
 16 23  4  0
 17 22  4  0
 18 26  4  0
 19 24  4  0
 20 24  4  0
 22 27  4  0
 28 29  4  0
M  END
$$$$

 Created by Python create_sdf_string function

 29 33  0  0  0  0  0  0  0  0999 V2000
   10.7215   -3.3326   17.6437 C   0  0  0  0  0  0  0  0  0  0  0  0
    9.9489   -3.4675   24.6487 N   0  0  0  0  0  0  0  0  0  0  0  0
   10.0172   -4.4740   17.4101 C   0  0  0  0  0  0  0  0  0  0  0  0
    6.9051   -7.9575   16.4222 C   0  0  0  0  0  0  0  0  0  0  0  0
    8.9969   -6.3552   17.9668 N   0  0  0  0  0  0  0  0  0  0  0  0
   10.6702   -3.9051   22.4070 C   0  0  0  0  0  0  0  0  0  0  0  0
   11.0625   -3.0028   18.8894 C   0  0  0  0  0  0  0  0  0  0  0  0
    5.6180   -7.9194   16.1754 O   0  0  0  0  0  0  0  0  0  0  0  0
    9.7259   -5.3080   18.4485 C   0  0  0  0  0  0  0  0  0  0  0  0
    9.4578   -5.0200   16.3036 N   0  0  0  0  0  0  0  0  0  0  0  0
    5.0287   -8.9365   16.8223 C   0  0  0  0  0  0  0  0  0  0  0  0
    8.7742   -6.1498   16.6764 C   0  0  0  0  0  0  0  0  0  0  0  0
   10.9418   -3.4032   21.2053 O   0  0  0  0  0  0  0  0  0  0  0  0
    1.4797   -8.6258   16.2950 C   0  0  0  0  0  0  0  0  0  0  0  0
    9.2861   -1.2743   25.3585 C   0  0  0  0  0  0  0  0  0  0  0  0
    1.8892  -10.3985   17.7511 N   0  0  0  0  0  0  0  0  0  0  0  0
    9.6210   -0.6952   24.0976 C   0  0  0  0  0  0  0  0  0  0  0  0
    7.0792   -9.0217   17.1429 C   0  0  0  0  0  0  0  0  0  0  0  0
    3.1713  -10.1816   17.6634 C   0  0  0  0  0  0  0  0  0  0  0  0
    2.7878   -8.3822   16.2137 C   0  0  0  0  0  0  0  0  0  0  0  0
    9.4601   -2.6590   25.6528 C   0  0  0  0  0  0  0  0  0  0  0  0
   10.1182   -1.5672   23.1165 C   0  0  0  0  0  0  0  0  0  0  0  0
    1.0552   -9.6360   17.0650 C   0  0  0  0  0  0  0  0  0  0  0  0
    3.6519   -9.1783   16.9039 C   0  0  0  0  0  0  0  0  0  0  0  0
    7.8675   -7.0096   15.9415 C   0  0  0  0  0  0  0  0  0  0  0  0
    5.9733   -9.6553   17.3832 N   0  0  0  0  0  0  0  0  0  0  0  0
   10.2411   -2.9363   23.4301 C   0  0  0  0  0  0  0  0  0  0  0  0
   10.7288   -3.8197   19.9525 C   0  0  0  0  0  0  0  0  0  0  0  0
   10.1189   -5.0054   19.6987 C   0  0  0  0  0  0  0  0  0  0  0  0
  1  3  4  0
  1  7  4  0
  2 21  4  0
  2 27  4  0
  3  9  4  0
  3 10  4  0
  4  8  4  0
  4 18  4  0
  4 25  1  0
  5  9  4  0
  5 12  4  0
  6 13  1  0
  6 27  1  0
  7 28  4  0
  8 11  4  0
  9 29  4  0
 10 12  4  0
 11 24  1  0
 11 26  4  0
 12 25  1  0
 13 28  1  0
 14 20  4  0
 14 23  4  0
 15 17  4  0
 15 21  4  0
 16 19  4  0
 16 23  4  0
 17 22  4  0
 18 26  4  0
 19 24  4  0
 20 24  4  0
 22 27  4  0
 28 29  4  0
M  END
$$$$

 Created by Python create_sdf_string function

 29 33  0  0  0  0  0  0  0  0999 V2000
   10.7215   -3.3326   17.6437 C   0  0  0  0  0  0  0  0  0  0  0  0
    9.9489   -3.4675   24.6487 N   0  0  0  0  0  0  0  0  0  0  0  0
   10.0172   -4.4740   17.4101 C   0  0  0  0  0  0  0  0  0  0  0  0
    6.9051   -7.9575   16.4222 C   0  0  0  0  0  0  0  0  0  0  0  0
    8.9969   -6.3552   17.9668 N   0  0  0  0  0  0  0  0  0  0  0  0
   10.6702   -3.9051   22.4070 C   0  0  0  0  0  0  0  0  0  0  0  0
   11.0625   -3.0028   18.8894 C   0  0  0  0  0  0  0  0  0  0  0  0
    5.6180   -7.9194   16.1754 O   0  0  0  0  0  0  0  0  0  0  0  0
    9.7259   -5.3080   18.4485 C   0  0  0  0  0  0  0  0  0  0  0  0
    9.4578   -5.0200   16.3036 N   0  0  0  0  0  0  0  0  0  0  0  0
    5.0287   -8.9365   16.8223 C   0  0  0  0  0  0  0  0  0  0  0  0
    8.7742   -6.1498   16.6764 C   0  0  0  0  0  0  0  0  0  0  0  0
   10.9418   -3.4032   21.2053 O   0  0  0  0  0  0  0  0  0  0  0  0
    1.4797   -8.6258   16.2950 C   0  0  0  0  0  0  0  0  0  0  0  0
    9.2861   -1.2743   25.3585 C   0  0  0  0  0  0  0  0  0  0  0  0
    1.8892  -10.3985   17.7511 N   0  0  0  0  0  0  0  0  0  0  0  0
    9.6210   -0.6952   24.0976 C   0  0  0  0  0  0  0  0  0  0  0  0
    7.0792   -9.0217   17.1429 C   0  0  0  0  0  0  0  0  0  0  0  0
    3.1713  -10.1816   17.6634 C   0  0  0  0  0  0  0  0  0  0  0  0
    2.7878   -8.3822   16.2137 C   0  0  0  0  0  0  0  0  0  0  0  0
    9.4601   -2.6590   25.6528 C   0  0  0  0  0  0  0  0  0  0  0  0
   10.1182   -1.5672   23.1165 C   0  0  0  0  0  0  0  0  0  0  0  0
    1.0552   -9.6360   17.0650 C   0  0  0  0  0  0  0  0  0  0  0  0
    3.6519   -9.1783   16.9039 C   0  0  0  0  0  0  0  0  0  0  0  0
    7.8675   -7.0096   15.9415 C   0  0  0  0  0  0  0  0  0  0  0  0
    5.9733   -9.6553   17.3832 N   0  0  0  0  0  0  0  0  0  0  0  0
   10.2411   -2.9363   23.4301 C   0  0  0  0  0  0  0  0  0  0  0  0
   10.7288   -3.8197   19.9525 C   0  0  0  0  0  0  0  0  0  0  0  0
   10.1189   -5.0054   19.6987 C   0  0  0  0  0  0  0  0  0  0  0  0
  1  3  4  0
  1  7  4  0
  2 21  4  0
  2 27  4  0
  3  9  4  0
  3 10  4  0
  4  8  4  0
  4 18  4  0
  4 25  1  0
  5  9  4  0
  5 12  4  0
  6 13  1  0
  6 27  1  0
  7 28  4  0
  8 11  4  0
  9 29  4  0
 10 12  4  0
 11 24  1  0
 11 26  4  0
 12 25  1  0
 13 28  1  0
 14 20  4  0
 14 23  4  0
 15 17  4  0
 15 21  4  0
 16 19  4  0
 16 23  4  0
 17 22  4  0
 18 26  4  0
 19 24  4  0
 20 24  4  0
 22 27  4  0
 28 29  4  0
M  END
$$$$

 Created by Python create_sdf_string function

 29 33  0  0  0  0  0  0  0  0999 V2000
   10.7215   -3.3326   17.6437 C   0  0  0  0  0  0  0  0  0  0  0  0
    9.9489   -3.4675   24.6487 N   0  0  0  0  0  0  0  0  0  0  0  0
   10.0172   -4.4740   17.4101 C   0  0  0  0  0  0  0  0  0  0  0  0
    6.9051   -7.9575   16.4222 C   0  0  0  0  0  0  0  0  0  0  0  0
    8.9969   -6.3552   17.9668 N   0  0  0  0  0  0  0  0  0  0  0  0
   10.6702   -3.9051   22.4070 C   0  0  0  0  0  0  0  0  0  0  0  0
   11.0625   -3.0028   18.8894 C   0  0  0  0  0  0  0  0  0  0  0  0
    5.6180   -7.9194   16.1754 O   0  0  0  0  0  0  0  0  0  0  0  0
    9.7259   -5.3080   18.4485 C   0  0  0  0  0  0  0  0  0  0  0  0
    9.4578   -5.0200   16.3036 N   0  0  0  0  0  0  0  0  0  0  0  0
    5.0287   -8.9365   16.8223 C   0  0  0  0  0  0  0  0  0  0  0  0
    8.7742   -6.1498   16.6764 C   0  0  0  0  0  0  0  0  0  0  0  0
   10.9418   -3.4032   21.2053 O   0  0  0  0  0  0  0  0  0  0  0  0
    1.4797   -8.6258   16.2950 C   0  0  0  0  0  0  0  0  0  0  0  0
    9.2861   -1.2743   25.3585 C   0  0  0  0  0  0  0  0  0  0  0  0
    1.8892  -10.3985   17.7511 N   0  0  0  0  0  0  0  0  0  0  0  0
    9.6210   -0.6952   24.0976 C   0  0  0  0  0  0  0  0  0  0  0  0
    7.0792   -9.0217   17.1429 C   0  0  0  0  0  0  0  0  0  0  0  0
    3.1713  -10.1816   17.6634 C   0  0  0  0  0  0  0  0  0  0  0  0
    2.7878   -8.3822   16.2137 C   0  0  0  0  0  0  0  0  0  0  0  0
    9.4601   -2.6590   25.6528 C   0  0  0  0  0  0  0  0  0  0  0  0
   10.1182   -1.5672   23.1165 C   0  0  0  0  0  0  0  0  0  0  0  0
    1.0552   -9.6360   17.0650 C   0  0  0  0  0  0  0  0  0  0  0  0
    3.6519   -9.1783   16.9039 C   0  0  0  0  0  0  0  0  0  0  0  0
    7.8675   -7.0096   15.9415 C   0  0  0  0  0  0  0  0  0  0  0  0
    5.9733   -9.6553   17.3832 N   0  0  0  0  0  0  0  0  0  0  0  0
   10.2411   -2.9363   23.4301 C   0  0  0  0  0  0  0  0  0  0  0  0
   10.7288   -3.8197   19.9525 C   0  0  0  0  0  0  0  0  0  0  0  0
   10.1189   -5.0054   19.6987 C   0  0  0  0  0  0  0  0  0  0  0  0
  1  3  4  0
  1  7  4  0
  2 21  4  0
  2 27  4  0
  3  9  4  0
  3 10  4  0
  4  8  4  0
  4 18  4  0
  4 25  1  0
  5  9  4  0
  5 12  4  0
  6 13  1  0
  6 27  1  0
  7 28  4  0
  8 11  4  0
  9 29  4  0
 10 12  4  0
 11 24  1  0
 11 26  4  0
 12 25  1  0
 13 28  1  0
 14 20  4  0
 14 23  4  0
 15 17  4  0
 15 21  4  0
 16 19  4  0
 16 23  4  0
 17 22  4  0
 18 26  4  0
 19 24  4  0
 20 24  4  0
 22 27  4  0
 28 29  4  0
M  END
$$$$

 Created by Python create_sdf_string function

 29 33  0  0  0  0  0  0  0  0999 V2000
   10.7215   -3.3326   17.6437 C   0  0  0  0  0  0  0  0  0  0  0  0
    9.9489   -3.4675   24.6487 N   0  0  0  0  0  0  0  0  0  0  0  0
   10.0172   -4.4740   17.4101 C   0  0  0  0  0  0  0  0  0  0  0  0
    6.9051   -7.9575   16.4222 C   0  0  0  0  0  0  0  0  0  0  0  0
    8.9969   -6.3552   17.9668 N   0  0  0  0  0  0  0  0  0  0  0  0
   10.6702   -3.9051   22.4070 C   0  0  0  0  0  0  0  0  0  0  0  0
   11.0625   -3.0028   18.8894 C   0  0  0  0  0  0  0  0  0  0  0  0
    5.6180   -7.9194   16.1754 O   0  0  0  0  0  0  0  0  0  0  0  0
    9.7259   -5.3080   18.4485 C   0  0  0  0  0  0  0  0  0  0  0  0
    9.4578   -5.0200   16.3036 N   0  0  0  0  0  0  0  0  0  0  0  0
    5.0287   -8.9365   16.8223 C   0  0  0  0  0  0  0  0  0  0  0  0
    8.7742   -6.1498   16.6764 C   0  0  0  0  0  0  0  0  0  0  0  0
   10.9418   -3.4032   21.2053 O   0  0  0  0  0  0  0  0  0  0  0  0
    1.4797   -8.6258   16.2950 C   0  0  0  0  0  0  0  0  0  0  0  0
    9.2861   -1.2743   25.3585 C   0  0  0  0  0  0  0  0  0  0  0  0
    1.8892  -10.3985   17.7511 N   0  0  0  0  0  0  0  0  0  0  0  0
    9.6210   -0.6952   24.0976 C   0  0  0  0  0  0  0  0  0  0  0  0
    7.0792   -9.0217   17.1429 C   0  0  0  0  0  0  0  0  0  0  0  0
    3.1713  -10.1816   17.6634 C   0  0  0  0  0  0  0  0  0  0  0  0
    2.7878   -8.3822   16.2137 C   0  0  0  0  0  0  0  0  0  0  0  0
    9.4601   -2.6590   25.6528 C   0  0  0  0  0  0  0  0  0  0  0  0
   10.1182   -1.5672   23.1165 C   0  0  0  0  0  0  0  0  0  0  0  0
    1.0552   -9.6360   17.0650 C   0  0  0  0  0  0  0  0  0  0  0  0
    3.6519   -9.1783   16.9039 C   0  0  0  0  0  0  0  0  0  0  0  0
    7.8675   -7.0096   15.9415 C   0  0  0  0  0  0  0  0  0  0  0  0
    5.9733   -9.6553   17.3832 N   0  0  0  0  0  0  0  0  0  0  0  0
   10.2411   -2.9363   23.4301 C   0  0  0  0  0  0  0  0  0  0  0  0
   10.7288   -3.8197   19.9525 C   0  0  0  0  0  0  0  0  0  0  0  0
   10.1189   -5.0054   19.6987 C   0  0  0  0  0  0  0  0  0  0  0  0
  1  3  4  0
  1  7  4  0
  2 21  4  0
  2 27  4  0
  3  9  4  0
  3 10  4  0
  4  8  4  0
  4 18  4  0
  4 25  1  0
  5  9  4  0
  5 12  4  0
  6 13  1  0
  6 27  1  0
  7 28  4  0
  8 11  4  0
  9 29  4  0
 10 12  4  0
 11 24  1  0
 11 26  4  0
 12 25  1  0
 13 28  1  0
 14 20  4  0
 14 23  4  0
 15 17  4  0
 15 21  4  0
 16 19  4  0
 16 23  4  0
 17 22  4  0
 18 26  4  0
 19 24  4  0
 20 24  4  0
 22 27  4  0
 28 29  4  0
M  END
$$$$

 Created by Python create_sdf_string function

 29 33  0  0  0  0  0  0  0  0999 V2000
   10.7215   -3.3326   17.6437 C   0  0  0  0  0  0  0  0  0  0  0  0
    9.9489   -3.4675   24.6487 N   0  0  0  0  0  0  0  0  0  0  0  0
   10.0172   -4.4740   17.4101 C   0  0  0  0  0  0  0  0  0  0  0  0
    6.9051   -7.9575   16.4222 C   0  0  0  0  0  0  0  0  0  0  0  0
    8.9969   -6.3552   17.9668 N   0  0  0  0  0  0  0  0  0  0  0  0
   10.6702   -3.9051   22.4070 C   0  0  0  0  0  0  0  0  0  0  0  0
   11.0625   -3.0028   18.8894 C   0  0  0  0  0  0  0  0  0  0  0  0
    5.6180   -7.9194   16.1754 O   0  0  0  0  0  0  0  0  0  0  0  0
    9.7259   -5.3080   18.4485 C   0  0  0  0  0  0  0  0  0  0  0  0
    9.4578   -5.0200   16.3036 N   0  0  0  0  0  0  0  0  0  0  0  0
    5.0287   -8.9365   16.8223 C   0  0  0  0  0  0  0  0  0  0  0  0
    8.7742   -6.1498   16.6764 C   0  0  0  0  0  0  0  0  0  0  0  0
   10.9418   -3.4032   21.2053 O   0  0  0  0  0  0  0  0  0  0  0  0
    1.4797   -8.6258   16.2950 C   0  0  0  0  0  0  0  0  0  0  0  0
    9.2861   -1.2743   25.3585 C   0  0  0  0  0  0  0  0  0  0  0  0
    1.8892  -10.3985   17.7511 N   0  0  0  0  0  0  0  0  0  0  0  0
    9.6210   -0.6952   24.0976 C   0  0  0  0  0  0  0  0  0  0  0  0
    7.0792   -9.0217   17.1429 C   0  0  0  0  0  0  0  0  0  0  0  0
    3.1713  -10.1816   17.6634 C   0  0  0  0  0  0  0  0  0  0  0  0
    2.7878   -8.3822   16.2137 C   0  0  0  0  0  0  0  0  0  0  0  0
    9.4601   -2.6590   25.6528 C   0  0  0  0  0  0  0  0  0  0  0  0
   10.1182   -1.5672   23.1165 C   0  0  0  0  0  0  0  0  0  0  0  0
    1.0552   -9.6360   17.0650 C   0  0  0  0  0  0  0  0  0  0  0  0
    3.6519   -9.1783   16.9039 C   0  0  0  0  0  0  0  0  0  0  0  0
    7.8675   -7.0096   15.9415 C   0  0  0  0  0  0  0  0  0  0  0  0
    5.9733   -9.6553   17.3832 N   0  0  0  0  0  0  0  0  0  0  0  0
   10.2411   -2.9363   23.4301 C   0  0  0  0  0  0  0  0  0  0  0  0
   10.7288   -3.8197   19.9525 C   0  0  0  0  0  0  0  0  0  0  0  0
   10.1189   -5.0054   19.6987 C   0  0  0  0  0  0  0  0  0  0  0  0
  1  3  4  0
  1  7  4  0
  2 21  4  0
  2 27  4  0
  3  9  4  0
  3 10  4  0
  4  8  4  0
  4 18  4  0
  4 25  1  0
  5  9  4  0
  5 12  4  0
  6 13  1  0
  6 27  1  0
  7 28  4  0
  8 11  4  0
  9 29  4  0
 10 12  4  0
 11 24  1  0
 11 26  4  0
 12 25  1  0
 13 28  1  0
 14 20  4  0
 14 23  4  0
 15 17  4  0
 15 21  4  0
 16 19  4  0
 16 23  4  0
 17 22  4  0
 18 26  4  0
 19 24  4  0
 20 24  4  0
 22 27  4  0
 28 29  4  0
M  END
$$$$

 Created by Python create_sdf_string function

 29 33  0  0  0  0  0  0  0  0999 V2000
   10.7215   -3.3326   17.6437 C   0  0  0  0  0  0  0  0  0  0  0  0
    9.9489   -3.4675   24.6487 N   0  0  0  0  0  0  0  0  0  0  0  0
   10.0172   -4.4740   17.4101 C   0  0  0  0  0  0  0  0  0  0  0  0
    6.9051   -7.9575   16.4222 C   0  0  0  0  0  0  0  0  0  0  0  0
    8.9969   -6.3552   17.9668 N   0  0  0  0  0  0  0  0  0  0  0  0
   10.6702   -3.9051   22.4070 C   0  0  0  0  0  0  0  0  0  0  0  0
   11.0625   -3.0028   18.8894 C   0  0  0  0  0  0  0  0  0  0  0  0
    5.6180   -7.9194   16.1754 O   0  0  0  0  0  0  0  0  0  0  0  0
    9.7259   -5.3080   18.4485 C   0  0  0  0  0  0  0  0  0  0  0  0
    9.4578   -5.0200   16.3036 N   0  0  0  0  0  0  0  0  0  0  0  0
    5.0287   -8.9365   16.8223 C   0  0  0  0  0  0  0  0  0  0  0  0
    8.7742   -6.1498   16.6764 C   0  0  0  0  0  0  0  0  0  0  0  0
   10.9418   -3.4032   21.2053 O   0  0  0  0  0  0  0  0  0  0  0  0
    1.4797   -8.6258   16.2950 C   0  0  0  0  0  0  0  0  0  0  0  0
    9.2861   -1.2743   25.3585 C   0  0  0  0  0  0  0  0  0  0  0  0
    1.8892  -10.3985   17.7511 N   0  0  0  0  0  0  0  0  0  0  0  0
    9.6210   -0.6952   24.0976 C   0  0  0  0  0  0  0  0  0  0  0  0
    7.0792   -9.0217   17.1429 C   0  0  0  0  0  0  0  0  0  0  0  0
    3.1713  -10.1816   17.6634 C   0  0  0  0  0  0  0  0  0  0  0  0
    2.7878   -8.3822   16.2137 C   0  0  0  0  0  0  0  0  0  0  0  0
    9.4601   -2.6590   25.6528 C   0  0  0  0  0  0  0  0  0  0  0  0
   10.1182   -1.5672   23.1165 C   0  0  0  0  0  0  0  0  0  0  0  0
    1.0552   -9.6360   17.0650 C   0  0  0  0  0  0  0  0  0  0  0  0
    3.6519   -9.1783   16.9039 C   0  0  0  0  0  0  0  0  0  0  0  0
    7.8675   -7.0096   15.9415 C   0  0  0  0  0  0  0  0  0  0  0  0
    5.9733   -9.6553   17.3832 N   0  0  0  0  0  0  0  0  0  0  0  0
   10.2411   -2.9363   23.4301 C   0  0  0  0  0  0  0  0  0  0  0  0
   10.7288   -3.8197   19.9525 C   0  0  0  0  0  0  0  0  0  0  0  0
   10.1189   -5.0054   19.6987 C   0  0  0  0  0  0  0  0  0  0  0  0
  1  3  4  0
  1  7  4  0
  2 21  4  0
  2 27  4  0
  3  9  4  0
  3 10  4  0
  4  8  4  0
  4 18  4  0
  4 25  1  0
  5  9  4  0
  5 12  4  0
  6 13  1  0
  6 27  1  0
  7 28  4  0
  8 11  4  0
  9 29  4  0
 10 12  4  0
 11 24  1  0
 11 26  4  0
 12 25  1  0
 13 28  1  0
 14 20  4  0
 14 23  4  0
 15 17  4  0
 15 21  4  0
 16 19  4  0
 16 23  4  0
 17 22  4  0
 18 26  4  0
 19 24  4  0
 20 24  4  0
 22 27  4  0
 28 29  4  0
M  END
$$$$

 Created by Python create_sdf_string function

 29 33  0  0  0  0  0  0  0  0999 V2000
   10.7215   -3.3326   17.6437 C   0  0  0  0  0  0  0  0  0  0  0  0
    9.9489   -3.4675   24.6487 N   0  0  0  0  0  0  0  0  0  0  0  0
   10.0172   -4.4740   17.4101 C   0  0  0  0  0  0  0  0  0  0  0  0
    6.9051   -7.9575   16.4222 C   0  0  0  0  0  0  0  0  0  0  0  0
    8.9969   -6.3552   17.9668 N   0  0  0  0  0  0  0  0  0  0  0  0
   10.6702   -3.9051   22.4070 C   0  0  0  0  0  0  0  0  0  0  0  0
   11.0625   -3.0028   18.8894 C   0  0  0  0  0  0  0  0  0  0  0  0
    5.6180   -7.9194   16.1754 O   0  0  0  0  0  0  0  0  0  0  0  0
    9.7259   -5.3080   18.4485 C   0  0  0  0  0  0  0  0  0  0  0  0
    9.4578   -5.0200   16.3036 N   0  0  0  0  0  0  0  0  0  0  0  0
    5.0287   -8.9365   16.8223 C   0  0  0  0  0  0  0  0  0  0  0  0
    8.7742   -6.1498   16.6764 C   0  0  0  0  0  0  0  0  0  0  0  0
   10.9418   -3.4032   21.2053 O   0  0  0  0  0  0  0  0  0  0  0  0
    1.4797   -8.6258   16.2950 C   0  0  0  0  0  0  0  0  0  0  0  0
    9.2861   -1.2743   25.3585 C   0  0  0  0  0  0  0  0  0  0  0  0
    1.8892  -10.3985   17.7511 N   0  0  0  0  0  0  0  0  0  0  0  0
    9.6210   -0.6952   24.0976 C   0  0  0  0  0  0  0  0  0  0  0  0
    7.0792   -9.0217   17.1429 C   0  0  0  0  0  0  0  0  0  0  0  0
    3.1713  -10.1816   17.6634 C   0  0  0  0  0  0  0  0  0  0  0  0
    2.7878   -8.3822   16.2137 C   0  0  0  0  0  0  0  0  0  0  0  0
    9.4601   -2.6590   25.6528 C   0  0  0  0  0  0  0  0  0  0  0  0
   10.1182   -1.5672   23.1165 C   0  0  0  0  0  0  0  0  0  0  0  0
    1.0552   -9.6360   17.0650 C   0  0  0  0  0  0  0  0  0  0  0  0
    3.6519   -9.1783   16.9039 C   0  0  0  0  0  0  0  0  0  0  0  0
    7.8675   -7.0096   15.9415 C   0  0  0  0  0  0  0  0  0  0  0  0
    5.9733   -9.6553   17.3832 N   0  0  0  0  0  0  0  0  0  0  0  0
   10.2411   -2.9363   23.4301 C   0  0  0  0  0  0  0  0  0  0  0  0
   10.7288   -3.8197   19.9525 C   0  0  0  0  0  0  0  0  0  0  0  0
   10.1189   -5.0054   19.6987 C   0  0  0  0  0  0  0  0  0  0  0  0
  1  3  4  0
  1  7  4  0
  2 21  4  0
  2 27  4  0
  3  9  4  0
  3 10  4  0
  4  8  4  0
  4 18  4  0
  4 25  1  0
  5  9  4  0
  5 12  4  0
  6 13  1  0
  6 27  1  0
  7 28  4  0
  8 11  4  0
  9 29  4  0
 10 12  4  0
 11 24  1  0
 11 26  4  0
 12 25  1  0
 13 28  1  0
 14 20  4  0
 14 23  4  0
 15 17  4  0
 15 21  4  0
 16 19  4  0
 16 23  4  0
 17 22  4  0
 18 26  4  0
 19 24  4  0
 20 24  4  0
 22 27  4  0
 28 29  4  0
M  END
$$$$

 Created by Python create_sdf_string function

 29 33  0  0  0  0  0  0  0  0999 V2000
   10.7215   -3.3326   17.6437 C   0  0  0  0  0  0  0  0  0  0  0  0
    9.9489   -3.4675   24.6487 N   0  0  0  0  0  0  0  0  0  0  0  0
   10.0172   -4.4740   17.4101 C   0  0  0  0  0  0  0  0  0  0  0  0
    6.9051   -7.9575   16.4222 C   0  0  0  0  0  0  0  0  0  0  0  0
    8.9969   -6.3552   17.9668 N   0  0  0  0  0  0  0  0  0  0  0  0
   10.6702   -3.9051   22.4070 C   0  0  0  0  0  0  0  0  0  0  0  0
   11.0625   -3.0028   18.8894 C   0  0  0  0  0  0  0  0  0  0  0  0
    5.6180   -7.9194   16.1754 O   0  0  0  0  0  0  0  0  0  0  0  0
    9.7259   -5.3080   18.4485 C   0  0  0  0  0  0  0  0  0  0  0  0
    9.4578   -5.0200   16.3036 N   0  0  0  0  0  0  0  0  0  0  0  0
    5.0287   -8.9365   16.8223 C   0  0  0  0  0  0  0  0  0  0  0  0
    8.7742   -6.1498   16.6764 C   0  0  0  0  0  0  0  0  0  0  0  0
   10.9418   -3.4032   21.2053 O   0  0  0  0  0  0  0  0  0  0  0  0
    1.4797   -8.6258   16.2950 C   0  0  0  0  0  0  0  0  0  0  0  0
    9.2861   -1.2743   25.3585 C   0  0  0  0  0  0  0  0  0  0  0  0
    1.8892  -10.3985   17.7511 N   0  0  0  0  0  0  0  0  0  0  0  0
    9.6210   -0.6952   24.0976 C   0  0  0  0  0  0  0  0  0  0  0  0
    7.0792   -9.0217   17.1429 C   0  0  0  0  0  0  0  0  0  0  0  0
    3.1713  -10.1816   17.6634 C   0  0  0  0  0  0  0  0  0  0  0  0
    2.7878   -8.3822   16.2137 C   0  0  0  0  0  0  0  0  0  0  0  0
    9.4601   -2.6590   25.6528 C   0  0  0  0  0  0  0  0  0  0  0  0
   10.1182   -1.5672   23.1165 C   0  0  0  0  0  0  0  0  0  0  0  0
    1.0552   -9.6360   17.0650 C   0  0  0  0  0  0  0  0  0  0  0  0
    3.6519   -9.1783   16.9039 C   0  0  0  0  0  0  0  0  0  0  0  0
    7.8675   -7.0096   15.9415 C   0  0  0  0  0  0  0  0  0  0  0  0
    5.9733   -9.6553   17.3832 N   0  0  0  0  0  0  0  0  0  0  0  0
   10.2411   -2.9363   23.4301 C   0  0  0  0  0  0  0  0  0  0  0  0
   10.7288   -3.8197   19.9525 C   0  0  0  0  0  0  0  0  0  0  0  0
   10.1189   -5.0054   19.6987 C   0  0  0  0  0  0  0  0  0  0  0  0
  1  3  4  0
  1  7  4  0
  2 21  4  0
  2 27  4  0
  3  9  4  0
  3 10  4  0
  4  8  4  0
  4 18  4  0
  4 25  1  0
  5  9  4  0
  5 12  4  0
  6 13  1  0
  6 27  1  0
  7 28  4  0
  8 11  4  0
  9 29  4  0
 10 12  4  0
 11 24  1  0
 11 26  4  0
 12 25  1  0
 13 28  1  0
 14 20  4  0
 14 23  4  0
 15 17  4  0
 15 21  4  0
 16 19  4  0
 16 23  4  0
 17 22  4  0
 18 26  4  0
 19 24  4  0
 20 24  4  0
 22 27  4  0
 28 29  4  0
M  END
$$$$

 Created by Python create_sdf_string function

 29 33  0  0  0  0  0  0  0  0999 V2000
   10.7215   -3.3326   17.6437 C   0  0  0  0  0  0  0  0  0  0  0  0
    9.9489   -3.4675   24.6487 N   0  0  0  0  0  0  0  0  0  0  0  0
   10.0172   -4.4740   17.4101 C   0  0  0  0  0  0  0  0  0  0  0  0
    6.9051   -7.9575   16.4222 C   0  0  0  0  0  0  0  0  0  0  0  0
    8.9969   -6.3552   17.9668 N   0  0  0  0  0  0  0  0  0  0  0  0
   10.6702   -3.9051   22.4070 C   0  0  0  0  0  0  0  0  0  0  0  0
   11.0625   -3.0028   18.8894 C   0  0  0  0  0  0  0  0  0  0  0  0
    5.6180   -7.9194   16.1754 O   0  0  0  0  0  0  0  0  0  0  0  0
    9.7259   -5.3080   18.4485 C   0  0  0  0  0  0  0  0  0  0  0  0
    9.4578   -5.0200   16.3036 N   0  0  0  0  0  0  0  0  0  0  0  0
    5.0287   -8.9365   16.8223 C   0  0  0  0  0  0  0  0  0  0  0  0
    8.7742   -6.1498   16.6764 C   0  0  0  0  0  0  0  0  0  0  0  0
   10.9418   -3.4032   21.2053 O   0  0  0  0  0  0  0  0  0  0  0  0
    1.4797   -8.6258   16.2950 C   0  0  0  0  0  0  0  0  0  0  0  0
    9.2861   -1.2743   25.3585 C   0  0  0  0  0  0  0  0  0  0  0  0
    1.8892  -10.3985   17.7511 N   0  0  0  0  0  0  0  0  0  0  0  0
    9.6210   -0.6952   24.0976 C   0  0  0  0  0  0  0  0  0  0  0  0
    7.0792   -9.0217   17.1429 C   0  0  0  0  0  0  0  0  0  0  0  0
    3.1713  -10.1816   17.6634 C   0  0  0  0  0  0  0  0  0  0  0  0
    2.7878   -8.3822   16.2137 C   0  0  0  0  0  0  0  0  0  0  0  0
    9.4601   -2.6590   25.6528 C   0  0  0  0  0  0  0  0  0  0  0  0
   10.1182   -1.5672   23.1165 C   0  0  0  0  0  0  0  0  0  0  0  0
    1.0552   -9.6360   17.0650 C   0  0  0  0  0  0  0  0  0  0  0  0
    3.6519   -9.1783   16.9039 C   0  0  0  0  0  0  0  0  0  0  0  0
    7.8675   -7.0096   15.9415 C   0  0  0  0  0  0  0  0  0  0  0  0
    5.9733   -9.6553   17.3832 N   0  0  0  0  0  0  0  0  0  0  0  0
   10.2411   -2.9363   23.4301 C   0  0  0  0  0  0  0  0  0  0  0  0
   10.7288   -3.8197   19.9525 C   0  0  0  0  0  0  0  0  0  0  0  0
   10.1189   -5.0054   19.6987 C   0  0  0  0  0  0  0  0  0  0  0  0
  1  3  4  0
  1  7  4  0
  2 21  4  0
  2 27  4  0
  3  9  4  0
  3 10  4  0
  4  8  4  0
  4 18  4  0
  4 25  1  0
  5  9  4  0
  5 12  4  0
  6 13  1  0
  6 27  1  0
  7 28  4  0
  8 11  4  0
  9 29  4  0
 10 12  4  0
 11 24  1  0
 11 26  4  0
 12 25  1  0
 13 28  1  0
 14 20  4  0
 14 23  4  0
 15 17  4  0
 15 21  4  0
 16 19  4  0
 16 23  4  0
 17 22  4  0
 18 26  4  0
 19 24  4  0
 20 24  4  0
 22 27  4  0
 28 29  4  0
M  END
$$$$

 Created by Python create_sdf_string function

 29 33  0  0  0  0  0  0  0  0999 V2000
   10.7215   -3.3326   17.6437 C   0  0  0  0  0  0  0  0  0  0  0  0
    9.9489   -3.4675   24.6487 N   0  0  0  0  0  0  0  0  0  0  0  0
   10.0172   -4.4740   17.4101 C   0  0  0  0  0  0  0  0  0  0  0  0
    6.9051   -7.9575   16.4222 C   0  0  0  0  0  0  0  0  0  0  0  0
    8.9969   -6.3552   17.9668 N   0  0  0  0  0  0  0  0  0  0  0  0
   10.6702   -3.9051   22.4070 C   0  0  0  0  0  0  0  0  0  0  0  0
   11.0625   -3.0028   18.8894 C   0  0  0  0  0  0  0  0  0  0  0  0
    5.6180   -7.9194   16.1754 O   0  0  0  0  0  0  0  0  0  0  0  0
    9.7259   -5.3080   18.4485 C   0  0  0  0  0  0  0  0  0  0  0  0
    9.4578   -5.0200   16.3036 N   0  0  0  0  0  0  0  0  0  0  0  0
    5.0287   -8.9365   16.8223 C   0  0  0  0  0  0  0  0  0  0  0  0
    8.7742   -6.1498   16.6764 C   0  0  0  0  0  0  0  0  0  0  0  0
   10.9418   -3.4032   21.2053 O   0  0  0  0  0  0  0  0  0  0  0  0
    1.4797   -8.6258   16.2950 C   0  0  0  0  0  0  0  0  0  0  0  0
    9.2861   -1.2743   25.3585 C   0  0  0  0  0  0  0  0  0  0  0  0
    1.8892  -10.3985   17.7511 N   0  0  0  0  0  0  0  0  0  0  0  0
    9.6210   -0.6952   24.0976 C   0  0  0  0  0  0  0  0  0  0  0  0
    7.0792   -9.0217   17.1429 C   0  0  0  0  0  0  0  0  0  0  0  0
    3.1713  -10.1816   17.6634 C   0  0  0  0  0  0  0  0  0  0  0  0
    2.7878   -8.3822   16.2137 C   0  0  0  0  0  0  0  0  0  0  0  0
    9.4601   -2.6590   25.6528 C   0  0  0  0  0  0  0  0  0  0  0  0
   10.1182   -1.5672   23.1165 C   0  0  0  0  0  0  0  0  0  0  0  0
    1.0552   -9.6360   17.0650 C   0  0  0  0  0  0  0  0  0  0  0  0
    3.6519   -9.1783   16.9039 C   0  0  0  0  0  0  0  0  0  0  0  0
    7.8675   -7.0096   15.9415 C   0  0  0  0  0  0  0  0  0  0  0  0
    5.9733   -9.6553   17.3832 N   0  0  0  0  0  0  0  0  0  0  0  0
   10.2411   -2.9363   23.4301 C   0  0  0  0  0  0  0  0  0  0  0  0
   10.7288   -3.8197   19.9525 C   0  0  0  0  0  0  0  0  0  0  0  0
   10.1189   -5.0054   19.6987 C   0  0  0  0  0  0  0  0  0  0  0  0
  1  3  4  0
  1  7  4  0
  2 21  4  0
  2 27  4  0
  3  9  4  0
  3 10  4  0
  4  8  4  0
  4 18  4  0
  4 25  1  0
  5  9  4  0
  5 12  4  0
  6 13  1  0
  6 27  1  0
  7 28  4  0
  8 11  4  0
  9 29  4  0
 10 12  4  0
 11 24  1  0
 11 26  4  0
 12 25  1  0
 13 28  1  0
 14 20  4  0
 14 23  4  0
 15 17  4  0
 15 21  4  0
 16 19  4  0
 16 23  4  0
 17 22  4  0
 18 26  4  0
 19 24  4  0
 20 24  4  0
 22 27  4  0
 28 29  4  0
M  END
$$$$

 Created by Python create_sdf_string function

 29 33  0  0  0  0  0  0  0  0999 V2000
   10.7215   -3.3326   17.6437 C   0  0  0  0  0  0  0  0  0  0  0  0
    9.9489   -3.4675   24.6487 N   0  0  0  0  0  0  0  0  0  0  0  0
   10.0172   -4.4740   17.4101 C   0  0  0  0  0  0  0  0  0  0  0  0
    6.9051   -7.9575   16.4222 C   0  0  0  0  0  0  0  0  0  0  0  0
    8.9969   -6.3552   17.9668 N   0  0  0  0  0  0  0  0  0  0  0  0
   10.6702   -3.9051   22.4070 C   0  0  0  0  0  0  0  0  0  0  0  0
   11.0625   -3.0028   18.8894 C   0  0  0  0  0  0  0  0  0  0  0  0
    5.6180   -7.9194   16.1754 O   0  0  0  0  0  0  0  0  0  0  0  0
    9.7259   -5.3080   18.4485 C   0  0  0  0  0  0  0  0  0  0  0  0
    9.4578   -5.0200   16.3036 N   0  0  0  0  0  0  0  0  0  0  0  0
    5.0287   -8.9365   16.8223 C   0  0  0  0  0  0  0  0  0  0  0  0
    8.7742   -6.1498   16.6764 C   0  0  0  0  0  0  0  0  0  0  0  0
   10.9418   -3.4032   21.2053 O   0  0  0  0  0  0  0  0  0  0  0  0
    1.4797   -8.6258   16.2950 C   0  0  0  0  0  0  0  0  0  0  0  0
    9.2861   -1.2743   25.3585 C   0  0  0  0  0  0  0  0  0  0  0  0
    1.8892  -10.3985   17.7511 N   0  0  0  0  0  0  0  0  0  0  0  0
    9.6210   -0.6952   24.0976 C   0  0  0  0  0  0  0  0  0  0  0  0
    7.0792   -9.0217   17.1429 C   0  0  0  0  0  0  0  0  0  0  0  0
    3.1713  -10.1816   17.6634 C   0  0  0  0  0  0  0  0  0  0  0  0
    2.7878   -8.3822   16.2137 C   0  0  0  0  0  0  0  0  0  0  0  0
    9.4601   -2.6590   25.6528 C   0  0  0  0  0  0  0  0  0  0  0  0
   10.1182   -1.5672   23.1165 C   0  0  0  0  0  0  0  0  0  0  0  0
    1.0552   -9.6360   17.0650 C   0  0  0  0  0  0  0  0  0  0  0  0
    3.6519   -9.1783   16.9039 C   0  0  0  0  0  0  0  0  0  0  0  0
    7.8675   -7.0096   15.9415 C   0  0  0  0  0  0  0  0  0  0  0  0
    5.9733   -9.6553   17.3832 N   0  0  0  0  0  0  0  0  0  0  0  0
   10.2411   -2.9363   23.4301 C   0  0  0  0  0  0  0  0  0  0  0  0
   10.7288   -3.8197   19.9525 C   0  0  0  0  0  0  0  0  0  0  0  0
   10.1189   -5.0054   19.6987 C   0  0  0  0  0  0  0  0  0  0  0  0
  1  3  4  0
  1  7  4  0
  2 21  4  0
  2 27  4  0
  3  9  4  0
  3 10  4  0
  4  8  4  0
  4 18  4  0
  4 25  1  0
  5  9  4  0
  5 12  4  0
  6 13  1  0
  6 27  1  0
  7 28  4  0
  8 11  4  0
  9 29  4  0
 10 12  4  0
 11 24  1  0
 11 26  4  0
 12 25  1  0
 13 28  1  0
 14 20  4  0
 14 23  4  0
 15 17  4  0
 15 21  4  0
 16 19  4  0
 16 23  4  0
 17 22  4  0
 18 26  4  0
 19 24  4  0
 20 24  4  0
 22 27  4  0
 28 29  4  0
M  END
$$$$

 Created by Python create_sdf_string function

 29 33  0  0  0  0  0  0  0  0999 V2000
   10.7215   -3.3326   17.6437 C   0  0  0  0  0  0  0  0  0  0  0  0
    9.9489   -3.4675   24.6487 N   0  0  0  0  0  0  0  0  0  0  0  0
   10.0172   -4.4740   17.4101 C   0  0  0  0  0  0  0  0  0  0  0  0
    6.9051   -7.9575   16.4222 C   0  0  0  0  0  0  0  0  0  0  0  0
    8.9969   -6.3552   17.9668 N   0  0  0  0  0  0  0  0  0  0  0  0
   10.6702   -3.9051   22.4070 C   0  0  0  0  0  0  0  0  0  0  0  0
   11.0625   -3.0028   18.8894 C   0  0  0  0  0  0  0  0  0  0  0  0
    5.6180   -7.9194   16.1754 O   0  0  0  0  0  0  0  0  0  0  0  0
    9.7259   -5.3080   18.4485 C   0  0  0  0  0  0  0  0  0  0  0  0
    9.4578   -5.0200   16.3036 N   0  0  0  0  0  0  0  0  0  0  0  0
    5.0287   -8.9365   16.8223 C   0  0  0  0  0  0  0  0  0  0  0  0
    8.7742   -6.1498   16.6764 C   0  0  0  0  0  0  0  0  0  0  0  0
   10.9418   -3.4032   21.2053 O   0  0  0  0  0  0  0  0  0  0  0  0
    1.4797   -8.6258   16.2950 C   0  0  0  0  0  0  0  0  0  0  0  0
    9.2861   -1.2743   25.3585 C   0  0  0  0  0  0  0  0  0  0  0  0
    1.8892  -10.3985   17.7511 N   0  0  0  0  0  0  0  0  0  0  0  0
    9.6210   -0.6952   24.0976 C   0  0  0  0  0  0  0  0  0  0  0  0
    7.0792   -9.0217   17.1429 C   0  0  0  0  0  0  0  0  0  0  0  0
    3.1713  -10.1816   17.6634 C   0  0  0  0  0  0  0  0  0  0  0  0
    2.7878   -8.3822   16.2137 C   0  0  0  0  0  0  0  0  0  0  0  0
    9.4601   -2.6590   25.6528 C   0  0  0  0  0  0  0  0  0  0  0  0
   10.1182   -1.5672   23.1165 C   0  0  0  0  0  0  0  0  0  0  0  0
    1.0552   -9.6360   17.0650 C   0  0  0  0  0  0  0  0  0  0  0  0
    3.6519   -9.1783   16.9039 C   0  0  0  0  0  0  0  0  0  0  0  0
    7.8675   -7.0096   15.9415 C   0  0  0  0  0  0  0  0  0  0  0  0
    5.9733   -9.6553   17.3832 N   0  0  0  0  0  0  0  0  0  0  0  0
   10.2411   -2.9363   23.4301 C   0  0  0  0  0  0  0  0  0  0  0  0
   10.7288   -3.8197   19.9525 C   0  0  0  0  0  0  0  0  0  0  0  0
   10.1189   -5.0054   19.6987 C   0  0  0  0  0  0  0  0  0  0  0  0
  1  3  4  0
  1  7  4  0
  2 21  4  0
  2 27  4  0
  3  9  4  0
  3 10  4  0
  4  8  4  0
  4 18  4  0
  4 25  1  0
  5  9  4  0
  5 12  4  0
  6 13  1  0
  6 27  1  0
  7 28  4  0
  8 11  4  0
  9 29  4  0
 10 12  4  0
 11 24  1  0
 11 26  4  0
 12 25  1  0
 13 28  1  0
 14 20  4  0
 14 23  4  0
 15 17  4  0
 15 21  4  0
 16 19  4  0
 16 23  4  0
 17 22  4  0
 18 26  4  0
 19 24  4  0
 20 24  4  0
 22 27  4  0
 28 29  4  0
M  END
$$$$

 Created by Python create_sdf_string function

 29 33  0  0  0  0  0  0  0  0999 V2000
   10.7215   -3.3326   17.6437 C   0  0  0  0  0  0  0  0  0  0  0  0
    9.9489   -3.4675   24.6487 N   0  0  0  0  0  0  0  0  0  0  0  0
   10.0172   -4.4740   17.4101 C   0  0  0  0  0  0  0  0  0  0  0  0
    6.9051   -7.9575   16.4222 C   0  0  0  0  0  0  0  0  0  0  0  0
    8.9969   -6.3552   17.9668 N   0  0  0  0  0  0  0  0  0  0  0  0
   10.6702   -3.9051   22.4070 C   0  0  0  0  0  0  0  0  0  0  0  0
   11.0625   -3.0028   18.8894 C   0  0  0  0  0  0  0  0  0  0  0  0
    5.6180   -7.9194   16.1754 O   0  0  0  0  0  0  0  0  0  0  0  0
    9.7259   -5.3080   18.4485 C   0  0  0  0  0  0  0  0  0  0  0  0
    9.4578   -5.0200   16.3036 N   0  0  0  0  0  0  0  0  0  0  0  0
    5.0287   -8.9365   16.8223 C   0  0  0  0  0  0  0  0  0  0  0  0
    8.7742   -6.1498   16.6764 C   0  0  0  0  0  0  0  0  0  0  0  0
   10.9418   -3.4032   21.2053 O   0  0  0  0  0  0  0  0  0  0  0  0
    1.4797   -8.6258   16.2950 C   0  0  0  0  0  0  0  0  0  0  0  0
    9.2861   -1.2743   25.3585 C   0  0  0  0  0  0  0  0  0  0  0  0
    1.8892  -10.3985   17.7511 N   0  0  0  0  0  0  0  0  0  0  0  0
    9.6210   -0.6952   24.0976 C   0  0  0  0  0  0  0  0  0  0  0  0
    7.0792   -9.0217   17.1429 C   0  0  0  0  0  0  0  0  0  0  0  0
    3.1713  -10.1816   17.6634 C   0  0  0  0  0  0  0  0  0  0  0  0
    2.7878   -8.3822   16.2137 C   0  0  0  0  0  0  0  0  0  0  0  0
    9.4601   -2.6590   25.6528 C   0  0  0  0  0  0  0  0  0  0  0  0
   10.1182   -1.5672   23.1165 C   0  0  0  0  0  0  0  0  0  0  0  0
    1.0552   -9.6360   17.0650 C   0  0  0  0  0  0  0  0  0  0  0  0
    3.6519   -9.1783   16.9039 C   0  0  0  0  0  0  0  0  0  0  0  0
    7.8675   -7.0096   15.9415 C   0  0  0  0  0  0  0  0  0  0  0  0
    5.9733   -9.6553   17.3832 N   0  0  0  0  0  0  0  0  0  0  0  0
   10.2411   -2.9363   23.4301 C   0  0  0  0  0  0  0  0  0  0  0  0
   10.7288   -3.8197   19.9525 C   0  0  0  0  0  0  0  0  0  0  0  0
   10.1189   -5.0054   19.6987 C   0  0  0  0  0  0  0  0  0  0  0  0
  1  3  4  0
  1  7  4  0
  2 21  4  0
  2 27  4  0
  3  9  4  0
  3 10  4  0
  4  8  4  0
  4 18  4  0
  4 25  1  0
  5  9  4  0
  5 12  4  0
  6 13  1  0
  6 27  1  0
  7 28  4  0
  8 11  4  0
  9 29  4  0
 10 12  4  0
 11 24  1  0
 11 26  4  0
 12 25  1  0
 13 28  1  0
 14 20  4  0
 14 23  4  0
 15 17  4  0
 15 21  4  0
 16 19  4  0
 16 23  4  0
 17 22  4  0
 18 26  4  0
 19 24  4  0
 20 24  4  0
 22 27  4  0
 28 29  4  0
M  END
$$$$

 Created by Python create_sdf_string function

 29 33  0  0  0  0  0  0  0  0999 V2000
   10.7215   -3.3326   17.6437 C   0  0  0  0  0  0  0  0  0  0  0  0
    9.9489   -3.4675   24.6487 N   0  0  0  0  0  0  0  0  0  0  0  0
   10.0172   -4.4740   17.4101 C   0  0  0  0  0  0  0  0  0  0  0  0
    6.9051   -7.9575   16.4222 C   0  0  0  0  0  0  0  0  0  0  0  0
    8.9969   -6.3552   17.9668 N   0  0  0  0  0  0  0  0  0  0  0  0
   10.6702   -3.9051   22.4070 C   0  0  0  0  0  0  0  0  0  0  0  0
   11.0625   -3.0028   18.8894 C   0  0  0  0  0  0  0  0  0  0  0  0
    5.6180   -7.9194   16.1754 O   0  0  0  0  0  0  0  0  0  0  0  0
    9.7259   -5.3080   18.4485 C   0  0  0  0  0  0  0  0  0  0  0  0
    9.4578   -5.0200   16.3036 N   0  0  0  0  0  0  0  0  0  0  0  0
    5.0287   -8.9365   16.8223 C   0  0  0  0  0  0  0  0  0  0  0  0
    8.7742   -6.1498   16.6764 C   0  0  0  0  0  0  0  0  0  0  0  0
   10.9418   -3.4032   21.2053 O   0  0  0  0  0  0  0  0  0  0  0  0
    1.4797   -8.6258   16.2950 C   0  0  0  0  0  0  0  0  0  0  0  0
    9.2861   -1.2743   25.3585 C   0  0  0  0  0  0  0  0  0  0  0  0
    1.8892  -10.3985   17.7511 N   0  0  0  0  0  0  0  0  0  0  0  0
    9.6210   -0.6952   24.0976 C   0  0  0  0  0  0  0  0  0  0  0  0
    7.0792   -9.0217   17.1429 C   0  0  0  0  0  0  0  0  0  0  0  0
    3.1713  -10.1816   17.6634 C   0  0  0  0  0  0  0  0  0  0  0  0
    2.7878   -8.3822   16.2137 C   0  0  0  0  0  0  0  0  0  0  0  0
    9.4601   -2.6590   25.6528 C   0  0  0  0  0  0  0  0  0  0  0  0
   10.1182   -1.5672   23.1165 C   0  0  0  0  0  0  0  0  0  0  0  0
    1.0552   -9.6360   17.0650 C   0  0  0  0  0  0  0  0  0  0  0  0
    3.6519   -9.1783   16.9039 C   0  0  0  0  0  0  0  0  0  0  0  0
    7.8675   -7.0096   15.9415 C   0  0  0  0  0  0  0  0  0  0  0  0
    5.9733   -9.6553   17.3832 N   0  0  0  0  0  0  0  0  0  0  0  0
   10.2411   -2.9363   23.4301 C   0  0  0  0  0  0  0  0  0  0  0  0
   10.7288   -3.8197   19.9525 C   0  0  0  0  0  0  0  0  0  0  0  0
   10.1189   -5.0054   19.6987 C   0  0  0  0  0  0  0  0  0  0  0  0
  1  3  4  0
  1  7  4  0
  2 21  4  0
  2 27  4  0
  3  9  4  0
  3 10  4  0
  4  8  4  0
  4 18  4  0
  4 25  1  0
  5  9  4  0
  5 12  4  0
  6 13  1  0
  6 27  1  0
  7 28  4  0
  8 11  4  0
  9 29  4  0
 10 12  4  0
 11 24  1  0
 11 26  4  0
 12 25  1  0
 13 28  1  0
 14 20  4  0
 14 23  4  0
 15 17  4  0
 15 21  4  0
 16 19  4  0
 16 23  4  0
 17 22  4  0
 18 26  4  0
 19 24  4  0
 20 24  4  0
 22 27  4  0
 28 29  4  0
M  END
$$$$

 Created by Python create_sdf_string function

 29 33  0  0  0  0  0  0  0  0999 V2000
   10.7215   -3.3326   17.6437 C   0  0  0  0  0  0  0  0  0  0  0  0
    9.9489   -3.4675   24.6487 N   0  0  0  0  0  0  0  0  0  0  0  0
   10.0172   -4.4740   17.4101 C   0  0  0  0  0  0  0  0  0  0  0  0
    6.9051   -7.9575   16.4222 C   0  0  0  0  0  0  0  0  0  0  0  0
    8.9969   -6.3552   17.9668 N   0  0  0  0  0  0  0  0  0  0  0  0
   10.6702   -3.9051   22.4070 C   0  0  0  0  0  0  0  0  0  0  0  0
   11.0625   -3.0028   18.8894 C   0  0  0  0  0  0  0  0  0  0  0  0
    5.6180   -7.9194   16.1754 O   0  0  0  0  0  0  0  0  0  0  0  0
    9.7259   -5.3080   18.4485 C   0  0  0  0  0  0  0  0  0  0  0  0
    9.4578   -5.0200   16.3036 N   0  0  0  0  0  0  0  0  0  0  0  0
    5.0287   -8.9365   16.8223 C   0  0  0  0  0  0  0  0  0  0  0  0
    8.7742   -6.1498   16.6764 C   0  0  0  0  0  0  0  0  0  0  0  0
   10.9418   -3.4032   21.2053 O   0  0  0  0  0  0  0  0  0  0  0  0
    1.4797   -8.6258   16.2950 C   0  0  0  0  0  0  0  0  0  0  0  0
    9.2861   -1.2743   25.3585 C   0  0  0  0  0  0  0  0  0  0  0  0
    1.8892  -10.3985   17.7511 N   0  0  0  0  0  0  0  0  0  0  0  0
    9.6210   -0.6952   24.0976 C   0  0  0  0  0  0  0  0  0  0  0  0
    7.0792   -9.0217   17.1429 C   0  0  0  0  0  0  0  0  0  0  0  0
    3.1713  -10.1816   17.6634 C   0  0  0  0  0  0  0  0  0  0  0  0
    2.7878   -8.3822   16.2137 C   0  0  0  0  0  0  0  0  0  0  0  0
    9.4601   -2.6590   25.6528 C   0  0  0  0  0  0  0  0  0  0  0  0
   10.1182   -1.5672   23.1165 C   0  0  0  0  0  0  0  0  0  0  0  0
    1.0552   -9.6360   17.0650 C   0  0  0  0  0  0  0  0  0  0  0  0
    3.6519   -9.1783   16.9039 C   0  0  0  0  0  0  0  0  0  0  0  0
    7.8675   -7.0096   15.9415 C   0  0  0  0  0  0  0  0  0  0  0  0
    5.9733   -9.6553   17.3832 N   0  0  0  0  0  0  0  0  0  0  0  0
   10.2411   -2.9363   23.4301 C   0  0  0  0  0  0  0  0  0  0  0  0
   10.7288   -3.8197   19.9525 C   0  0  0  0  0  0  0  0  0  0  0  0
   10.1189   -5.0054   19.6987 C   0  0  0  0  0  0  0  0  0  0  0  0
  1  3  4  0
  1  7  4  0
  2 21  4  0
  2 27  4  0
  3  9  4  0
  3 10  4  0
  4  8  4  0
  4 18  4  0
  4 25  1  0
  5  9  4  0
  5 12  4  0
  6 13  1  0
  6 27  1  0
  7 28  4  0
  8 11  4  0
  9 29  4  0
 10 12  4  0
 11 24  1  0
 11 26  4  0
 12 25  1  0
 13 28  1  0
 14 20  4  0
 14 23  4  0
 15 17  4  0
 15 21  4  0
 16 19  4  0
 16 23  4  0
 17 22  4  0
 18 26  4  0
 19 24  4  0
 20 24  4  0
 22 27  4  0
 28 29  4  0
M  END
$$$$

 Created by Python create_sdf_string function

 29 33  0  0  0  0  0  0  0  0999 V2000
   10.7215   -3.3326   17.6437 C   0  0  0  0  0  0  0  0  0  0  0  0
    9.9489   -3.4675   24.6487 N   0  0  0  0  0  0  0  0  0  0  0  0
   10.0172   -4.4740   17.4101 C   0  0  0  0  0  0  0  0  0  0  0  0
    6.9051   -7.9575   16.4222 C   0  0  0  0  0  0  0  0  0  0  0  0
    8.9969   -6.3552   17.9668 N   0  0  0  0  0  0  0  0  0  0  0  0
   10.6702   -3.9051   22.4070 C   0  0  0  0  0  0  0  0  0  0  0  0
   11.0625   -3.0028   18.8894 C   0  0  0  0  0  0  0  0  0  0  0  0
    5.6180   -7.9194   16.1754 O   0  0  0  0  0  0  0  0  0  0  0  0
    9.7259   -5.3080   18.4485 C   0  0  0  0  0  0  0  0  0  0  0  0
    9.4578   -5.0200   16.3036 N   0  0  0  0  0  0  0  0  0  0  0  0
    5.0287   -8.9365   16.8223 C   0  0  0  0  0  0  0  0  0  0  0  0
    8.7742   -6.1498   16.6764 C   0  0  0  0  0  0  0  0  0  0  0  0
   10.9418   -3.4032   21.2053 O   0  0  0  0  0  0  0  0  0  0  0  0
    1.4797   -8.6258   16.2950 C   0  0  0  0  0  0  0  0  0  0  0  0
    9.2861   -1.2743   25.3585 C   0  0  0  0  0  0  0  0  0  0  0  0
    1.8892  -10.3985   17.7511 N   0  0  0  0  0  0  0  0  0  0  0  0
    9.6210   -0.6952   24.0976 C   0  0  0  0  0  0  0  0  0  0  0  0
    7.0792   -9.0217   17.1429 C   0  0  0  0  0  0  0  0  0  0  0  0
    3.1713  -10.1816   17.6634 C   0  0  0  0  0  0  0  0  0  0  0  0
    2.7878   -8.3822   16.2137 C   0  0  0  0  0  0  0  0  0  0  0  0
    9.4601   -2.6590   25.6528 C   0  0  0  0  0  0  0  0  0  0  0  0
   10.1182   -1.5672   23.1165 C   0  0  0  0  0  0  0  0  0  0  0  0
    1.0552   -9.6360   17.0650 C   0  0  0  0  0  0  0  0  0  0  0  0
    3.6519   -9.1783   16.9039 C   0  0  0  0  0  0  0  0  0  0  0  0
    7.8675   -7.0096   15.9415 C   0  0  0  0  0  0  0  0  0  0  0  0
    5.9733   -9.6553   17.3832 N   0  0  0  0  0  0  0  0  0  0  0  0
   10.2411   -2.9363   23.4301 C   0  0  0  0  0  0  0  0  0  0  0  0
   10.7288   -3.8197   19.9525 C   0  0  0  0  0  0  0  0  0  0  0  0
   10.1189   -5.0054   19.6987 C   0  0  0  0  0  0  0  0  0  0  0  0
  1  3  4  0
  1  7  4  0
  2 21  4  0
  2 27  4  0
  3  9  4  0
  3 10  4  0
  4  8  4  0
  4 18  4  0
  4 25  1  0
  5  9  4  0
  5 12  4  0
  6 13  1  0
  6 27  1  0
  7 28  4  0
  8 11  4  0
  9 29  4  0
 10 12  4  0
 11 24  1  0
 11 26  4  0
 12 25  1  0
 13 28  1  0
 14 20  4  0
 14 23  4  0
 15 17  4  0
 15 21  4  0
 16 19  4  0
 16 23  4  0
 17 22  4  0
 18 26  4  0
 19 24  4  0
 20 24  4  0
 22 27  4  0
 28 29  4  0
M  END
$$$$

 Created by Python create_sdf_string function

 29 33  0  0  0  0  0  0  0  0999 V2000
   10.7215   -3.3326   17.6437 C   0  0  0  0  0  0  0  0  0  0  0  0
    9.9489   -3.4675   24.6487 N   0  0  0  0  0  0  0  0  0  0  0  0
   10.0172   -4.4740   17.4101 C   0  0  0  0  0  0  0  0  0  0  0  0
    6.9051   -7.9575   16.4222 C   0  0  0  0  0  0  0  0  0  0  0  0
    8.9969   -6.3552   17.9668 N   0  0  0  0  0  0  0  0  0  0  0  0
   10.6702   -3.9051   22.4070 C   0  0  0  0  0  0  0  0  0  0  0  0
   11.0625   -3.0028   18.8894 C   0  0  0  0  0  0  0  0  0  0  0  0
    5.6180   -7.9194   16.1754 O   0  0  0  0  0  0  0  0  0  0  0  0
    9.7259   -5.3080   18.4485 C   0  0  0  0  0  0  0  0  0  0  0  0
    9.4578   -5.0200   16.3036 N   0  0  0  0  0  0  0  0  0  0  0  0
    5.0287   -8.9365   16.8223 C   0  0  0  0  0  0  0  0  0  0  0  0
    8.7742   -6.1498   16.6764 C   0  0  0  0  0  0  0  0  0  0  0  0
   10.9418   -3.4032   21.2053 O   0  0  0  0  0  0  0  0  0  0  0  0
    1.4797   -8.6258   16.2950 C   0  0  0  0  0  0  0  0  0  0  0  0
    9.2861   -1.2743   25.3585 C   0  0  0  0  0  0  0  0  0  0  0  0
    1.8892  -10.3985   17.7511 N   0  0  0  0  0  0  0  0  0  0  0  0
    9.6210   -0.6952   24.0976 C   0  0  0  0  0  0  0  0  0  0  0  0
    7.0792   -9.0217   17.1429 C   0  0  0  0  0  0  0  0  0  0  0  0
    3.1713  -10.1816   17.6634 C   0  0  0  0  0  0  0  0  0  0  0  0
    2.7878   -8.3822   16.2137 C   0  0  0  0  0  0  0  0  0  0  0  0
    9.4601   -2.6590   25.6528 C   0  0  0  0  0  0  0  0  0  0  0  0
   10.1182   -1.5672   23.1165 C   0  0  0  0  0  0  0  0  0  0  0  0
    1.0552   -9.6360   17.0650 C   0  0  0  0  0  0  0  0  0  0  0  0
    3.6519   -9.1783   16.9039 C   0  0  0  0  0  0  0  0  0  0  0  0
    7.8675   -7.0096   15.9415 C   0  0  0  0  0  0  0  0  0  0  0  0
    5.9733   -9.6553   17.3832 N   0  0  0  0  0  0  0  0  0  0  0  0
   10.2411   -2.9363   23.4301 C   0  0  0  0  0  0  0  0  0  0  0  0
   10.7288   -3.8197   19.9525 C   0  0  0  0  0  0  0  0  0  0  0  0
   10.1189   -5.0054   19.6987 C   0  0  0  0  0  0  0  0  0  0  0  0
  1  3  4  0
  1  7  4  0
  2 21  4  0
  2 27  4  0
  3  9  4  0
  3 10  4  0
  4  8  4  0
  4 18  4  0
  4 25  1  0
  5  9  4  0
  5 12  4  0
  6 13  1  0
  6 27  1  0
  7 28  4  0
  8 11  4  0
  9 29  4  0
 10 12  4  0
 11 24  1  0
 11 26  4  0
 12 25  1  0
 13 28  1  0
 14 20  4  0
 14 23  4  0
 15 17  4  0
 15 21  4  0
 16 19  4  0
 16 23  4  0
 17 22  4  0
 18 26  4  0
 19 24  4  0
 20 24  4  0
 22 27  4  0
 28 29  4  0
M  END
$$$$

 Created by Python create_sdf_string function

 29 33  0  0  0  0  0  0  0  0999 V2000
   10.7215   -3.3326   17.6437 C   0  0  0  0  0  0  0  0  0  0  0  0
    9.9489   -3.4675   24.6487 N   0  0  0  0  0  0  0  0  0  0  0  0
   10.0172   -4.4740   17.4101 C   0  0  0  0  0  0  0  0  0  0  0  0
    6.9051   -7.9575   16.4222 C   0  0  0  0  0  0  0  0  0  0  0  0
    8.9969   -6.3552   17.9668 N   0  0  0  0  0  0  0  0  0  0  0  0
   10.6702   -3.9051   22.4070 C   0  0  0  0  0  0  0  0  0  0  0  0
   11.0625   -3.0028   18.8894 C   0  0  0  0  0  0  0  0  0  0  0  0
    5.6180   -7.9194   16.1754 O   0  0  0  0  0  0  0  0  0  0  0  0
    9.7259   -5.3080   18.4485 C   0  0  0  0  0  0  0  0  0  0  0  0
    9.4578   -5.0200   16.3036 N   0  0  0  0  0  0  0  0  0  0  0  0
    5.0287   -8.9365   16.8223 C   0  0  0  0  0  0  0  0  0  0  0  0
    8.7742   -6.1498   16.6764 C   0  0  0  0  0  0  0  0  0  0  0  0
   10.9418   -3.4032   21.2053 O   0  0  0  0  0  0  0  0  0  0  0  0
    1.4797   -8.6258   16.2950 C   0  0  0  0  0  0  0  0  0  0  0  0
    9.2861   -1.2743   25.3585 C   0  0  0  0  0  0  0  0  0  0  0  0
    1.8892  -10.3985   17.7511 N   0  0  0  0  0  0  0  0  0  0  0  0
    9.6210   -0.6952   24.0976 C   0  0  0  0  0  0  0  0  0  0  0  0
    7.0792   -9.0217   17.1429 C   0  0  0  0  0  0  0  0  0  0  0  0
    3.1713  -10.1816   17.6634 C   0  0  0  0  0  0  0  0  0  0  0  0
    2.7878   -8.3822   16.2137 C   0  0  0  0  0  0  0  0  0  0  0  0
    9.4601   -2.6590   25.6528 C   0  0  0  0  0  0  0  0  0  0  0  0
   10.1182   -1.5672   23.1165 C   0  0  0  0  0  0  0  0  0  0  0  0
    1.0552   -9.6360   17.0650 C   0  0  0  0  0  0  0  0  0  0  0  0
    3.6519   -9.1783   16.9039 C   0  0  0  0  0  0  0  0  0  0  0  0
    7.8675   -7.0096   15.9415 C   0  0  0  0  0  0  0  0  0  0  0  0
    5.9733   -9.6553   17.3832 N   0  0  0  0  0  0  0  0  0  0  0  0
   10.2411   -2.9363   23.4301 C   0  0  0  0  0  0  0  0  0  0  0  0
   10.7288   -3.8197   19.9525 C   0  0  0  0  0  0  0  0  0  0  0  0
   10.1189   -5.0054   19.6987 C   0  0  0  0  0  0  0  0  0  0  0  0
  1  3  4  0
  1  7  4  0
  2 21  4  0
  2 27  4  0
  3  9  4  0
  3 10  4  0
  4  8  4  0
  4 18  4  0
  4 25  1  0
  5  9  4  0
  5 12  4  0
  6 13  1  0
  6 27  1  0
  7 28  4  0
  8 11  4  0
  9 29  4  0
 10 12  4  0
 11 24  1  0
 11 26  4  0
 12 25  1  0
 13 28  1  0
 14 20  4  0
 14 23  4  0
 15 17  4  0
 15 21  4  0
 16 19  4  0
 16 23  4  0
 17 22  4  0
 18 26  4  0
 19 24  4  0
 20 24  4  0
 22 27  4  0
 28 29  4  0
M  END
$$$$

 Created by Python create_sdf_string function

 29 33  0  0  0  0  0  0  0  0999 V2000
   10.7215   -3.3326   17.6437 C   0  0  0  0  0  0  0  0  0  0  0  0
    9.9489   -3.4675   24.6487 N   0  0  0  0  0  0  0  0  0  0  0  0
   10.0172   -4.4740   17.4101 C   0  0  0  0  0  0  0  0  0  0  0  0
    6.9051   -7.9575   16.4222 C   0  0  0  0  0  0  0  0  0  0  0  0
    8.9969   -6.3552   17.9668 N   0  0  0  0  0  0  0  0  0  0  0  0
   10.6702   -3.9051   22.4070 C   0  0  0  0  0  0  0  0  0  0  0  0
   11.0625   -3.0028   18.8894 C   0  0  0  0  0  0  0  0  0  0  0  0
    5.6180   -7.9194   16.1754 O   0  0  0  0  0  0  0  0  0  0  0  0
    9.7259   -5.3080   18.4485 C   0  0  0  0  0  0  0  0  0  0  0  0
    9.4578   -5.0200   16.3036 N   0  0  0  0  0  0  0  0  0  0  0  0
    5.0287   -8.9365   16.8223 C   0  0  0  0  0  0  0  0  0  0  0  0
    8.7742   -6.1498   16.6764 C   0  0  0  0  0  0  0  0  0  0  0  0
   10.9418   -3.4032   21.2053 O   0  0  0  0  0  0  0  0  0  0  0  0
    1.4797   -8.6258   16.2950 C   0  0  0  0  0  0  0  0  0  0  0  0
    9.2861   -1.2743   25.3585 C   0  0  0  0  0  0  0  0  0  0  0  0
    1.8892  -10.3985   17.7511 N   0  0  0  0  0  0  0  0  0  0  0  0
    9.6210   -0.6952   24.0976 C   0  0  0  0  0  0  0  0  0  0  0  0
    7.0792   -9.0217   17.1429 C   0  0  0  0  0  0  0  0  0  0  0  0
    3.1713  -10.1816   17.6634 C   0  0  0  0  0  0  0  0  0  0  0  0
    2.7878   -8.3822   16.2137 C   0  0  0  0  0  0  0  0  0  0  0  0
    9.4601   -2.6590   25.6528 C   0  0  0  0  0  0  0  0  0  0  0  0
   10.1182   -1.5672   23.1165 C   0  0  0  0  0  0  0  0  0  0  0  0
    1.0552   -9.6360   17.0650 C   0  0  0  0  0  0  0  0  0  0  0  0
    3.6519   -9.1783   16.9039 C   0  0  0  0  0  0  0  0  0  0  0  0
    7.8675   -7.0096   15.9415 C   0  0  0  0  0  0  0  0  0  0  0  0
    5.9733   -9.6553   17.3832 N   0  0  0  0  0  0  0  0  0  0  0  0
   10.2411   -2.9363   23.4301 C   0  0  0  0  0  0  0  0  0  0  0  0
   10.7288   -3.8197   19.9525 C   0  0  0  0  0  0  0  0  0  0  0  0
   10.1189   -5.0054   19.6987 C   0  0  0  0  0  0  0  0  0  0  0  0
  1  3  4  0
  1  7  4  0
  2 21  4  0
  2 27  4  0
  3  9  4  0
  3 10  4  0
  4  8  4  0
  4 18  4  0
  4 25  1  0
  5  9  4  0
  5 12  4  0
  6 13  1  0
  6 27  1  0
  7 28  4  0
  8 11  4  0
  9 29  4  0
 10 12  4  0
 11 24  1  0
 11 26  4  0
 12 25  1  0
 13 28  1  0
 14 20  4  0
 14 23  4  0
 15 17  4  0
 15 21  4  0
 16 19  4  0
 16 23  4  0
 17 22  4  0
 18 26  4  0
 19 24  4  0
 20 24  4  0
 22 27  4  0
 28 29  4  0
M  END
$$$$

 Created by Python create_sdf_string function

 29 33  0  0  0  0  0  0  0  0999 V2000
   10.7215   -3.3326   17.6437 C   0  0  0  0  0  0  0  0  0  0  0  0
    9.9489   -3.4675   24.6487 N   0  0  0  0  0  0  0  0  0  0  0  0
   10.0172   -4.4740   17.4101 C   0  0  0  0  0  0  0  0  0  0  0  0
    6.9051   -7.9575   16.4222 C   0  0  0  0  0  0  0  0  0  0  0  0
    8.9969   -6.3552   17.9668 N   0  0  0  0  0  0  0  0  0  0  0  0
   10.6702   -3.9051   22.4070 C   0  0  0  0  0  0  0  0  0  0  0  0
   11.0625   -3.0028   18.8894 C   0  0  0  0  0  0  0  0  0  0  0  0
    5.6180   -7.9194   16.1754 O   0  0  0  0  0  0  0  0  0  0  0  0
    9.7259   -5.3080   18.4485 C   0  0  0  0  0  0  0  0  0  0  0  0
    9.4578   -5.0200   16.3036 N   0  0  0  0  0  0  0  0  0  0  0  0
    5.0287   -8.9365   16.8223 C   0  0  0  0  0  0  0  0  0  0  0  0
    8.7742   -6.1498   16.6764 C   0  0  0  0  0  0  0  0  0  0  0  0
   10.9418   -3.4032   21.2053 O   0  0  0  0  0  0  0  0  0  0  0  0
    1.4797   -8.6258   16.2950 C   0  0  0  0  0  0  0  0  0  0  0  0
    9.2861   -1.2743   25.3585 C   0  0  0  0  0  0  0  0  0  0  0  0
    1.8892  -10.3985   17.7511 N   0  0  0  0  0  0  0  0  0  0  0  0
    9.6210   -0.6952   24.0976 C   0  0  0  0  0  0  0  0  0  0  0  0
    7.0792   -9.0217   17.1429 C   0  0  0  0  0  0  0  0  0  0  0  0
    3.1713  -10.1816   17.6634 C   0  0  0  0  0  0  0  0  0  0  0  0
    2.7878   -8.3822   16.2137 C   0  0  0  0  0  0  0  0  0  0  0  0
    9.4601   -2.6590   25.6528 C   0  0  0  0  0  0  0  0  0  0  0  0
   10.1182   -1.5672   23.1165 C   0  0  0  0  0  0  0  0  0  0  0  0
    1.0552   -9.6360   17.0650 C   0  0  0  0  0  0  0  0  0  0  0  0
    3.6519   -9.1783   16.9039 C   0  0  0  0  0  0  0  0  0  0  0  0
    7.8675   -7.0096   15.9415 C   0  0  0  0  0  0  0  0  0  0  0  0
    5.9733   -9.6553   17.3832 N   0  0  0  0  0  0  0  0  0  0  0  0
   10.2411   -2.9363   23.4301 C   0  0  0  0  0  0  0  0  0  0  0  0
   10.7288   -3.8197   19.9525 C   0  0  0  0  0  0  0  0  0  0  0  0
   10.1189   -5.0054   19.6987 C   0  0  0  0  0  0  0  0  0  0  0  0
  1  3  4  0
  1  7  4  0
  2 21  4  0
  2 27  4  0
  3  9  4  0
  3 10  4  0
  4  8  4  0
  4 18  4  0
  4 25  1  0
  5  9  4  0
  5 12  4  0
  6 13  1  0
  6 27  1  0
  7 28  4  0
  8 11  4  0
  9 29  4  0
 10 12  4  0
 11 24  1  0
 11 26  4  0
 12 25  1  0
 13 28  1  0
 14 20  4  0
 14 23  4  0
 15 17  4  0
 15 21  4  0
 16 19  4  0
 16 23  4  0
 17 22  4  0
 18 26  4  0
 19 24  4  0
 20 24  4  0
 22 27  4  0
 28 29  4  0
M  END
$$$$

 Created by Python create_sdf_string function

 29 33  0  0  0  0  0  0  0  0999 V2000
   10.7215   -3.3326   17.6437 C   0  0  0  0  0  0  0  0  0  0  0  0
    9.9489   -3.4675   24.6487 N   0  0  0  0  0  0  0  0  0  0  0  0
   10.0172   -4.4740   17.4101 C   0  0  0  0  0  0  0  0  0  0  0  0
    6.9051   -7.9575   16.4222 C   0  0  0  0  0  0  0  0  0  0  0  0
    8.9969   -6.3552   17.9668 N   0  0  0  0  0  0  0  0  0  0  0  0
   10.6702   -3.9051   22.4070 C   0  0  0  0  0  0  0  0  0  0  0  0
   11.0625   -3.0028   18.8894 C   0  0  0  0  0  0  0  0  0  0  0  0
    5.6180   -7.9194   16.1754 O   0  0  0  0  0  0  0  0  0  0  0  0
    9.7259   -5.3080   18.4485 C   0  0  0  0  0  0  0  0  0  0  0  0
    9.4578   -5.0200   16.3036 N   0  0  0  0  0  0  0  0  0  0  0  0
    5.0287   -8.9365   16.8223 C   0  0  0  0  0  0  0  0  0  0  0  0
    8.7742   -6.1498   16.6764 C   0  0  0  0  0  0  0  0  0  0  0  0
   10.9418   -3.4032   21.2053 O   0  0  0  0  0  0  0  0  0  0  0  0
    1.4797   -8.6258   16.2950 C   0  0  0  0  0  0  0  0  0  0  0  0
    9.2861   -1.2743   25.3585 C   0  0  0  0  0  0  0  0  0  0  0  0
    1.8892  -10.3985   17.7511 N   0  0  0  0  0  0  0  0  0  0  0  0
    9.6210   -0.6952   24.0976 C   0  0  0  0  0  0  0  0  0  0  0  0
    7.0792   -9.0217   17.1429 C   0  0  0  0  0  0  0  0  0  0  0  0
    3.1713  -10.1816   17.6634 C   0  0  0  0  0  0  0  0  0  0  0  0
    2.7878   -8.3822   16.2137 C   0  0  0  0  0  0  0  0  0  0  0  0
    9.4601   -2.6590   25.6528 C   0  0  0  0  0  0  0  0  0  0  0  0
   10.1182   -1.5672   23.1165 C   0  0  0  0  0  0  0  0  0  0  0  0
    1.0552   -9.6360   17.0650 C   0  0  0  0  0  0  0  0  0  0  0  0
    3.6519   -9.1783   16.9039 C   0  0  0  0  0  0  0  0  0  0  0  0
    7.8675   -7.0096   15.9415 C   0  0  0  0  0  0  0  0  0  0  0  0
    5.9733   -9.6553   17.3832 N   0  0  0  0  0  0  0  0  0  0  0  0
   10.2411   -2.9363   23.4301 C   0  0  0  0  0  0  0  0  0  0  0  0
   10.7288   -3.8197   19.9525 C   0  0  0  0  0  0  0  0  0  0  0  0
   10.1189   -5.0054   19.6987 C   0  0  0  0  0  0  0  0  0  0  0  0
  1  3  4  0
  1  7  4  0
  2 21  4  0
  2 27  4  0
  3  9  4  0
  3 10  4  0
  4  8  4  0
  4 18  4  0
  4 25  1  0
  5  9  4  0
  5 12  4  0
  6 13  1  0
  6 27  1  0
  7 28  4  0
  8 11  4  0
  9 29  4  0
 10 12  4  0
 11 24  1  0
 11 26  4  0
 12 25  1  0
 13 28  1  0
 14 20  4  0
 14 23  4  0
 15 17  4  0
 15 21  4  0
 16 19  4  0
 16 23  4  0
 17 22  4  0
 18 26  4  0
 19 24  4  0
 20 24  4  0
 22 27  4  0
 28 29  4  0
M  END
$$$$

 Created by Python create_sdf_string function

 29 33  0  0  0  0  0  0  0  0999 V2000
   10.7215   -3.3326   17.6437 C   0  0  0  0  0  0  0  0  0  0  0  0
    9.9489   -3.4675   24.6487 N   0  0  0  0  0  0  0  0  0  0  0  0
   10.0172   -4.4740   17.4101 C   0  0  0  0  0  0  0  0  0  0  0  0
    6.9051   -7.9575   16.4222 C   0  0  0  0  0  0  0  0  0  0  0  0
    8.9969   -6.3552   17.9668 N   0  0  0  0  0  0  0  0  0  0  0  0
   10.6702   -3.9051   22.4070 C   0  0  0  0  0  0  0  0  0  0  0  0
   11.0625   -3.0028   18.8894 C   0  0  0  0  0  0  0  0  0  0  0  0
    5.6180   -7.9194   16.1754 O   0  0  0  0  0  0  0  0  0  0  0  0
    9.7259   -5.3080   18.4485 C   0  0  0  0  0  0  0  0  0  0  0  0
    9.4578   -5.0200   16.3036 N   0  0  0  0  0  0  0  0  0  0  0  0
    5.0287   -8.9365   16.8223 C   0  0  0  0  0  0  0  0  0  0  0  0
    8.7742   -6.1498   16.6764 C   0  0  0  0  0  0  0  0  0  0  0  0
   10.9418   -3.4032   21.2053 O   0  0  0  0  0  0  0  0  0  0  0  0
    1.4797   -8.6258   16.2950 C   0  0  0  0  0  0  0  0  0  0  0  0
    9.2861   -1.2743   25.3585 C   0  0  0  0  0  0  0  0  0  0  0  0
    1.8892  -10.3985   17.7511 N   0  0  0  0  0  0  0  0  0  0  0  0
    9.6210   -0.6952   24.0976 C   0  0  0  0  0  0  0  0  0  0  0  0
    7.0792   -9.0217   17.1429 C   0  0  0  0  0  0  0  0  0  0  0  0
    3.1713  -10.1816   17.6634 C   0  0  0  0  0  0  0  0  0  0  0  0
    2.7878   -8.3822   16.2137 C   0  0  0  0  0  0  0  0  0  0  0  0
    9.4601   -2.6590   25.6528 C   0  0  0  0  0  0  0  0  0  0  0  0
   10.1182   -1.5672   23.1165 C   0  0  0  0  0  0  0  0  0  0  0  0
    1.0552   -9.6360   17.0650 C   0  0  0  0  0  0  0  0  0  0  0  0
    3.6519   -9.1783   16.9039 C   0  0  0  0  0  0  0  0  0  0  0  0
    7.8675   -7.0096   15.9415 C   0  0  0  0  0  0  0  0  0  0  0  0
    5.9733   -9.6553   17.3832 N   0  0  0  0  0  0  0  0  0  0  0  0
   10.2411   -2.9363   23.4301 C   0  0  0  0  0  0  0  0  0  0  0  0
   10.7288   -3.8197   19.9525 C   0  0  0  0  0  0  0  0  0  0  0  0
   10.1189   -5.0054   19.6987 C   0  0  0  0  0  0  0  0  0  0  0  0
  1  3  4  0
  1  7  4  0
  2 21  4  0
  2 27  4  0
  3  9  4  0
  3 10  4  0
  4  8  4  0
  4 18  4  0
  4 25  1  0
  5  9  4  0
  5 12  4  0
  6 13  1  0
  6 27  1  0
  7 28  4  0
  8 11  4  0
  9 29  4  0
 10 12  4  0
 11 24  1  0
 11 26  4  0
 12 25  1  0
 13 28  1  0
 14 20  4  0
 14 23  4  0
 15 17  4  0
 15 21  4  0
 16 19  4  0
 16 23  4  0
 17 22  4  0
 18 26  4  0
 19 24  4  0
 20 24  4  0
 22 27  4  0
 28 29  4  0
M  END
$$$$

 Created by Python create_sdf_string function

 29 33  0  0  0  0  0  0  0  0999 V2000
   10.7215   -3.3326   17.6437 C   0  0  0  0  0  0  0  0  0  0  0  0
    9.9489   -3.4675   24.6487 N   0  0  0  0  0  0  0  0  0  0  0  0
   10.0172   -4.4740   17.4101 C   0  0  0  0  0  0  0  0  0  0  0  0
    6.9051   -7.9575   16.4222 C   0  0  0  0  0  0  0  0  0  0  0  0
    8.9969   -6.3552   17.9668 N   0  0  0  0  0  0  0  0  0  0  0  0
   10.6702   -3.9051   22.4070 C   0  0  0  0  0  0  0  0  0  0  0  0
   11.0625   -3.0028   18.8894 C   0  0  0  0  0  0  0  0  0  0  0  0
    5.6180   -7.9194   16.1754 O   0  0  0  0  0  0  0  0  0  0  0  0
    9.7259   -5.3080   18.4485 C   0  0  0  0  0  0  0  0  0  0  0  0
    9.4578   -5.0200   16.3036 N   0  0  0  0  0  0  0  0  0  0  0  0
    5.0287   -8.9365   16.8223 C   0  0  0  0  0  0  0  0  0  0  0  0
    8.7742   -6.1498   16.6764 C   0  0  0  0  0  0  0  0  0  0  0  0
   10.9418   -3.4032   21.2053 O   0  0  0  0  0  0  0  0  0  0  0  0
    1.4797   -8.6258   16.2950 C   0  0  0  0  0  0  0  0  0  0  0  0
    9.2861   -1.2743   25.3585 C   0  0  0  0  0  0  0  0  0  0  0  0
    1.8892  -10.3985   17.7511 N   0  0  0  0  0  0  0  0  0  0  0  0
    9.6210   -0.6952   24.0976 C   0  0  0  0  0  0  0  0  0  0  0  0
    7.0792   -9.0217   17.1429 C   0  0  0  0  0  0  0  0  0  0  0  0
    3.1713  -10.1816   17.6634 C   0  0  0  0  0  0  0  0  0  0  0  0
    2.7878   -8.3822   16.2137 C   0  0  0  0  0  0  0  0  0  0  0  0
    9.4601   -2.6590   25.6528 C   0  0  0  0  0  0  0  0  0  0  0  0
   10.1182   -1.5672   23.1165 C   0  0  0  0  0  0  0  0  0  0  0  0
    1.0552   -9.6360   17.0650 C   0  0  0  0  0  0  0  0  0  0  0  0
    3.6519   -9.1783   16.9039 C   0  0  0  0  0  0  0  0  0  0  0  0
    7.8675   -7.0096   15.9415 C   0  0  0  0  0  0  0  0  0  0  0  0
    5.9733   -9.6553   17.3832 N   0  0  0  0  0  0  0  0  0  0  0  0
   10.2411   -2.9363   23.4301 C   0  0  0  0  0  0  0  0  0  0  0  0
   10.7288   -3.8197   19.9525 C   0  0  0  0  0  0  0  0  0  0  0  0
   10.1189   -5.0054   19.6987 C   0  0  0  0  0  0  0  0  0  0  0  0
  1  3  4  0
  1  7  4  0
  2 21  4  0
  2 27  4  0
  3  9  4  0
  3 10  4  0
  4  8  4  0
  4 18  4  0
  4 25  1  0
  5  9  4  0
  5 12  4  0
  6 13  1  0
  6 27  1  0
  7 28  4  0
  8 11  4  0
  9 29  4  0
 10 12  4  0
 11 24  1  0
 11 26  4  0
 12 25  1  0
 13 28  1  0
 14 20  4  0
 14 23  4  0
 15 17  4  0
 15 21  4  0
 16 19  4  0
 16 23  4  0
 17 22  4  0
 18 26  4  0
 19 24  4  0
 20 24  4  0
 22 27  4  0
 28 29  4  0
M  END
$$$$

 Created by Python create_sdf_string function

 29 33  0  0  0  0  0  0  0  0999 V2000
   10.7215   -3.3326   17.6437 C   0  0  0  0  0  0  0  0  0  0  0  0
    9.9489   -3.4675   24.6487 N   0  0  0  0  0  0  0  0  0  0  0  0
   10.0172   -4.4740   17.4101 C   0  0  0  0  0  0  0  0  0  0  0  0
    6.9051   -7.9575   16.4222 C   0  0  0  0  0  0  0  0  0  0  0  0
    8.9969   -6.3552   17.9668 N   0  0  0  0  0  0  0  0  0  0  0  0
   10.6702   -3.9051   22.4070 C   0  0  0  0  0  0  0  0  0  0  0  0
   11.0625   -3.0028   18.8894 C   0  0  0  0  0  0  0  0  0  0  0  0
    5.6180   -7.9194   16.1754 O   0  0  0  0  0  0  0  0  0  0  0  0
    9.7259   -5.3080   18.4485 C   0  0  0  0  0  0  0  0  0  0  0  0
    9.4578   -5.0200   16.3036 N   0  0  0  0  0  0  0  0  0  0  0  0
    5.0287   -8.9365   16.8223 C   0  0  0  0  0  0  0  0  0  0  0  0
    8.7742   -6.1498   16.6764 C   0  0  0  0  0  0  0  0  0  0  0  0
   10.9418   -3.4032   21.2053 O   0  0  0  0  0  0  0  0  0  0  0  0
    1.4797   -8.6258   16.2950 C   0  0  0  0  0  0  0  0  0  0  0  0
    9.2861   -1.2743   25.3585 C   0  0  0  0  0  0  0  0  0  0  0  0
    1.8892  -10.3985   17.7511 N   0  0  0  0  0  0  0  0  0  0  0  0
    9.6210   -0.6952   24.0976 C   0  0  0  0  0  0  0  0  0  0  0  0
    7.0792   -9.0217   17.1429 C   0  0  0  0  0  0  0  0  0  0  0  0
    3.1713  -10.1816   17.6634 C   0  0  0  0  0  0  0  0  0  0  0  0
    2.7878   -8.3822   16.2137 C   0  0  0  0  0  0  0  0  0  0  0  0
    9.4601   -2.6590   25.6528 C   0  0  0  0  0  0  0  0  0  0  0  0
   10.1182   -1.5672   23.1165 C   0  0  0  0  0  0  0  0  0  0  0  0
    1.0552   -9.6360   17.0650 C   0  0  0  0  0  0  0  0  0  0  0  0
    3.6519   -9.1783   16.9039 C   0  0  0  0  0  0  0  0  0  0  0  0
    7.8675   -7.0096   15.9415 C   0  0  0  0  0  0  0  0  0  0  0  0
    5.9733   -9.6553   17.3832 N   0  0  0  0  0  0  0  0  0  0  0  0
   10.2411   -2.9363   23.4301 C   0  0  0  0  0  0  0  0  0  0  0  0
   10.7288   -3.8197   19.9525 C   0  0  0  0  0  0  0  0  0  0  0  0
   10.1189   -5.0054   19.6987 C   0  0  0  0  0  0  0  0  0  0  0  0
  1  3  4  0
  1  7  4  0
  2 21  4  0
  2 27  4  0
  3  9  4  0
  3 10  4  0
  4  8  4  0
  4 18  4  0
  4 25  1  0
  5  9  4  0
  5 12  4  0
  6 13  1  0
  6 27  1  0
  7 28  4  0
  8 11  4  0
  9 29  4  0
 10 12  4  0
 11 24  1  0
 11 26  4  0
 12 25  1  0
 13 28  1  0
 14 20  4  0
 14 23  4  0
 15 17  4  0
 15 21  4  0
 16 19  4  0
 16 23  4  0
 17 22  4  0
 18 26  4  0
 19 24  4  0
 20 24  4  0
 22 27  4  0
 28 29  4  0
M  END
$$$$

 Created by Python create_sdf_string function

 29 33  0  0  0  0  0  0  0  0999 V2000
   10.7215   -3.3326   17.6437 C   0  0  0  0  0  0  0  0  0  0  0  0
    9.9489   -3.4675   24.6487 N   0  0  0  0  0  0  0  0  0  0  0  0
   10.0172   -4.4740   17.4101 C   0  0  0  0  0  0  0  0  0  0  0  0
    6.9051   -7.9575   16.4222 C   0  0  0  0  0  0  0  0  0  0  0  0
    8.9969   -6.3552   17.9668 N   0  0  0  0  0  0  0  0  0  0  0  0
   10.6702   -3.9051   22.4070 C   0  0  0  0  0  0  0  0  0  0  0  0
   11.0625   -3.0028   18.8894 C   0  0  0  0  0  0  0  0  0  0  0  0
    5.6180   -7.9194   16.1754 O   0  0  0  0  0  0  0  0  0  0  0  0
    9.7259   -5.3080   18.4485 C   0  0  0  0  0  0  0  0  0  0  0  0
    9.4578   -5.0200   16.3036 N   0  0  0  0  0  0  0  0  0  0  0  0
    5.0287   -8.9365   16.8223 C   0  0  0  0  0  0  0  0  0  0  0  0
    8.7742   -6.1498   16.6764 C   0  0  0  0  0  0  0  0  0  0  0  0
   10.9418   -3.4032   21.2053 O   0  0  0  0  0  0  0  0  0  0  0  0
    1.4797   -8.6258   16.2950 C   0  0  0  0  0  0  0  0  0  0  0  0
    9.2861   -1.2743   25.3585 C   0  0  0  0  0  0  0  0  0  0  0  0
    1.8892  -10.3985   17.7511 N   0  0  0  0  0  0  0  0  0  0  0  0
    9.6210   -0.6952   24.0976 C   0  0  0  0  0  0  0  0  0  0  0  0
    7.0792   -9.0217   17.1429 C   0  0  0  0  0  0  0  0  0  0  0  0
    3.1713  -10.1816   17.6634 C   0  0  0  0  0  0  0  0  0  0  0  0
    2.7878   -8.3822   16.2137 C   0  0  0  0  0  0  0  0  0  0  0  0
    9.4601   -2.6590   25.6528 C   0  0  0  0  0  0  0  0  0  0  0  0
   10.1182   -1.5672   23.1165 C   0  0  0  0  0  0  0  0  0  0  0  0
    1.0552   -9.6360   17.0650 C   0  0  0  0  0  0  0  0  0  0  0  0
    3.6519   -9.1783   16.9039 C   0  0  0  0  0  0  0  0  0  0  0  0
    7.8675   -7.0096   15.9415 C   0  0  0  0  0  0  0  0  0  0  0  0
    5.9733   -9.6553   17.3832 N   0  0  0  0  0  0  0  0  0  0  0  0
   10.2411   -2.9363   23.4301 C   0  0  0  0  0  0  0  0  0  0  0  0
   10.7288   -3.8197   19.9525 C   0  0  0  0  0  0  0  0  0  0  0  0
   10.1189   -5.0054   19.6987 C   0  0  0  0  0  0  0  0  0  0  0  0
  1  3  4  0
  1  7  4  0
  2 21  4  0
  2 27  4  0
  3  9  4  0
  3 10  4  0
  4  8  4  0
  4 18  4  0
  4 25  1  0
  5  9  4  0
  5 12  4  0
  6 13  1  0
  6 27  1  0
  7 28  4  0
  8 11  4  0
  9 29  4  0
 10 12  4  0
 11 24  1  0
 11 26  4  0
 12 25  1  0
 13 28  1  0
 14 20  4  0
 14 23  4  0
 15 17  4  0
 15 21  4  0
 16 19  4  0
 16 23  4  0
 17 22  4  0
 18 26  4  0
 19 24  4  0
 20 24  4  0
 22 27  4  0
 28 29  4  0
M  END
$$$$

 Created by Python create_sdf_string function

 29 33  0  0  0  0  0  0  0  0999 V2000
   10.7215   -3.3326   17.6437 C   0  0  0  0  0  0  0  0  0  0  0  0
    9.9489   -3.4675   24.6487 N   0  0  0  0  0  0  0  0  0  0  0  0
   10.0172   -4.4740   17.4101 C   0  0  0  0  0  0  0  0  0  0  0  0
    6.9051   -7.9575   16.4222 C   0  0  0  0  0  0  0  0  0  0  0  0
    8.9969   -6.3552   17.9668 N   0  0  0  0  0  0  0  0  0  0  0  0
   10.6702   -3.9051   22.4070 C   0  0  0  0  0  0  0  0  0  0  0  0
   11.0625   -3.0028   18.8894 C   0  0  0  0  0  0  0  0  0  0  0  0
    5.6180   -7.9194   16.1754 O   0  0  0  0  0  0  0  0  0  0  0  0
    9.7259   -5.3080   18.4485 C   0  0  0  0  0  0  0  0  0  0  0  0
    9.4578   -5.0200   16.3036 N   0  0  0  0  0  0  0  0  0  0  0  0
    5.0287   -8.9365   16.8223 C   0  0  0  0  0  0  0  0  0  0  0  0
    8.7742   -6.1498   16.6764 C   0  0  0  0  0  0  0  0  0  0  0  0
   10.9418   -3.4032   21.2053 O   0  0  0  0  0  0  0  0  0  0  0  0
    1.4797   -8.6258   16.2950 C   0  0  0  0  0  0  0  0  0  0  0  0
    9.2861   -1.2743   25.3585 C   0  0  0  0  0  0  0  0  0  0  0  0
    1.8892  -10.3985   17.7511 N   0  0  0  0  0  0  0  0  0  0  0  0
    9.6210   -0.6952   24.0976 C   0  0  0  0  0  0  0  0  0  0  0  0
    7.0792   -9.0217   17.1429 C   0  0  0  0  0  0  0  0  0  0  0  0
    3.1713  -10.1816   17.6634 C   0  0  0  0  0  0  0  0  0  0  0  0
    2.7878   -8.3822   16.2137 C   0  0  0  0  0  0  0  0  0  0  0  0
    9.4601   -2.6590   25.6528 C   0  0  0  0  0  0  0  0  0  0  0  0
   10.1182   -1.5672   23.1165 C   0  0  0  0  0  0  0  0  0  0  0  0
    1.0552   -9.6360   17.0650 C   0  0  0  0  0  0  0  0  0  0  0  0
    3.6519   -9.1783   16.9039 C   0  0  0  0  0  0  0  0  0  0  0  0
    7.8675   -7.0096   15.9415 C   0  0  0  0  0  0  0  0  0  0  0  0
    5.9733   -9.6553   17.3832 N   0  0  0  0  0  0  0  0  0  0  0  0
   10.2411   -2.9363   23.4301 C   0  0  0  0  0  0  0  0  0  0  0  0
   10.7288   -3.8197   19.9525 C   0  0  0  0  0  0  0  0  0  0  0  0
   10.1189   -5.0054   19.6987 C   0  0  0  0  0  0  0  0  0  0  0  0
  1  3  4  0
  1  7  4  0
  2 21  4  0
  2 27  4  0
  3  9  4  0
  3 10  4  0
  4  8  4  0
  4 18  4  0
  4 25  1  0
  5  9  4  0
  5 12  4  0
  6 13  1  0
  6 27  1  0
  7 28  4  0
  8 11  4  0
  9 29  4  0
 10 12  4  0
 11 24  1  0
 11 26  4  0
 12 25  1  0
 13 28  1  0
 14 20  4  0
 14 23  4  0
 15 17  4  0
 15 21  4  0
 16 19  4  0
 16 23  4  0
 17 22  4  0
 18 26  4  0
 19 24  4  0
 20 24  4  0
 22 27  4  0
 28 29  4  0
M  END
$$$$

 Created by Python create_sdf_string function

 29 33  0  0  0  0  0  0  0  0999 V2000
   10.7215   -3.3326   17.6437 C   0  0  0  0  0  0  0  0  0  0  0  0
    9.9489   -3.4675   24.6487 N   0  0  0  0  0  0  0  0  0  0  0  0
   10.0172   -4.4740   17.4101 C   0  0  0  0  0  0  0  0  0  0  0  0
    6.9051   -7.9575   16.4222 C   0  0  0  0  0  0  0  0  0  0  0  0
    8.9969   -6.3552   17.9668 N   0  0  0  0  0  0  0  0  0  0  0  0
   10.6702   -3.9051   22.4070 C   0  0  0  0  0  0  0  0  0  0  0  0
   11.0625   -3.0028   18.8894 C   0  0  0  0  0  0  0  0  0  0  0  0
    5.6180   -7.9194   16.1754 O   0  0  0  0  0  0  0  0  0  0  0  0
    9.7259   -5.3080   18.4485 C   0  0  0  0  0  0  0  0  0  0  0  0
    9.4578   -5.0200   16.3036 N   0  0  0  0  0  0  0  0  0  0  0  0
    5.0287   -8.9365   16.8223 C   0  0  0  0  0  0  0  0  0  0  0  0
    8.7742   -6.1498   16.6764 C   0  0  0  0  0  0  0  0  0  0  0  0
   10.9418   -3.4032   21.2053 O   0  0  0  0  0  0  0  0  0  0  0  0
    1.4797   -8.6258   16.2950 C   0  0  0  0  0  0  0  0  0  0  0  0
    9.2861   -1.2743   25.3585 C   0  0  0  0  0  0  0  0  0  0  0  0
    1.8892  -10.3985   17.7511 N   0  0  0  0  0  0  0  0  0  0  0  0
    9.6210   -0.6952   24.0976 C   0  0  0  0  0  0  0  0  0  0  0  0
    7.0792   -9.0217   17.1429 C   0  0  0  0  0  0  0  0  0  0  0  0
    3.1713  -10.1816   17.6634 C   0  0  0  0  0  0  0  0  0  0  0  0
    2.7878   -8.3822   16.2137 C   0  0  0  0  0  0  0  0  0  0  0  0
    9.4601   -2.6590   25.6528 C   0  0  0  0  0  0  0  0  0  0  0  0
   10.1182   -1.5672   23.1165 C   0  0  0  0  0  0  0  0  0  0  0  0
    1.0552   -9.6360   17.0650 C   0  0  0  0  0  0  0  0  0  0  0  0
    3.6519   -9.1783   16.9039 C   0  0  0  0  0  0  0  0  0  0  0  0
    7.8675   -7.0096   15.9415 C   0  0  0  0  0  0  0  0  0  0  0  0
    5.9733   -9.6553   17.3832 N   0  0  0  0  0  0  0  0  0  0  0  0
   10.2411   -2.9363   23.4301 C   0  0  0  0  0  0  0  0  0  0  0  0
   10.7288   -3.8197   19.9525 C   0  0  0  0  0  0  0  0  0  0  0  0
   10.1189   -5.0054   19.6987 C   0  0  0  0  0  0  0  0  0  0  0  0
  1  3  4  0
  1  7  4  0
  2 21  4  0
  2 27  4  0
  3  9  4  0
  3 10  4  0
  4  8  4  0
  4 18  4  0
  4 25  1  0
  5  9  4  0
  5 12  4  0
  6 13  1  0
  6 27  1  0
  7 28  4  0
  8 11  4  0
  9 29  4  0
 10 12  4  0
 11 24  1  0
 11 26  4  0
 12 25  1  0
 13 28  1  0
 14 20  4  0
 14 23  4  0
 15 17  4  0
 15 21  4  0
 16 19  4  0
 16 23  4  0
 17 22  4  0
 18 26  4  0
 19 24  4  0
 20 24  4  0
 22 27  4  0
 28 29  4  0
M  END
$$$$

 Created by Python create_sdf_string function

 29 33  0  0  0  0  0  0  0  0999 V2000
   10.7215   -3.3326   17.6437 C   0  0  0  0  0  0  0  0  0  0  0  0
    9.9489   -3.4675   24.6487 N   0  0  0  0  0  0  0  0  0  0  0  0
   10.0172   -4.4740   17.4101 C   0  0  0  0  0  0  0  0  0  0  0  0
    6.9051   -7.9575   16.4222 C   0  0  0  0  0  0  0  0  0  0  0  0
    8.9969   -6.3552   17.9668 N   0  0  0  0  0  0  0  0  0  0  0  0
   10.6702   -3.9051   22.4070 C   0  0  0  0  0  0  0  0  0  0  0  0
   11.0625   -3.0028   18.8894 C   0  0  0  0  0  0  0  0  0  0  0  0
    5.6180   -7.9194   16.1754 O   0  0  0  0  0  0  0  0  0  0  0  0
    9.7259   -5.3080   18.4485 C   0  0  0  0  0  0  0  0  0  0  0  0
    9.4578   -5.0200   16.3036 N   0  0  0  0  0  0  0  0  0  0  0  0
    5.0287   -8.9365   16.8223 C   0  0  0  0  0  0  0  0  0  0  0  0
    8.7742   -6.1498   16.6764 C   0  0  0  0  0  0  0  0  0  0  0  0
   10.9418   -3.4032   21.2053 O   0  0  0  0  0  0  0  0  0  0  0  0
    1.4797   -8.6258   16.2950 C   0  0  0  0  0  0  0  0  0  0  0  0
    9.2861   -1.2743   25.3585 C   0  0  0  0  0  0  0  0  0  0  0  0
    1.8892  -10.3985   17.7511 N   0  0  0  0  0  0  0  0  0  0  0  0
    9.6210   -0.6952   24.0976 C   0  0  0  0  0  0  0  0  0  0  0  0
    7.0792   -9.0217   17.1429 C   0  0  0  0  0  0  0  0  0  0  0  0
    3.1713  -10.1816   17.6634 C   0  0  0  0  0  0  0  0  0  0  0  0
    2.7878   -8.3822   16.2137 C   0  0  0  0  0  0  0  0  0  0  0  0
    9.4601   -2.6590   25.6528 C   0  0  0  0  0  0  0  0  0  0  0  0
   10.1182   -1.5672   23.1165 C   0  0  0  0  0  0  0  0  0  0  0  0
    1.0552   -9.6360   17.0650 C   0  0  0  0  0  0  0  0  0  0  0  0
    3.6519   -9.1783   16.9039 C   0  0  0  0  0  0  0  0  0  0  0  0
    7.8675   -7.0096   15.9415 C   0  0  0  0  0  0  0  0  0  0  0  0
    5.9733   -9.6553   17.3832 N   0  0  0  0  0  0  0  0  0  0  0  0
   10.2411   -2.9363   23.4301 C   0  0  0  0  0  0  0  0  0  0  0  0
   10.7288   -3.8197   19.9525 C   0  0  0  0  0  0  0  0  0  0  0  0
   10.1189   -5.0054   19.6987 C   0  0  0  0  0  0  0  0  0  0  0  0
  1  3  4  0
  1  7  4  0
  2 21  4  0
  2 27  4  0
  3  9  4  0
  3 10  4  0
  4  8  4  0
  4 18  4  0
  4 25  1  0
  5  9  4  0
  5 12  4  0
  6 13  1  0
  6 27  1  0
  7 28  4  0
  8 11  4  0
  9 29  4  0
 10 12  4  0
 11 24  1  0
 11 26  4  0
 12 25  1  0
 13 28  1  0
 14 20  4  0
 14 23  4  0
 15 17  4  0
 15 21  4  0
 16 19  4  0
 16 23  4  0
 17 22  4  0
 18 26  4  0
 19 24  4  0
 20 24  4  0
 22 27  4  0
 28 29  4  0
M  END
$$$$

 Created by Python create_sdf_string function

 29 33  0  0  0  0  0  0  0  0999 V2000
   10.7215   -3.3326   17.6437 C   0  0  0  0  0  0  0  0  0  0  0  0
    9.9489   -3.4675   24.6487 N   0  0  0  0  0  0  0  0  0  0  0  0
   10.0172   -4.4740   17.4101 C   0  0  0  0  0  0  0  0  0  0  0  0
    6.9051   -7.9575   16.4222 C   0  0  0  0  0  0  0  0  0  0  0  0
    8.9969   -6.3552   17.9668 N   0  0  0  0  0  0  0  0  0  0  0  0
   10.6702   -3.9051   22.4070 C   0  0  0  0  0  0  0  0  0  0  0  0
   11.0625   -3.0028   18.8894 C   0  0  0  0  0  0  0  0  0  0  0  0
    5.6180   -7.9194   16.1754 O   0  0  0  0  0  0  0  0  0  0  0  0
    9.7259   -5.3080   18.4485 C   0  0  0  0  0  0  0  0  0  0  0  0
    9.4578   -5.0200   16.3036 N   0  0  0  0  0  0  0  0  0  0  0  0
    5.0287   -8.9365   16.8223 C   0  0  0  0  0  0  0  0  0  0  0  0
    8.7742   -6.1498   16.6764 C   0  0  0  0  0  0  0  0  0  0  0  0
   10.9418   -3.4032   21.2053 O   0  0  0  0  0  0  0  0  0  0  0  0
    1.4797   -8.6258   16.2950 C   0  0  0  0  0  0  0  0  0  0  0  0
    9.2861   -1.2743   25.3585 C   0  0  0  0  0  0  0  0  0  0  0  0
    1.8892  -10.3985   17.7511 N   0  0  0  0  0  0  0  0  0  0  0  0
    9.6210   -0.6952   24.0976 C   0  0  0  0  0  0  0  0  0  0  0  0
    7.0792   -9.0217   17.1429 C   0  0  0  0  0  0  0  0  0  0  0  0
    3.1713  -10.1816   17.6634 C   0  0  0  0  0  0  0  0  0  0  0  0
    2.7878   -8.3822   16.2137 C   0  0  0  0  0  0  0  0  0  0  0  0
    9.4601   -2.6590   25.6528 C   0  0  0  0  0  0  0  0  0  0  0  0
   10.1182   -1.5672   23.1165 C   0  0  0  0  0  0  0  0  0  0  0  0
    1.0552   -9.6360   17.0650 C   0  0  0  0  0  0  0  0  0  0  0  0
    3.6519   -9.1783   16.9039 C   0  0  0  0  0  0  0  0  0  0  0  0
    7.8675   -7.0096   15.9415 C   0  0  0  0  0  0  0  0  0  0  0  0
    5.9733   -9.6553   17.3832 N   0  0  0  0  0  0  0  0  0  0  0  0
   10.2411   -2.9363   23.4301 C   0  0  0  0  0  0  0  0  0  0  0  0
   10.7288   -3.8197   19.9525 C   0  0  0  0  0  0  0  0  0  0  0  0
   10.1189   -5.0054   19.6987 C   0  0  0  0  0  0  0  0  0  0  0  0
  1  3  4  0
  1  7  4  0
  2 21  4  0
  2 27  4  0
  3  9  4  0
  3 10  4  0
  4  8  4  0
  4 18  4  0
  4 25  1  0
  5  9  4  0
  5 12  4  0
  6 13  1  0
  6 27  1  0
  7 28  4  0
  8 11  4  0
  9 29  4  0
 10 12  4  0
 11 24  1  0
 11 26  4  0
 12 25  1  0
 13 28  1  0
 14 20  4  0
 14 23  4  0
 15 17  4  0
 15 21  4  0
 16 19  4  0
 16 23  4  0
 17 22  4  0
 18 26  4  0
 19 24  4  0
 20 24  4  0
 22 27  4  0
 28 29  4  0
M  END
$$$$

 Created by Python create_sdf_string function

 29 33  0  0  0  0  0  0  0  0999 V2000
   10.7215   -3.3326   17.6437 C   0  0  0  0  0  0  0  0  0  0  0  0
    9.9489   -3.4675   24.6487 N   0  0  0  0  0  0  0  0  0  0  0  0
   10.0172   -4.4740   17.4101 C   0  0  0  0  0  0  0  0  0  0  0  0
    6.9051   -7.9575   16.4222 C   0  0  0  0  0  0  0  0  0  0  0  0
    8.9969   -6.3552   17.9668 N   0  0  0  0  0  0  0  0  0  0  0  0
   10.6702   -3.9051   22.4070 C   0  0  0  0  0  0  0  0  0  0  0  0
   11.0625   -3.0028   18.8894 C   0  0  0  0  0  0  0  0  0  0  0  0
    5.6180   -7.9194   16.1754 O   0  0  0  0  0  0  0  0  0  0  0  0
    9.7259   -5.3080   18.4485 C   0  0  0  0  0  0  0  0  0  0  0  0
    9.4578   -5.0200   16.3036 N   0  0  0  0  0  0  0  0  0  0  0  0
    5.0287   -8.9365   16.8223 C   0  0  0  0  0  0  0  0  0  0  0  0
    8.7742   -6.1498   16.6764 C   0  0  0  0  0  0  0  0  0  0  0  0
   10.9418   -3.4032   21.2053 O   0  0  0  0  0  0  0  0  0  0  0  0
    1.4797   -8.6258   16.2950 C   0  0  0  0  0  0  0  0  0  0  0  0
    9.2861   -1.2743   25.3585 C   0  0  0  0  0  0  0  0  0  0  0  0
    1.8892  -10.3985   17.7511 N   0  0  0  0  0  0  0  0  0  0  0  0
    9.6210   -0.6952   24.0976 C   0  0  0  0  0  0  0  0  0  0  0  0
    7.0792   -9.0217   17.1429 C   0  0  0  0  0  0  0  0  0  0  0  0
    3.1713  -10.1816   17.6634 C   0  0  0  0  0  0  0  0  0  0  0  0
    2.7878   -8.3822   16.2137 C   0  0  0  0  0  0  0  0  0  0  0  0
    9.4601   -2.6590   25.6528 C   0  0  0  0  0  0  0  0  0  0  0  0
   10.1182   -1.5672   23.1165 C   0  0  0  0  0  0  0  0  0  0  0  0
    1.0552   -9.6360   17.0650 C   0  0  0  0  0  0  0  0  0  0  0  0
    3.6519   -9.1783   16.9039 C   0  0  0  0  0  0  0  0  0  0  0  0
    7.8675   -7.0096   15.9415 C   0  0  0  0  0  0  0  0  0  0  0  0
    5.9733   -9.6553   17.3832 N   0  0  0  0  0  0  0  0  0  0  0  0
   10.2411   -2.9363   23.4301 C   0  0  0  0  0  0  0  0  0  0  0  0
   10.7288   -3.8197   19.9525 C   0  0  0  0  0  0  0  0  0  0  0  0
   10.1189   -5.0054   19.6987 C   0  0  0  0  0  0  0  0  0  0  0  0
  1  3  4  0
  1  7  4  0
  2 21  4  0
  2 27  4  0
  3  9  4  0
  3 10  4  0
  4  8  4  0
  4 18  4  0
  4 25  1  0
  5  9  4  0
  5 12  4  0
  6 13  1  0
  6 27  1  0
  7 28  4  0
  8 11  4  0
  9 29  4  0
 10 12  4  0
 11 24  1  0
 11 26  4  0
 12 25  1  0
 13 28  1  0
 14 20  4  0
 14 23  4  0
 15 17  4  0
 15 21  4  0
 16 19  4  0
 16 23  4  0
 17 22  4  0
 18 26  4  0
 19 24  4  0
 20 24  4  0
 22 27  4  0
 28 29  4  0
M  END
$$$$

 Created by Python create_sdf_string function

 29 33  0  0  0  0  0  0  0  0999 V2000
   10.7215   -3.3326   17.6437 C   0  0  0  0  0  0  0  0  0  0  0  0
    9.9489   -3.4675   24.6487 N   0  0  0  0  0  0  0  0  0  0  0  0
   10.0172   -4.4740   17.4101 C   0  0  0  0  0  0  0  0  0  0  0  0
    6.9051   -7.9575   16.4222 C   0  0  0  0  0  0  0  0  0  0  0  0
    8.9969   -6.3552   17.9668 N   0  0  0  0  0  0  0  0  0  0  0  0
   10.6702   -3.9051   22.4070 C   0  0  0  0  0  0  0  0  0  0  0  0
   11.0625   -3.0028   18.8894 C   0  0  0  0  0  0  0  0  0  0  0  0
    5.6180   -7.9194   16.1754 O   0  0  0  0  0  0  0  0  0  0  0  0
    9.7259   -5.3080   18.4485 C   0  0  0  0  0  0  0  0  0  0  0  0
    9.4578   -5.0200   16.3036 N   0  0  0  0  0  0  0  0  0  0  0  0
    5.0287   -8.9365   16.8223 C   0  0  0  0  0  0  0  0  0  0  0  0
    8.7742   -6.1498   16.6764 C   0  0  0  0  0  0  0  0  0  0  0  0
   10.9418   -3.4032   21.2053 O   0  0  0  0  0  0  0  0  0  0  0  0
    1.4797   -8.6258   16.2950 C   0  0  0  0  0  0  0  0  0  0  0  0
    9.2861   -1.2743   25.3585 C   0  0  0  0  0  0  0  0  0  0  0  0
    1.8892  -10.3985   17.7511 N   0  0  0  0  0  0  0  0  0  0  0  0
    9.6210   -0.6952   24.0976 C   0  0  0  0  0  0  0  0  0  0  0  0
    7.0792   -9.0217   17.1429 C   0  0  0  0  0  0  0  0  0  0  0  0
    3.1713  -10.1816   17.6634 C   0  0  0  0  0  0  0  0  0  0  0  0
    2.7878   -8.3822   16.2137 C   0  0  0  0  0  0  0  0  0  0  0  0
    9.4601   -2.6590   25.6528 C   0  0  0  0  0  0  0  0  0  0  0  0
   10.1182   -1.5672   23.1165 C   0  0  0  0  0  0  0  0  0  0  0  0
    1.0552   -9.6360   17.0650 C   0  0  0  0  0  0  0  0  0  0  0  0
    3.6519   -9.1783   16.9039 C   0  0  0  0  0  0  0  0  0  0  0  0
    7.8675   -7.0096   15.9415 C   0  0  0  0  0  0  0  0  0  0  0  0
    5.9733   -9.6553   17.3832 N   0  0  0  0  0  0  0  0  0  0  0  0
   10.2411   -2.9363   23.4301 C   0  0  0  0  0  0  0  0  0  0  0  0
   10.7288   -3.8197   19.9525 C   0  0  0  0  0  0  0  0  0  0  0  0
   10.1189   -5.0054   19.6987 C   0  0  0  0  0  0  0  0  0  0  0  0
  1  3  4  0
  1  7  4  0
  2 21  4  0
  2 27  4  0
  3  9  4  0
  3 10  4  0
  4  8  4  0
  4 18  4  0
  4 25  1  0
  5  9  4  0
  5 12  4  0
  6 13  1  0
  6 27  1  0
  7 28  4  0
  8 11  4  0
  9 29  4  0
 10 12  4  0
 11 24  1  0
 11 26  4  0
 12 25  1  0
 13 28  1  0
 14 20  4  0
 14 23  4  0
 15 17  4  0
 15 21  4  0
 16 19  4  0
 16 23  4  0
 17 22  4  0
 18 26  4  0
 19 24  4  0
 20 24  4  0
 22 27  4  0
 28 29  4  0
M  END
$$$$

 Created by Python create_sdf_string function

 29 33  0  0  0  0  0  0  0  0999 V2000
   10.7215   -3.3326   17.6437 C   0  0  0  0  0  0  0  0  0  0  0  0
    9.9489   -3.4675   24.6487 N   0  0  0  0  0  0  0  0  0  0  0  0
   10.0172   -4.4740   17.4101 C   0  0  0  0  0  0  0  0  0  0  0  0
    6.9051   -7.9575   16.4222 C   0  0  0  0  0  0  0  0  0  0  0  0
    8.9969   -6.3552   17.9668 N   0  0  0  0  0  0  0  0  0  0  0  0
   10.6702   -3.9051   22.4070 C   0  0  0  0  0  0  0  0  0  0  0  0
   11.0625   -3.0028   18.8894 C   0  0  0  0  0  0  0  0  0  0  0  0
    5.6180   -7.9194   16.1754 O   0  0  0  0  0  0  0  0  0  0  0  0
    9.7259   -5.3080   18.4485 C   0  0  0  0  0  0  0  0  0  0  0  0
    9.4578   -5.0200   16.3036 N   0  0  0  0  0  0  0  0  0  0  0  0
    5.0287   -8.9365   16.8223 C   0  0  0  0  0  0  0  0  0  0  0  0
    8.7742   -6.1498   16.6764 C   0  0  0  0  0  0  0  0  0  0  0  0
   10.9418   -3.4032   21.2053 O   0  0  0  0  0  0  0  0  0  0  0  0
    1.4797   -8.6258   16.2950 C   0  0  0  0  0  0  0  0  0  0  0  0
    9.2861   -1.2743   25.3585 C   0  0  0  0  0  0  0  0  0  0  0  0
    1.8892  -10.3985   17.7511 N   0  0  0  0  0  0  0  0  0  0  0  0
    9.6210   -0.6952   24.0976 C   0  0  0  0  0  0  0  0  0  0  0  0
    7.0792   -9.0217   17.1429 C   0  0  0  0  0  0  0  0  0  0  0  0
    3.1713  -10.1816   17.6634 C   0  0  0  0  0  0  0  0  0  0  0  0
    2.7878   -8.3822   16.2137 C   0  0  0  0  0  0  0  0  0  0  0  0
    9.4601   -2.6590   25.6528 C   0  0  0  0  0  0  0  0  0  0  0  0
   10.1182   -1.5672   23.1165 C   0  0  0  0  0  0  0  0  0  0  0  0
    1.0552   -9.6360   17.0650 C   0  0  0  0  0  0  0  0  0  0  0  0
    3.6519   -9.1783   16.9039 C   0  0  0  0  0  0  0  0  0  0  0  0
    7.8675   -7.0096   15.9415 C   0  0  0  0  0  0  0  0  0  0  0  0
    5.9733   -9.6553   17.3832 N   0  0  0  0  0  0  0  0  0  0  0  0
   10.2411   -2.9363   23.4301 C   0  0  0  0  0  0  0  0  0  0  0  0
   10.7288   -3.8197   19.9525 C   0  0  0  0  0  0  0  0  0  0  0  0
   10.1189   -5.0054   19.6987 C   0  0  0  0  0  0  0  0  0  0  0  0
  1  3  4  0
  1  7  4  0
  2 21  4  0
  2 27  4  0
  3  9  4  0
  3 10  4  0
  4  8  4  0
  4 18  4  0
  4 25  1  0
  5  9  4  0
  5 12  4  0
  6 13  1  0
  6 27  1  0
  7 28  4  0
  8 11  4  0
  9 29  4  0
 10 12  4  0
 11 24  1  0
 11 26  4  0
 12 25  1  0
 13 28  1  0
 14 20  4  0
 14 23  4  0
 15 17  4  0
 15 21  4  0
 16 19  4  0
 16 23  4  0
 17 22  4  0
 18 26  4  0
 19 24  4  0
 20 24  4  0
 22 27  4  0
 28 29  4  0
M  END
$$$$

 Created by Python create_sdf_string function

 29 33  0  0  0  0  0  0  0  0999 V2000
   10.7215   -3.3326   17.6437 C   0  0  0  0  0  0  0  0  0  0  0  0
    9.9489   -3.4675   24.6487 N   0  0  0  0  0  0  0  0  0  0  0  0
   10.0172   -4.4740   17.4101 C   0  0  0  0  0  0  0  0  0  0  0  0
    6.9051   -7.9575   16.4222 C   0  0  0  0  0  0  0  0  0  0  0  0
    8.9969   -6.3552   17.9668 N   0  0  0  0  0  0  0  0  0  0  0  0
   10.6702   -3.9051   22.4070 C   0  0  0  0  0  0  0  0  0  0  0  0
   11.0625   -3.0028   18.8894 C   0  0  0  0  0  0  0  0  0  0  0  0
    5.6180   -7.9194   16.1754 O   0  0  0  0  0  0  0  0  0  0  0  0
    9.7259   -5.3080   18.4485 C   0  0  0  0  0  0  0  0  0  0  0  0
    9.4578   -5.0200   16.3036 N   0  0  0  0  0  0  0  0  0  0  0  0
    5.0287   -8.9365   16.8223 C   0  0  0  0  0  0  0  0  0  0  0  0
    8.7742   -6.1498   16.6764 C   0  0  0  0  0  0  0  0  0  0  0  0
   10.9418   -3.4032   21.2053 O   0  0  0  0  0  0  0  0  0  0  0  0
    1.4797   -8.6258   16.2950 C   0  0  0  0  0  0  0  0  0  0  0  0
    9.2861   -1.2743   25.3585 C   0  0  0  0  0  0  0  0  0  0  0  0
    1.8892  -10.3985   17.7511 N   0  0  0  0  0  0  0  0  0  0  0  0
    9.6210   -0.6952   24.0976 C   0  0  0  0  0  0  0  0  0  0  0  0
    7.0792   -9.0217   17.1429 C   0  0  0  0  0  0  0  0  0  0  0  0
    3.1713  -10.1816   17.6634 C   0  0  0  0  0  0  0  0  0  0  0  0
    2.7878   -8.3822   16.2137 C   0  0  0  0  0  0  0  0  0  0  0  0
    9.4601   -2.6590   25.6528 C   0  0  0  0  0  0  0  0  0  0  0  0
   10.1182   -1.5672   23.1165 C   0  0  0  0  0  0  0  0  0  0  0  0
    1.0552   -9.6360   17.0650 C   0  0  0  0  0  0  0  0  0  0  0  0
    3.6519   -9.1783   16.9039 C   0  0  0  0  0  0  0  0  0  0  0  0
    7.8675   -7.0096   15.9415 C   0  0  0  0  0  0  0  0  0  0  0  0
    5.9733   -9.6553   17.3832 N   0  0  0  0  0  0  0  0  0  0  0  0
   10.2411   -2.9363   23.4301 C   0  0  0  0  0  0  0  0  0  0  0  0
   10.7288   -3.8197   19.9525 C   0  0  0  0  0  0  0  0  0  0  0  0
   10.1189   -5.0054   19.6987 C   0  0  0  0  0  0  0  0  0  0  0  0
  1  3  4  0
  1  7  4  0
  2 21  4  0
  2 27  4  0
  3  9  4  0
  3 10  4  0
  4  8  4  0
  4 18  4  0
  4 25  1  0
  5  9  4  0
  5 12  4  0
  6 13  1  0
  6 27  1  0
  7 28  4  0
  8 11  4  0
  9 29  4  0
 10 12  4  0
 11 24  1  0
 11 26  4  0
 12 25  1  0
 13 28  1  0
 14 20  4  0
 14 23  4  0
 15 17  4  0
 15 21  4  0
 16 19  4  0
 16 23  4  0
 17 22  4  0
 18 26  4  0
 19 24  4  0
 20 24  4  0
 22 27  4  0
 28 29  4  0
M  END
$$$$

 Created by Python create_sdf_string function

 29 33  0  0  0  0  0  0  0  0999 V2000
   10.7215   -3.3326   17.6437 C   0  0  0  0  0  0  0  0  0  0  0  0
    9.9489   -3.4675   24.6487 N   0  0  0  0  0  0  0  0  0  0  0  0
   10.0172   -4.4740   17.4101 C   0  0  0  0  0  0  0  0  0  0  0  0
    6.9051   -7.9575   16.4222 C   0  0  0  0  0  0  0  0  0  0  0  0
    8.9969   -6.3552   17.9668 N   0  0  0  0  0  0  0  0  0  0  0  0
   10.6702   -3.9051   22.4070 C   0  0  0  0  0  0  0  0  0  0  0  0
   11.0625   -3.0028   18.8894 C   0  0  0  0  0  0  0  0  0  0  0  0
    5.6180   -7.9194   16.1754 O   0  0  0  0  0  0  0  0  0  0  0  0
    9.7259   -5.3080   18.4485 C   0  0  0  0  0  0  0  0  0  0  0  0
    9.4578   -5.0200   16.3036 N   0  0  0  0  0  0  0  0  0  0  0  0
    5.0287   -8.9365   16.8223 C   0  0  0  0  0  0  0  0  0  0  0  0
    8.7742   -6.1498   16.6764 C   0  0  0  0  0  0  0  0  0  0  0  0
   10.9418   -3.4032   21.2053 O   0  0  0  0  0  0  0  0  0  0  0  0
    1.4797   -8.6258   16.2950 C   0  0  0  0  0  0  0  0  0  0  0  0
    9.2861   -1.2743   25.3585 C   0  0  0  0  0  0  0  0  0  0  0  0
    1.8892  -10.3985   17.7511 N   0  0  0  0  0  0  0  0  0  0  0  0
    9.6210   -0.6952   24.0976 C   0  0  0  0  0  0  0  0  0  0  0  0
    7.0792   -9.0217   17.1429 C   0  0  0  0  0  0  0  0  0  0  0  0
    3.1713  -10.1816   17.6634 C   0  0  0  0  0  0  0  0  0  0  0  0
    2.7878   -8.3822   16.2137 C   0  0  0  0  0  0  0  0  0  0  0  0
    9.4601   -2.6590   25.6528 C   0  0  0  0  0  0  0  0  0  0  0  0
   10.1182   -1.5672   23.1165 C   0  0  0  0  0  0  0  0  0  0  0  0
    1.0552   -9.6360   17.0650 C   0  0  0  0  0  0  0  0  0  0  0  0
    3.6519   -9.1783   16.9039 C   0  0  0  0  0  0  0  0  0  0  0  0
    7.8675   -7.0096   15.9415 C   0  0  0  0  0  0  0  0  0  0  0  0
    5.9733   -9.6553   17.3832 N   0  0  0  0  0  0  0  0  0  0  0  0
   10.2411   -2.9363   23.4301 C   0  0  0  0  0  0  0  0  0  0  0  0
   10.7288   -3.8197   19.9525 C   0  0  0  0  0  0  0  0  0  0  0  0
   10.1189   -5.0054   19.6987 C   0  0  0  0  0  0  0  0  0  0  0  0
  1  3  4  0
  1  7  4  0
  2 21  4  0
  2 27  4  0
  3  9  4  0
  3 10  4  0
  4  8  4  0
  4 18  4  0
  4 25  1  0
  5  9  4  0
  5 12  4  0
  6 13  1  0
  6 27  1  0
  7 28  4  0
  8 11  4  0
  9 29  4  0
 10 12  4  0
 11 24  1  0
 11 26  4  0
 12 25  1  0
 13 28  1  0
 14 20  4  0
 14 23  4  0
 15 17  4  0
 15 21  4  0
 16 19  4  0
 16 23  4  0
 17 22  4  0
 18 26  4  0
 19 24  4  0
 20 24  4  0
 22 27  4  0
 28 29  4  0
M  END
$$$$

 Created by Python create_sdf_string function

 29 33  0  0  0  0  0  0  0  0999 V2000
   10.7215   -3.3326   17.6437 C   0  0  0  0  0  0  0  0  0  0  0  0
    9.9489   -3.4675   24.6487 N   0  0  0  0  0  0  0  0  0  0  0  0
   10.0172   -4.4740   17.4101 C   0  0  0  0  0  0  0  0  0  0  0  0
    6.9051   -7.9575   16.4222 C   0  0  0  0  0  0  0  0  0  0  0  0
    8.9969   -6.3552   17.9668 N   0  0  0  0  0  0  0  0  0  0  0  0
   10.6702   -3.9051   22.4070 C   0  0  0  0  0  0  0  0  0  0  0  0
   11.0625   -3.0028   18.8894 C   0  0  0  0  0  0  0  0  0  0  0  0
    5.6180   -7.9194   16.1754 O   0  0  0  0  0  0  0  0  0  0  0  0
    9.7259   -5.3080   18.4485 C   0  0  0  0  0  0  0  0  0  0  0  0
    9.4578   -5.0200   16.3036 N   0  0  0  0  0  0  0  0  0  0  0  0
    5.0287   -8.9365   16.8223 C   0  0  0  0  0  0  0  0  0  0  0  0
    8.7742   -6.1498   16.6764 C   0  0  0  0  0  0  0  0  0  0  0  0
   10.9418   -3.4032   21.2053 O   0  0  0  0  0  0  0  0  0  0  0  0
    1.4797   -8.6258   16.2950 C   0  0  0  0  0  0  0  0  0  0  0  0
    9.2861   -1.2743   25.3585 C   0  0  0  0  0  0  0  0  0  0  0  0
    1.8892  -10.3985   17.7511 N   0  0  0  0  0  0  0  0  0  0  0  0
    9.6210   -0.6952   24.0976 C   0  0  0  0  0  0  0  0  0  0  0  0
    7.0792   -9.0217   17.1429 C   0  0  0  0  0  0  0  0  0  0  0  0
    3.1713  -10.1816   17.6634 C   0  0  0  0  0  0  0  0  0  0  0  0
    2.7878   -8.3822   16.2137 C   0  0  0  0  0  0  0  0  0  0  0  0
    9.4601   -2.6590   25.6528 C   0  0  0  0  0  0  0  0  0  0  0  0
   10.1182   -1.5672   23.1165 C   0  0  0  0  0  0  0  0  0  0  0  0
    1.0552   -9.6360   17.0650 C   0  0  0  0  0  0  0  0  0  0  0  0
    3.6519   -9.1783   16.9039 C   0  0  0  0  0  0  0  0  0  0  0  0
    7.8675   -7.0096   15.9415 C   0  0  0  0  0  0  0  0  0  0  0  0
    5.9733   -9.6553   17.3832 N   0  0  0  0  0  0  0  0  0  0  0  0
   10.2411   -2.9363   23.4301 C   0  0  0  0  0  0  0  0  0  0  0  0
   10.7288   -3.8197   19.9525 C   0  0  0  0  0  0  0  0  0  0  0  0
   10.1189   -5.0054   19.6987 C   0  0  0  0  0  0  0  0  0  0  0  0
  1  3  4  0
  1  7  4  0
  2 21  4  0
  2 27  4  0
  3  9  4  0
  3 10  4  0
  4  8  4  0
  4 18  4  0
  4 25  1  0
  5  9  4  0
  5 12  4  0
  6 13  1  0
  6 27  1  0
  7 28  4  0
  8 11  4  0
  9 29  4  0
 10 12  4  0
 11 24  1  0
 11 26  4  0
 12 25  1  0
 13 28  1  0
 14 20  4  0
 14 23  4  0
 15 17  4  0
 15 21  4  0
 16 19  4  0
 16 23  4  0
 17 22  4  0
 18 26  4  0
 19 24  4  0
 20 24  4  0
 22 27  4  0
 28 29  4  0
M  END
$$$$

 Created by Python create_sdf_string function

 29 33  0  0  0  0  0  0  0  0999 V2000
   10.7215   -3.3326   17.6437 C   0  0  0  0  0  0  0  0  0  0  0  0
    9.9489   -3.4675   24.6487 N   0  0  0  0  0  0  0  0  0  0  0  0
   10.0172   -4.4740   17.4101 C   0  0  0  0  0  0  0  0  0  0  0  0
    6.9051   -7.9575   16.4222 C   0  0  0  0  0  0  0  0  0  0  0  0
    8.9969   -6.3552   17.9668 N   0  0  0  0  0  0  0  0  0  0  0  0
   10.6702   -3.9051   22.4070 C   0  0  0  0  0  0  0  0  0  0  0  0
   11.0625   -3.0028   18.8894 C   0  0  0  0  0  0  0  0  0  0  0  0
    5.6180   -7.9194   16.1754 O   0  0  0  0  0  0  0  0  0  0  0  0
    9.7259   -5.3080   18.4485 C   0  0  0  0  0  0  0  0  0  0  0  0
    9.4578   -5.0200   16.3036 N   0  0  0  0  0  0  0  0  0  0  0  0
    5.0287   -8.9365   16.8223 C   0  0  0  0  0  0  0  0  0  0  0  0
    8.7742   -6.1498   16.6764 C   0  0  0  0  0  0  0  0  0  0  0  0
   10.9418   -3.4032   21.2053 O   0  0  0  0  0  0  0  0  0  0  0  0
    1.4797   -8.6258   16.2950 C   0  0  0  0  0  0  0  0  0  0  0  0
    9.2861   -1.2743   25.3585 C   0  0  0  0  0  0  0  0  0  0  0  0
    1.8892  -10.3985   17.7511 N   0  0  0  0  0  0  0  0  0  0  0  0
    9.6210   -0.6952   24.0976 C   0  0  0  0  0  0  0  0  0  0  0  0
    7.0792   -9.0217   17.1429 C   0  0  0  0  0  0  0  0  0  0  0  0
    3.1713  -10.1816   17.6634 C   0  0  0  0  0  0  0  0  0  0  0  0
    2.7878   -8.3822   16.2137 C   0  0  0  0  0  0  0  0  0  0  0  0
    9.4601   -2.6590   25.6528 C   0  0  0  0  0  0  0  0  0  0  0  0
   10.1182   -1.5672   23.1165 C   0  0  0  0  0  0  0  0  0  0  0  0
    1.0552   -9.6360   17.0650 C   0  0  0  0  0  0  0  0  0  0  0  0
    3.6519   -9.1783   16.9039 C   0  0  0  0  0  0  0  0  0  0  0  0
    7.8675   -7.0096   15.9415 C   0  0  0  0  0  0  0  0  0  0  0  0
    5.9733   -9.6553   17.3832 N   0  0  0  0  0  0  0  0  0  0  0  0
   10.2411   -2.9363   23.4301 C   0  0  0  0  0  0  0  0  0  0  0  0
   10.7288   -3.8197   19.9525 C   0  0  0  0  0  0  0  0  0  0  0  0
   10.1189   -5.0054   19.6987 C   0  0  0  0  0  0  0  0  0  0  0  0
  1  3  4  0
  1  7  4  0
  2 21  4  0
  2 27  4  0
  3  9  4  0
  3 10  4  0
  4  8  4  0
  4 18  4  0
  4 25  1  0
  5  9  4  0
  5 12  4  0
  6 13  1  0
  6 27  1  0
  7 28  4  0
  8 11  4  0
  9 29  4  0
 10 12  4  0
 11 24  1  0
 11 26  4  0
 12 25  1  0
 13 28  1  0
 14 20  4  0
 14 23  4  0
 15 17  4  0
 15 21  4  0
 16 19  4  0
 16 23  4  0
 17 22  4  0
 18 26  4  0
 19 24  4  0
 20 24  4  0
 22 27  4  0
 28 29  4  0
M  END
$$$$

 Created by Python create_sdf_string function

 29 33  0  0  0  0  0  0  0  0999 V2000
   10.7215   -3.3326   17.6437 C   0  0  0  0  0  0  0  0  0  0  0  0
    9.9489   -3.4675   24.6487 N   0  0  0  0  0  0  0  0  0  0  0  0
   10.0172   -4.4740   17.4101 C   0  0  0  0  0  0  0  0  0  0  0  0
    6.9051   -7.9575   16.4222 C   0  0  0  0  0  0  0  0  0  0  0  0
    8.9969   -6.3552   17.9668 N   0  0  0  0  0  0  0  0  0  0  0  0
   10.6702   -3.9051   22.4070 C   0  0  0  0  0  0  0  0  0  0  0  0
   11.0625   -3.0028   18.8894 C   0  0  0  0  0  0  0  0  0  0  0  0
    5.6180   -7.9194   16.1754 O   0  0  0  0  0  0  0  0  0  0  0  0
    9.7259   -5.3080   18.4485 C   0  0  0  0  0  0  0  0  0  0  0  0
    9.4578   -5.0200   16.3036 N   0  0  0  0  0  0  0  0  0  0  0  0
    5.0287   -8.9365   16.8223 C   0  0  0  0  0  0  0  0  0  0  0  0
    8.7742   -6.1498   16.6764 C   0  0  0  0  0  0  0  0  0  0  0  0
   10.9418   -3.4032   21.2053 O   0  0  0  0  0  0  0  0  0  0  0  0
    1.4797   -8.6258   16.2950 C   0  0  0  0  0  0  0  0  0  0  0  0
    9.2861   -1.2743   25.3585 C   0  0  0  0  0  0  0  0  0  0  0  0
    1.8892  -10.3985   17.7511 N   0  0  0  0  0  0  0  0  0  0  0  0
    9.6210   -0.6952   24.0976 C   0  0  0  0  0  0  0  0  0  0  0  0
    7.0792   -9.0217   17.1429 C   0  0  0  0  0  0  0  0  0  0  0  0
    3.1713  -10.1816   17.6634 C   0  0  0  0  0  0  0  0  0  0  0  0
    2.7878   -8.3822   16.2137 C   0  0  0  0  0  0  0  0  0  0  0  0
    9.4601   -2.6590   25.6528 C   0  0  0  0  0  0  0  0  0  0  0  0
   10.1182   -1.5672   23.1165 C   0  0  0  0  0  0  0  0  0  0  0  0
    1.0552   -9.6360   17.0650 C   0  0  0  0  0  0  0  0  0  0  0  0
    3.6519   -9.1783   16.9039 C   0  0  0  0  0  0  0  0  0  0  0  0
    7.8675   -7.0096   15.9415 C   0  0  0  0  0  0  0  0  0  0  0  0
    5.9733   -9.6553   17.3832 N   0  0  0  0  0  0  0  0  0  0  0  0
   10.2411   -2.9363   23.4301 C   0  0  0  0  0  0  0  0  0  0  0  0
   10.7288   -3.8197   19.9525 C   0  0  0  0  0  0  0  0  0  0  0  0
   10.1189   -5.0054   19.6987 C   0  0  0  0  0  0  0  0  0  0  0  0
  1  3  4  0
  1  7  4  0
  2 21  4  0
  2 27  4  0
  3  9  4  0
  3 10  4  0
  4  8  4  0
  4 18  4  0
  4 25  1  0
  5  9  4  0
  5 12  4  0
  6 13  1  0
  6 27  1  0
  7 28  4  0
  8 11  4  0
  9 29  4  0
 10 12  4  0
 11 24  1  0
 11 26  4  0
 12 25  1  0
 13 28  1  0
 14 20  4  0
 14 23  4  0
 15 17  4  0
 15 21  4  0
 16 19  4  0
 16 23  4  0
 17 22  4  0
 18 26  4  0
 19 24  4  0
 20 24  4  0
 22 27  4  0
 28 29  4  0
M  END
$$$$

 Created by Python create_sdf_string function

 29 33  0  0  0  0  0  0  0  0999 V2000
   10.7215   -3.3326   17.6437 C   0  0  0  0  0  0  0  0  0  0  0  0
    9.9489   -3.4675   24.6487 N   0  0  0  0  0  0  0  0  0  0  0  0
   10.0172   -4.4740   17.4101 C   0  0  0  0  0  0  0  0  0  0  0  0
    6.9051   -7.9575   16.4222 C   0  0  0  0  0  0  0  0  0  0  0  0
    8.9969   -6.3552   17.9668 N   0  0  0  0  0  0  0  0  0  0  0  0
   10.6702   -3.9051   22.4070 C   0  0  0  0  0  0  0  0  0  0  0  0
   11.0625   -3.0028   18.8894 C   0  0  0  0  0  0  0  0  0  0  0  0
    5.6180   -7.9194   16.1754 O   0  0  0  0  0  0  0  0  0  0  0  0
    9.7259   -5.3080   18.4485 C   0  0  0  0  0  0  0  0  0  0  0  0
    9.4578   -5.0200   16.3036 N   0  0  0  0  0  0  0  0  0  0  0  0
    5.0287   -8.9365   16.8223 C   0  0  0  0  0  0  0  0  0  0  0  0
    8.7742   -6.1498   16.6764 C   0  0  0  0  0  0  0  0  0  0  0  0
   10.9418   -3.4032   21.2053 O   0  0  0  0  0  0  0  0  0  0  0  0
    1.4797   -8.6258   16.2950 C   0  0  0  0  0  0  0  0  0  0  0  0
    9.2861   -1.2743   25.3585 C   0  0  0  0  0  0  0  0  0  0  0  0
    1.8892  -10.3985   17.7511 N   0  0  0  0  0  0  0  0  0  0  0  0
    9.6210   -0.6952   24.0976 C   0  0  0  0  0  0  0  0  0  0  0  0
    7.0792   -9.0217   17.1429 C   0  0  0  0  0  0  0  0  0  0  0  0
    3.1713  -10.1816   17.6634 C   0  0  0  0  0  0  0  0  0  0  0  0
    2.7878   -8.3822   16.2137 C   0  0  0  0  0  0  0  0  0  0  0  0
    9.4601   -2.6590   25.6528 C   0  0  0  0  0  0  0  0  0  0  0  0
   10.1182   -1.5672   23.1165 C   0  0  0  0  0  0  0  0  0  0  0  0
    1.0552   -9.6360   17.0650 C   0  0  0  0  0  0  0  0  0  0  0  0
    3.6519   -9.1783   16.9039 C   0  0  0  0  0  0  0  0  0  0  0  0
    7.8675   -7.0096   15.9415 C   0  0  0  0  0  0  0  0  0  0  0  0
    5.9733   -9.6553   17.3832 N   0  0  0  0  0  0  0  0  0  0  0  0
   10.2411   -2.9363   23.4301 C   0  0  0  0  0  0  0  0  0  0  0  0
   10.7288   -3.8197   19.9525 C   0  0  0  0  0  0  0  0  0  0  0  0
   10.1189   -5.0054   19.6987 C   0  0  0  0  0  0  0  0  0  0  0  0
  1  3  4  0
  1  7  4  0
  2 21  4  0
  2 27  4  0
  3  9  4  0
  3 10  4  0
  4  8  4  0
  4 18  4  0
  4 25  1  0
  5  9  4  0
  5 12  4  0
  6 13  1  0
  6 27  1  0
  7 28  4  0
  8 11  4  0
  9 29  4  0
 10 12  4  0
 11 24  1  0
 11 26  4  0
 12 25  1  0
 13 28  1  0
 14 20  4  0
 14 23  4  0
 15 17  4  0
 15 21  4  0
 16 19  4  0
 16 23  4  0
 17 22  4  0
 18 26  4  0
 19 24  4  0
 20 24  4  0
 22 27  4  0
 28 29  4  0
M  END
$$$$

 Created by Python create_sdf_string function

 29 33  0  0  0  0  0  0  0  0999 V2000
   10.7215   -3.3326   17.6437 C   0  0  0  0  0  0  0  0  0  0  0  0
    9.9489   -3.4675   24.6487 N   0  0  0  0  0  0  0  0  0  0  0  0
   10.0172   -4.4740   17.4101 C   0  0  0  0  0  0  0  0  0  0  0  0
    6.9051   -7.9575   16.4222 C   0  0  0  0  0  0  0  0  0  0  0  0
    8.9969   -6.3552   17.9668 N   0  0  0  0  0  0  0  0  0  0  0  0
   10.6702   -3.9051   22.4070 C   0  0  0  0  0  0  0  0  0  0  0  0
   11.0625   -3.0028   18.8894 C   0  0  0  0  0  0  0  0  0  0  0  0
    5.6180   -7.9194   16.1754 O   0  0  0  0  0  0  0  0  0  0  0  0
    9.7259   -5.3080   18.4485 C   0  0  0  0  0  0  0  0  0  0  0  0
    9.4578   -5.0200   16.3036 N   0  0  0  0  0  0  0  0  0  0  0  0
    5.0287   -8.9365   16.8223 C   0  0  0  0  0  0  0  0  0  0  0  0
    8.7742   -6.1498   16.6764 C   0  0  0  0  0  0  0  0  0  0  0  0
   10.9418   -3.4032   21.2053 O   0  0  0  0  0  0  0  0  0  0  0  0
    1.4797   -8.6258   16.2950 C   0  0  0  0  0  0  0  0  0  0  0  0
    9.2861   -1.2743   25.3585 C   0  0  0  0  0  0  0  0  0  0  0  0
    1.8892  -10.3985   17.7511 N   0  0  0  0  0  0  0  0  0  0  0  0
    9.6210   -0.6952   24.0976 C   0  0  0  0  0  0  0  0  0  0  0  0
    7.0792   -9.0217   17.1429 C   0  0  0  0  0  0  0  0  0  0  0  0
    3.1713  -10.1816   17.6634 C   0  0  0  0  0  0  0  0  0  0  0  0
    2.7878   -8.3822   16.2137 C   0  0  0  0  0  0  0  0  0  0  0  0
    9.4601   -2.6590   25.6528 C   0  0  0  0  0  0  0  0  0  0  0  0
   10.1182   -1.5672   23.1165 C   0  0  0  0  0  0  0  0  0  0  0  0
    1.0552   -9.6360   17.0650 C   0  0  0  0  0  0  0  0  0  0  0  0
    3.6519   -9.1783   16.9039 C   0  0  0  0  0  0  0  0  0  0  0  0
    7.8675   -7.0096   15.9415 C   0  0  0  0  0  0  0  0  0  0  0  0
    5.9733   -9.6553   17.3832 N   0  0  0  0  0  0  0  0  0  0  0  0
   10.2411   -2.9363   23.4301 C   0  0  0  0  0  0  0  0  0  0  0  0
   10.7288   -3.8197   19.9525 C   0  0  0  0  0  0  0  0  0  0  0  0
   10.1189   -5.0054   19.6987 C   0  0  0  0  0  0  0  0  0  0  0  0
  1  3  4  0
  1  7  4  0
  2 21  4  0
  2 27  4  0
  3  9  4  0
  3 10  4  0
  4  8  4  0
  4 18  4  0
  4 25  1  0
  5  9  4  0
  5 12  4  0
  6 13  1  0
  6 27  1  0
  7 28  4  0
  8 11  4  0
  9 29  4  0
 10 12  4  0
 11 24  1  0
 11 26  4  0
 12 25  1  0
 13 28  1  0
 14 20  4  0
 14 23  4  0
 15 17  4  0
 15 21  4  0
 16 19  4  0
 16 23  4  0
 17 22  4  0
 18 26  4  0
 19 24  4  0
 20 24  4  0
 22 27  4  0
 28 29  4  0
M  END
$$$$

 Created by Python create_sdf_string function

 29 33  0  0  0  0  0  0  0  0999 V2000
   10.7215   -3.3326   17.6437 C   0  0  0  0  0  0  0  0  0  0  0  0
    9.9489   -3.4675   24.6487 N   0  0  0  0  0  0  0  0  0  0  0  0
   10.0172   -4.4740   17.4101 C   0  0  0  0  0  0  0  0  0  0  0  0
    6.9051   -7.9575   16.4222 C   0  0  0  0  0  0  0  0  0  0  0  0
    8.9969   -6.3552   17.9668 N   0  0  0  0  0  0  0  0  0  0  0  0
   10.6702   -3.9051   22.4070 C   0  0  0  0  0  0  0  0  0  0  0  0
   11.0625   -3.0028   18.8894 C   0  0  0  0  0  0  0  0  0  0  0  0
    5.6180   -7.9194   16.1754 O   0  0  0  0  0  0  0  0  0  0  0  0
    9.7259   -5.3080   18.4485 C   0  0  0  0  0  0  0  0  0  0  0  0
    9.4578   -5.0200   16.3036 N   0  0  0  0  0  0  0  0  0  0  0  0
    5.0287   -8.9365   16.8223 C   0  0  0  0  0  0  0  0  0  0  0  0
    8.7742   -6.1498   16.6764 C   0  0  0  0  0  0  0  0  0  0  0  0
   10.9418   -3.4032   21.2053 O   0  0  0  0  0  0  0  0  0  0  0  0
    1.4797   -8.6258   16.2950 C   0  0  0  0  0  0  0  0  0  0  0  0
    9.2861   -1.2743   25.3585 C   0  0  0  0  0  0  0  0  0  0  0  0
    1.8892  -10.3985   17.7511 N   0  0  0  0  0  0  0  0  0  0  0  0
    9.6210   -0.6952   24.0976 C   0  0  0  0  0  0  0  0  0  0  0  0
    7.0792   -9.0217   17.1429 C   0  0  0  0  0  0  0  0  0  0  0  0
    3.1713  -10.1816   17.6634 C   0  0  0  0  0  0  0  0  0  0  0  0
    2.7878   -8.3822   16.2137 C   0  0  0  0  0  0  0  0  0  0  0  0
    9.4601   -2.6590   25.6528 C   0  0  0  0  0  0  0  0  0  0  0  0
   10.1182   -1.5672   23.1165 C   0  0  0  0  0  0  0  0  0  0  0  0
    1.0552   -9.6360   17.0650 C   0  0  0  0  0  0  0  0  0  0  0  0
    3.6519   -9.1783   16.9039 C   0  0  0  0  0  0  0  0  0  0  0  0
    7.8675   -7.0096   15.9415 C   0  0  0  0  0  0  0  0  0  0  0  0
    5.9733   -9.6553   17.3832 N   0  0  0  0  0  0  0  0  0  0  0  0
   10.2411   -2.9363   23.4301 C   0  0  0  0  0  0  0  0  0  0  0  0
   10.7288   -3.8197   19.9525 C   0  0  0  0  0  0  0  0  0  0  0  0
   10.1189   -5.0054   19.6987 C   0  0  0  0  0  0  0  0  0  0  0  0
  1  3  4  0
  1  7  4  0
  2 21  4  0
  2 27  4  0
  3  9  4  0
  3 10  4  0
  4  8  4  0
  4 18  4  0
  4 25  1  0
  5  9  4  0
  5 12  4  0
  6 13  1  0
  6 27  1  0
  7 28  4  0
  8 11  4  0
  9 29  4  0
 10 12  4  0
 11 24  1  0
 11 26  4  0
 12 25  1  0
 13 28  1  0
 14 20  4  0
 14 23  4  0
 15 17  4  0
 15 21  4  0
 16 19  4  0
 16 23  4  0
 17 22  4  0
 18 26  4  0
 19 24  4  0
 20 24  4  0
 22 27  4  0
 28 29  4  0
M  END
$$$$

 Created by Python create_sdf_string function

 29 33  0  0  0  0  0  0  0  0999 V2000
   10.7215   -3.3326   17.6437 C   0  0  0  0  0  0  0  0  0  0  0  0
    9.9489   -3.4675   24.6487 N   0  0  0  0  0  0  0  0  0  0  0  0
   10.0172   -4.4740   17.4101 C   0  0  0  0  0  0  0  0  0  0  0  0
    6.9051   -7.9575   16.4222 C   0  0  0  0  0  0  0  0  0  0  0  0
    8.9969   -6.3552   17.9668 N   0  0  0  0  0  0  0  0  0  0  0  0
   10.6702   -3.9051   22.4070 C   0  0  0  0  0  0  0  0  0  0  0  0
   11.0625   -3.0028   18.8894 C   0  0  0  0  0  0  0  0  0  0  0  0
    5.6180   -7.9194   16.1754 O   0  0  0  0  0  0  0  0  0  0  0  0
    9.7259   -5.3080   18.4485 C   0  0  0  0  0  0  0  0  0  0  0  0
    9.4578   -5.0200   16.3036 N   0  0  0  0  0  0  0  0  0  0  0  0
    5.0287   -8.9365   16.8223 C   0  0  0  0  0  0  0  0  0  0  0  0
    8.7742   -6.1498   16.6764 C   0  0  0  0  0  0  0  0  0  0  0  0
   10.9418   -3.4032   21.2053 O   0  0  0  0  0  0  0  0  0  0  0  0
    1.4797   -8.6258   16.2950 C   0  0  0  0  0  0  0  0  0  0  0  0
    9.2861   -1.2743   25.3585 C   0  0  0  0  0  0  0  0  0  0  0  0
    1.8892  -10.3985   17.7511 N   0  0  0  0  0  0  0  0  0  0  0  0
    9.6210   -0.6952   24.0976 C   0  0  0  0  0  0  0  0  0  0  0  0
    7.0792   -9.0217   17.1429 C   0  0  0  0  0  0  0  0  0  0  0  0
    3.1713  -10.1816   17.6634 C   0  0  0  0  0  0  0  0  0  0  0  0
    2.7878   -8.3822   16.2137 C   0  0  0  0  0  0  0  0  0  0  0  0
    9.4601   -2.6590   25.6528 C   0  0  0  0  0  0  0  0  0  0  0  0
   10.1182   -1.5672   23.1165 C   0  0  0  0  0  0  0  0  0  0  0  0
    1.0552   -9.6360   17.0650 C   0  0  0  0  0  0  0  0  0  0  0  0
    3.6519   -9.1783   16.9039 C   0  0  0  0  0  0  0  0  0  0  0  0
    7.8675   -7.0096   15.9415 C   0  0  0  0  0  0  0  0  0  0  0  0
    5.9733   -9.6553   17.3832 N   0  0  0  0  0  0  0  0  0  0  0  0
   10.2411   -2.9363   23.4301 C   0  0  0  0  0  0  0  0  0  0  0  0
   10.7288   -3.8197   19.9525 C   0  0  0  0  0  0  0  0  0  0  0  0
   10.1189   -5.0054   19.6987 C   0  0  0  0  0  0  0  0  0  0  0  0
  1  3  4  0
  1  7  4  0
  2 21  4  0
  2 27  4  0
  3  9  4  0
  3 10  4  0
  4  8  4  0
  4 18  4  0
  4 25  1  0
  5  9  4  0
  5 12  4  0
  6 13  1  0
  6 27  1  0
  7 28  4  0
  8 11  4  0
  9 29  4  0
 10 12  4  0
 11 24  1  0
 11 26  4  0
 12 25  1  0
 13 28  1  0
 14 20  4  0
 14 23  4  0
 15 17  4  0
 15 21  4  0
 16 19  4  0
 16 23  4  0
 17 22  4  0
 18 26  4  0
 19 24  4  0
 20 24  4  0
 22 27  4  0
 28 29  4  0
M  END
$$$$

 Created by Python create_sdf_string function

 29 33  0  0  0  0  0  0  0  0999 V2000
   10.7215   -3.3326   17.6437 C   0  0  0  0  0  0  0  0  0  0  0  0
    9.9489   -3.4675   24.6487 N   0  0  0  0  0  0  0  0  0  0  0  0
   10.0172   -4.4740   17.4101 C   0  0  0  0  0  0  0  0  0  0  0  0
    6.9051   -7.9575   16.4222 C   0  0  0  0  0  0  0  0  0  0  0  0
    8.9969   -6.3552   17.9668 N   0  0  0  0  0  0  0  0  0  0  0  0
   10.6702   -3.9051   22.4070 C   0  0  0  0  0  0  0  0  0  0  0  0
   11.0625   -3.0028   18.8894 C   0  0  0  0  0  0  0  0  0  0  0  0
    5.6180   -7.9194   16.1754 O   0  0  0  0  0  0  0  0  0  0  0  0
    9.7259   -5.3080   18.4485 C   0  0  0  0  0  0  0  0  0  0  0  0
    9.4578   -5.0200   16.3036 N   0  0  0  0  0  0  0  0  0  0  0  0
    5.0287   -8.9365   16.8223 C   0  0  0  0  0  0  0  0  0  0  0  0
    8.7742   -6.1498   16.6764 C   0  0  0  0  0  0  0  0  0  0  0  0
   10.9418   -3.4032   21.2053 O   0  0  0  0  0  0  0  0  0  0  0  0
    1.4797   -8.6258   16.2950 C   0  0  0  0  0  0  0  0  0  0  0  0
    9.2861   -1.2743   25.3585 C   0  0  0  0  0  0  0  0  0  0  0  0
    1.8892  -10.3985   17.7511 N   0  0  0  0  0  0  0  0  0  0  0  0
    9.6210   -0.6952   24.0976 C   0  0  0  0  0  0  0  0  0  0  0  0
    7.0792   -9.0217   17.1429 C   0  0  0  0  0  0  0  0  0  0  0  0
    3.1713  -10.1816   17.6634 C   0  0  0  0  0  0  0  0  0  0  0  0
    2.7878   -8.3822   16.2137 C   0  0  0  0  0  0  0  0  0  0  0  0
    9.4601   -2.6590   25.6528 C   0  0  0  0  0  0  0  0  0  0  0  0
   10.1182   -1.5672   23.1165 C   0  0  0  0  0  0  0  0  0  0  0  0
    1.0552   -9.6360   17.0650 C   0  0  0  0  0  0  0  0  0  0  0  0
    3.6519   -9.1783   16.9039 C   0  0  0  0  0  0  0  0  0  0  0  0
    7.8675   -7.0096   15.9415 C   0  0  0  0  0  0  0  0  0  0  0  0
    5.9733   -9.6553   17.3832 N   0  0  0  0  0  0  0  0  0  0  0  0
   10.2411   -2.9363   23.4301 C   0  0  0  0  0  0  0  0  0  0  0  0
   10.7288   -3.8197   19.9525 C   0  0  0  0  0  0  0  0  0  0  0  0
   10.1189   -5.0054   19.6987 C   0  0  0  0  0  0  0  0  0  0  0  0
  1  3  4  0
  1  7  4  0
  2 21  4  0
  2 27  4  0
  3  9  4  0
  3 10  4  0
  4  8  4  0
  4 18  4  0
  4 25  1  0
  5  9  4  0
  5 12  4  0
  6 13  1  0
  6 27  1  0
  7 28  4  0
  8 11  4  0
  9 29  4  0
 10 12  4  0
 11 24  1  0
 11 26  4  0
 12 25  1  0
 13 28  1  0
 14 20  4  0
 14 23  4  0
 15 17  4  0
 15 21  4  0
 16 19  4  0
 16 23  4  0
 17 22  4  0
 18 26  4  0
 19 24  4  0
 20 24  4  0
 22 27  4  0
 28 29  4  0
M  END
$$$$

 Created by Python create_sdf_string function

 29 33  0  0  0  0  0  0  0  0999 V2000
   10.7215   -3.3326   17.6437 C   0  0  0  0  0  0  0  0  0  0  0  0
    9.9489   -3.4675   24.6487 N   0  0  0  0  0  0  0  0  0  0  0  0
   10.0172   -4.4740   17.4101 C   0  0  0  0  0  0  0  0  0  0  0  0
    6.9051   -7.9575   16.4222 C   0  0  0  0  0  0  0  0  0  0  0  0
    8.9969   -6.3552   17.9668 N   0  0  0  0  0  0  0  0  0  0  0  0
   10.6702   -3.9051   22.4070 C   0  0  0  0  0  0  0  0  0  0  0  0
   11.0625   -3.0028   18.8894 C   0  0  0  0  0  0  0  0  0  0  0  0
    5.6180   -7.9194   16.1754 O   0  0  0  0  0  0  0  0  0  0  0  0
    9.7259   -5.3080   18.4485 C   0  0  0  0  0  0  0  0  0  0  0  0
    9.4578   -5.0200   16.3036 N   0  0  0  0  0  0  0  0  0  0  0  0
    5.0287   -8.9365   16.8223 C   0  0  0  0  0  0  0  0  0  0  0  0
    8.7742   -6.1498   16.6764 C   0  0  0  0  0  0  0  0  0  0  0  0
   10.9418   -3.4032   21.2053 O   0  0  0  0  0  0  0  0  0  0  0  0
    1.4797   -8.6258   16.2950 C   0  0  0  0  0  0  0  0  0  0  0  0
    9.2861   -1.2743   25.3585 C   0  0  0  0  0  0  0  0  0  0  0  0
    1.8892  -10.3985   17.7511 N   0  0  0  0  0  0  0  0  0  0  0  0
    9.6210   -0.6952   24.0976 C   0  0  0  0  0  0  0  0  0  0  0  0
    7.0792   -9.0217   17.1429 C   0  0  0  0  0  0  0  0  0  0  0  0
    3.1713  -10.1816   17.6634 C   0  0  0  0  0  0  0  0  0  0  0  0
    2.7878   -8.3822   16.2137 C   0  0  0  0  0  0  0  0  0  0  0  0
    9.4601   -2.6590   25.6528 C   0  0  0  0  0  0  0  0  0  0  0  0
   10.1182   -1.5672   23.1165 C   0  0  0  0  0  0  0  0  0  0  0  0
    1.0552   -9.6360   17.0650 C   0  0  0  0  0  0  0  0  0  0  0  0
    3.6519   -9.1783   16.9039 C   0  0  0  0  0  0  0  0  0  0  0  0
    7.8675   -7.0096   15.9415 C   0  0  0  0  0  0  0  0  0  0  0  0
    5.9733   -9.6553   17.3832 N   0  0  0  0  0  0  0  0  0  0  0  0
   10.2411   -2.9363   23.4301 C   0  0  0  0  0  0  0  0  0  0  0  0
   10.7288   -3.8197   19.9525 C   0  0  0  0  0  0  0  0  0  0  0  0
   10.1189   -5.0054   19.6987 C   0  0  0  0  0  0  0  0  0  0  0  0
  1  3  4  0
  1  7  4  0
  2 21  4  0
  2 27  4  0
  3  9  4  0
  3 10  4  0
  4  8  4  0
  4 18  4  0
  4 25  1  0
  5  9  4  0
  5 12  4  0
  6 13  1  0
  6 27  1  0
  7 28  4  0
  8 11  4  0
  9 29  4  0
 10 12  4  0
 11 24  1  0
 11 26  4  0
 12 25  1  0
 13 28  1  0
 14 20  4  0
 14 23  4  0
 15 17  4  0
 15 21  4  0
 16 19  4  0
 16 23  4  0
 17 22  4  0
 18 26  4  0
 19 24  4  0
 20 24  4  0
 22 27  4  0
 28 29  4  0
M  END
$$$$

 Created by Python create_sdf_string function

 29 33  0  0  0  0  0  0  0  0999 V2000
   10.7215   -3.3326   17.6437 C   0  0  0  0  0  0  0  0  0  0  0  0
    9.9489   -3.4675   24.6487 N   0  0  0  0  0  0  0  0  0  0  0  0
   10.0172   -4.4740   17.4101 C   0  0  0  0  0  0  0  0  0  0  0  0
    6.9051   -7.9575   16.4222 C   0  0  0  0  0  0  0  0  0  0  0  0
    8.9969   -6.3552   17.9668 N   0  0  0  0  0  0  0  0  0  0  0  0
   10.6702   -3.9051   22.4070 C   0  0  0  0  0  0  0  0  0  0  0  0
   11.0625   -3.0028   18.8894 C   0  0  0  0  0  0  0  0  0  0  0  0
    5.6180   -7.9194   16.1754 O   0  0  0  0  0  0  0  0  0  0  0  0
    9.7259   -5.3080   18.4485 C   0  0  0  0  0  0  0  0  0  0  0  0
    9.4578   -5.0200   16.3036 N   0  0  0  0  0  0  0  0  0  0  0  0
    5.0287   -8.9365   16.8223 C   0  0  0  0  0  0  0  0  0  0  0  0
    8.7742   -6.1498   16.6764 C   0  0  0  0  0  0  0  0  0  0  0  0
   10.9418   -3.4032   21.2053 O   0  0  0  0  0  0  0  0  0  0  0  0
    1.4797   -8.6258   16.2950 C   0  0  0  0  0  0  0  0  0  0  0  0
    9.2861   -1.2743   25.3585 C   0  0  0  0  0  0  0  0  0  0  0  0
    1.8892  -10.3985   17.7511 N   0  0  0  0  0  0  0  0  0  0  0  0
    9.6210   -0.6952   24.0976 C   0  0  0  0  0  0  0  0  0  0  0  0
    7.0792   -9.0217   17.1429 C   0  0  0  0  0  0  0  0  0  0  0  0
    3.1713  -10.1816   17.6634 C   0  0  0  0  0  0  0  0  0  0  0  0
    2.7878   -8.3822   16.2137 C   0  0  0  0  0  0  0  0  0  0  0  0
    9.4601   -2.6590   25.6528 C   0  0  0  0  0  0  0  0  0  0  0  0
   10.1182   -1.5672   23.1165 C   0  0  0  0  0  0  0  0  0  0  0  0
    1.0552   -9.6360   17.0650 C   0  0  0  0  0  0  0  0  0  0  0  0
    3.6519   -9.1783   16.9039 C   0  0  0  0  0  0  0  0  0  0  0  0
    7.8675   -7.0096   15.9415 C   0  0  0  0  0  0  0  0  0  0  0  0
    5.9733   -9.6553   17.3832 N   0  0  0  0  0  0  0  0  0  0  0  0
   10.2411   -2.9363   23.4301 C   0  0  0  0  0  0  0  0  0  0  0  0
   10.7288   -3.8197   19.9525 C   0  0  0  0  0  0  0  0  0  0  0  0
   10.1189   -5.0054   19.6987 C   0  0  0  0  0  0  0  0  0  0  0  0
  1  3  4  0
  1  7  4  0
  2 21  4  0
  2 27  4  0
  3  9  4  0
  3 10  4  0
  4  8  4  0
  4 18  4  0
  4 25  1  0
  5  9  4  0
  5 12  4  0
  6 13  1  0
  6 27  1  0
  7 28  4  0
  8 11  4  0
  9 29  4  0
 10 12  4  0
 11 24  1  0
 11 26  4  0
 12 25  1  0
 13 28  1  0
 14 20  4  0
 14 23  4  0
 15 17  4  0
 15 21  4  0
 16 19  4  0
 16 23  4  0
 17 22  4  0
 18 26  4  0
 19 24  4  0
 20 24  4  0
 22 27  4  0
 28 29  4  0
M  END
$$$$

 Created by Python create_sdf_string function

 29 33  0  0  0  0  0  0  0  0999 V2000
   10.7215   -3.3326   17.6437 C   0  0  0  0  0  0  0  0  0  0  0  0
    9.9489   -3.4675   24.6487 N   0  0  0  0  0  0  0  0  0  0  0  0
   10.0172   -4.4740   17.4101 C   0  0  0  0  0  0  0  0  0  0  0  0
    6.9051   -7.9575   16.4222 C   0  0  0  0  0  0  0  0  0  0  0  0
    8.9969   -6.3552   17.9668 N   0  0  0  0  0  0  0  0  0  0  0  0
   10.6702   -3.9051   22.4070 C   0  0  0  0  0  0  0  0  0  0  0  0
   11.0625   -3.0028   18.8894 C   0  0  0  0  0  0  0  0  0  0  0  0
    5.6180   -7.9194   16.1754 O   0  0  0  0  0  0  0  0  0  0  0  0
    9.7259   -5.3080   18.4485 C   0  0  0  0  0  0  0  0  0  0  0  0
    9.4578   -5.0200   16.3036 N   0  0  0  0  0  0  0  0  0  0  0  0
    5.0287   -8.9365   16.8223 C   0  0  0  0  0  0  0  0  0  0  0  0
    8.7742   -6.1498   16.6764 C   0  0  0  0  0  0  0  0  0  0  0  0
   10.9418   -3.4032   21.2053 O   0  0  0  0  0  0  0  0  0  0  0  0
    1.4797   -8.6258   16.2950 C   0  0  0  0  0  0  0  0  0  0  0  0
    9.2861   -1.2743   25.3585 C   0  0  0  0  0  0  0  0  0  0  0  0
    1.8892  -10.3985   17.7511 N   0  0  0  0  0  0  0  0  0  0  0  0
    9.6210   -0.6952   24.0976 C   0  0  0  0  0  0  0  0  0  0  0  0
    7.0792   -9.0217   17.1429 C   0  0  0  0  0  0  0  0  0  0  0  0
    3.1713  -10.1816   17.6634 C   0  0  0  0  0  0  0  0  0  0  0  0
    2.7878   -8.3822   16.2137 C   0  0  0  0  0  0  0  0  0  0  0  0
    9.4601   -2.6590   25.6528 C   0  0  0  0  0  0  0  0  0  0  0  0
   10.1182   -1.5672   23.1165 C   0  0  0  0  0  0  0  0  0  0  0  0
    1.0552   -9.6360   17.0650 C   0  0  0  0  0  0  0  0  0  0  0  0
    3.6519   -9.1783   16.9039 C   0  0  0  0  0  0  0  0  0  0  0  0
    7.8675   -7.0096   15.9415 C   0  0  0  0  0  0  0  0  0  0  0  0
    5.9733   -9.6553   17.3832 N   0  0  0  0  0  0  0  0  0  0  0  0
   10.2411   -2.9363   23.4301 C   0  0  0  0  0  0  0  0  0  0  0  0
   10.7288   -3.8197   19.9525 C   0  0  0  0  0  0  0  0  0  0  0  0
   10.1189   -5.0054   19.6987 C   0  0  0  0  0  0  0  0  0  0  0  0
  1  3  4  0
  1  7  4  0
  2 21  4  0
  2 27  4  0
  3  9  4  0
  3 10  4  0
  4  8  4  0
  4 18  4  0
  4 25  1  0
  5  9  4  0
  5 12  4  0
  6 13  1  0
  6 27  1  0
  7 28  4  0
  8 11  4  0
  9 29  4  0
 10 12  4  0
 11 24  1  0
 11 26  4  0
 12 25  1  0
 13 28  1  0
 14 20  4  0
 14 23  4  0
 15 17  4  0
 15 21  4  0
 16 19  4  0
 16 23  4  0
 17 22  4  0
 18 26  4  0
 19 24  4  0
 20 24  4  0
 22 27  4  0
 28 29  4  0
M  END
$$$$

 Created by Python create_sdf_string function

 29 33  0  0  0  0  0  0  0  0999 V2000
   10.7215   -3.3326   17.6437 C   0  0  0  0  0  0  0  0  0  0  0  0
    9.9489   -3.4675   24.6487 N   0  0  0  0  0  0  0  0  0  0  0  0
   10.0172   -4.4740   17.4101 C   0  0  0  0  0  0  0  0  0  0  0  0
    6.9051   -7.9575   16.4222 C   0  0  0  0  0  0  0  0  0  0  0  0
    8.9969   -6.3552   17.9668 N   0  0  0  0  0  0  0  0  0  0  0  0
   10.6702   -3.9051   22.4070 C   0  0  0  0  0  0  0  0  0  0  0  0
   11.0625   -3.0028   18.8894 C   0  0  0  0  0  0  0  0  0  0  0  0
    5.6180   -7.9194   16.1754 O   0  0  0  0  0  0  0  0  0  0  0  0
    9.7259   -5.3080   18.4485 C   0  0  0  0  0  0  0  0  0  0  0  0
    9.4578   -5.0200   16.3036 N   0  0  0  0  0  0  0  0  0  0  0  0
    5.0287   -8.9365   16.8223 C   0  0  0  0  0  0  0  0  0  0  0  0
    8.7742   -6.1498   16.6764 C   0  0  0  0  0  0  0  0  0  0  0  0
   10.9418   -3.4032   21.2053 O   0  0  0  0  0  0  0  0  0  0  0  0
    1.4797   -8.6258   16.2950 C   0  0  0  0  0  0  0  0  0  0  0  0
    9.2861   -1.2743   25.3585 C   0  0  0  0  0  0  0  0  0  0  0  0
    1.8892  -10.3985   17.7511 N   0  0  0  0  0  0  0  0  0  0  0  0
    9.6210   -0.6952   24.0976 C   0  0  0  0  0  0  0  0  0  0  0  0
    7.0792   -9.0217   17.1429 C   0  0  0  0  0  0  0  0  0  0  0  0
    3.1713  -10.1816   17.6634 C   0  0  0  0  0  0  0  0  0  0  0  0
    2.7878   -8.3822   16.2137 C   0  0  0  0  0  0  0  0  0  0  0  0
    9.4601   -2.6590   25.6528 C   0  0  0  0  0  0  0  0  0  0  0  0
   10.1182   -1.5672   23.1165 C   0  0  0  0  0  0  0  0  0  0  0  0
    1.0552   -9.6360   17.0650 C   0  0  0  0  0  0  0  0  0  0  0  0
    3.6519   -9.1783   16.9039 C   0  0  0  0  0  0  0  0  0  0  0  0
    7.8675   -7.0096   15.9415 C   0  0  0  0  0  0  0  0  0  0  0  0
    5.9733   -9.6553   17.3832 N   0  0  0  0  0  0  0  0  0  0  0  0
   10.2411   -2.9363   23.4301 C   0  0  0  0  0  0  0  0  0  0  0  0
   10.7288   -3.8197   19.9525 C   0  0  0  0  0  0  0  0  0  0  0  0
   10.1189   -5.0054   19.6987 C   0  0  0  0  0  0  0  0  0  0  0  0
  1  3  4  0
  1  7  4  0
  2 21  4  0
  2 27  4  0
  3  9  4  0
  3 10  4  0
  4  8  4  0
  4 18  4  0
  4 25  1  0
  5  9  4  0
  5 12  4  0
  6 13  1  0
  6 27  1  0
  7 28  4  0
  8 11  4  0
  9 29  4  0
 10 12  4  0
 11 24  1  0
 11 26  4  0
 12 25  1  0
 13 28  1  0
 14 20  4  0
 14 23  4  0
 15 17  4  0
 15 21  4  0
 16 19  4  0
 16 23  4  0
 17 22  4  0
 18 26  4  0
 19 24  4  0
 20 24  4  0
 22 27  4  0
 28 29  4  0
M  END
$$$$

 Created by Python create_sdf_string function

 29 33  0  0  0  0  0  0  0  0999 V2000
   10.7215   -3.3326   17.6437 C   0  0  0  0  0  0  0  0  0  0  0  0
    9.9489   -3.4675   24.6487 N   0  0  0  0  0  0  0  0  0  0  0  0
   10.0172   -4.4740   17.4101 C   0  0  0  0  0  0  0  0  0  0  0  0
    6.9051   -7.9575   16.4222 C   0  0  0  0  0  0  0  0  0  0  0  0
    8.9969   -6.3552   17.9668 N   0  0  0  0  0  0  0  0  0  0  0  0
   10.6702   -3.9051   22.4070 C   0  0  0  0  0  0  0  0  0  0  0  0
   11.0625   -3.0028   18.8894 C   0  0  0  0  0  0  0  0  0  0  0  0
    5.6180   -7.9194   16.1754 O   0  0  0  0  0  0  0  0  0  0  0  0
    9.7259   -5.3080   18.4485 C   0  0  0  0  0  0  0  0  0  0  0  0
    9.4578   -5.0200   16.3036 N   0  0  0  0  0  0  0  0  0  0  0  0
    5.0287   -8.9365   16.8223 C   0  0  0  0  0  0  0  0  0  0  0  0
    8.7742   -6.1498   16.6764 C   0  0  0  0  0  0  0  0  0  0  0  0
   10.9418   -3.4032   21.2053 O   0  0  0  0  0  0  0  0  0  0  0  0
    1.4797   -8.6258   16.2950 C   0  0  0  0  0  0  0  0  0  0  0  0
    9.2861   -1.2743   25.3585 C   0  0  0  0  0  0  0  0  0  0  0  0
    1.8892  -10.3985   17.7511 N   0  0  0  0  0  0  0  0  0  0  0  0
    9.6210   -0.6952   24.0976 C   0  0  0  0  0  0  0  0  0  0  0  0
    7.0792   -9.0217   17.1429 C   0  0  0  0  0  0  0  0  0  0  0  0
    3.1713  -10.1816   17.6634 C   0  0  0  0  0  0  0  0  0  0  0  0
    2.7878   -8.3822   16.2137 C   0  0  0  0  0  0  0  0  0  0  0  0
    9.4601   -2.6590   25.6528 C   0  0  0  0  0  0  0  0  0  0  0  0
   10.1182   -1.5672   23.1165 C   0  0  0  0  0  0  0  0  0  0  0  0
    1.0552   -9.6360   17.0650 C   0  0  0  0  0  0  0  0  0  0  0  0
    3.6519   -9.1783   16.9039 C   0  0  0  0  0  0  0  0  0  0  0  0
    7.8675   -7.0096   15.9415 C   0  0  0  0  0  0  0  0  0  0  0  0
    5.9733   -9.6553   17.3832 N   0  0  0  0  0  0  0  0  0  0  0  0
   10.2411   -2.9363   23.4301 C   0  0  0  0  0  0  0  0  0  0  0  0
   10.7288   -3.8197   19.9525 C   0  0  0  0  0  0  0  0  0  0  0  0
   10.1189   -5.0054   19.6987 C   0  0  0  0  0  0  0  0  0  0  0  0
  1  3  4  0
  1  7  4  0
  2 21  4  0
  2 27  4  0
  3  9  4  0
  3 10  4  0
  4  8  4  0
  4 18  4  0
  4 25  1  0
  5  9  4  0
  5 12  4  0
  6 13  1  0
  6 27  1  0
  7 28  4  0
  8 11  4  0
  9 29  4  0
 10 12  4  0
 11 24  1  0
 11 26  4  0
 12 25  1  0
 13 28  1  0
 14 20  4  0
 14 23  4  0
 15 17  4  0
 15 21  4  0
 16 19  4  0
 16 23  4  0
 17 22  4  0
 18 26  4  0
 19 24  4  0
 20 24  4  0
 22 27  4  0
 28 29  4  0
M  END
$$$$

 Created by Python create_sdf_string function

 29 33  0  0  0  0  0  0  0  0999 V2000
   10.7215   -3.3326   17.6437 C   0  0  0  0  0  0  0  0  0  0  0  0
    9.9489   -3.4675   24.6487 N   0  0  0  0  0  0  0  0  0  0  0  0
   10.0172   -4.4740   17.4101 C   0  0  0  0  0  0  0  0  0  0  0  0
    6.9051   -7.9575   16.4222 C   0  0  0  0  0  0  0  0  0  0  0  0
    8.9969   -6.3552   17.9668 N   0  0  0  0  0  0  0  0  0  0  0  0
   10.6702   -3.9051   22.4070 C   0  0  0  0  0  0  0  0  0  0  0  0
   11.0625   -3.0028   18.8894 C   0  0  0  0  0  0  0  0  0  0  0  0
    5.6180   -7.9194   16.1754 O   0  0  0  0  0  0  0  0  0  0  0  0
    9.7259   -5.3080   18.4485 C   0  0  0  0  0  0  0  0  0  0  0  0
    9.4578   -5.0200   16.3036 N   0  0  0  0  0  0  0  0  0  0  0  0
    5.0287   -8.9365   16.8223 C   0  0  0  0  0  0  0  0  0  0  0  0
    8.7742   -6.1498   16.6764 C   0  0  0  0  0  0  0  0  0  0  0  0
   10.9418   -3.4032   21.2053 O   0  0  0  0  0  0  0  0  0  0  0  0
    1.4797   -8.6258   16.2950 C   0  0  0  0  0  0  0  0  0  0  0  0
    9.2861   -1.2743   25.3585 C   0  0  0  0  0  0  0  0  0  0  0  0
    1.8892  -10.3985   17.7511 N   0  0  0  0  0  0  0  0  0  0  0  0
    9.6210   -0.6952   24.0976 C   0  0  0  0  0  0  0  0  0  0  0  0
    7.0792   -9.0217   17.1429 C   0  0  0  0  0  0  0  0  0  0  0  0
    3.1713  -10.1816   17.6634 C   0  0  0  0  0  0  0  0  0  0  0  0
    2.7878   -8.3822   16.2137 C   0  0  0  0  0  0  0  0  0  0  0  0
    9.4601   -2.6590   25.6528 C   0  0  0  0  0  0  0  0  0  0  0  0
   10.1182   -1.5672   23.1165 C   0  0  0  0  0  0  0  0  0  0  0  0
    1.0552   -9.6360   17.0650 C   0  0  0  0  0  0  0  0  0  0  0  0
    3.6519   -9.1783   16.9039 C   0  0  0  0  0  0  0  0  0  0  0  0
    7.8675   -7.0096   15.9415 C   0  0  0  0  0  0  0  0  0  0  0  0
    5.9733   -9.6553   17.3832 N   0  0  0  0  0  0  0  0  0  0  0  0
   10.2411   -2.9363   23.4301 C   0  0  0  0  0  0  0  0  0  0  0  0
   10.7288   -3.8197   19.9525 C   0  0  0  0  0  0  0  0  0  0  0  0
   10.1189   -5.0054   19.6987 C   0  0  0  0  0  0  0  0  0  0  0  0
  1  3  4  0
  1  7  4  0
  2 21  4  0
  2 27  4  0
  3  9  4  0
  3 10  4  0
  4  8  4  0
  4 18  4  0
  4 25  1  0
  5  9  4  0
  5 12  4  0
  6 13  1  0
  6 27  1  0
  7 28  4  0
  8 11  4  0
  9 29  4  0
 10 12  4  0
 11 24  1  0
 11 26  4  0
 12 25  1  0
 13 28  1  0
 14 20  4  0
 14 23  4  0
 15 17  4  0
 15 21  4  0
 16 19  4  0
 16 23  4  0
 17 22  4  0
 18 26  4  0
 19 24  4  0
 20 24  4  0
 22 27  4  0
 28 29  4  0
M  END
$$$$

 Created by Python create_sdf_string function

 29 33  0  0  0  0  0  0  0  0999 V2000
   10.7215   -3.3326   17.6437 C   0  0  0  0  0  0  0  0  0  0  0  0
    9.9489   -3.4675   24.6487 N   0  0  0  0  0  0  0  0  0  0  0  0
   10.0172   -4.4740   17.4101 C   0  0  0  0  0  0  0  0  0  0  0  0
    6.9051   -7.9575   16.4222 C   0  0  0  0  0  0  0  0  0  0  0  0
    8.9969   -6.3552   17.9668 N   0  0  0  0  0  0  0  0  0  0  0  0
   10.6702   -3.9051   22.4070 C   0  0  0  0  0  0  0  0  0  0  0  0
   11.0625   -3.0028   18.8894 C   0  0  0  0  0  0  0  0  0  0  0  0
    5.6180   -7.9194   16.1754 O   0  0  0  0  0  0  0  0  0  0  0  0
    9.7259   -5.3080   18.4485 C   0  0  0  0  0  0  0  0  0  0  0  0
    9.4578   -5.0200   16.3036 N   0  0  0  0  0  0  0  0  0  0  0  0
    5.0287   -8.9365   16.8223 C   0  0  0  0  0  0  0  0  0  0  0  0
    8.7742   -6.1498   16.6764 C   0  0  0  0  0  0  0  0  0  0  0  0
   10.9418   -3.4032   21.2053 O   0  0  0  0  0  0  0  0  0  0  0  0
    1.4797   -8.6258   16.2950 C   0  0  0  0  0  0  0  0  0  0  0  0
    9.2861   -1.2743   25.3585 C   0  0  0  0  0  0  0  0  0  0  0  0
    1.8892  -10.3985   17.7511 N   0  0  0  0  0  0  0  0  0  0  0  0
    9.6210   -0.6952   24.0976 C   0  0  0  0  0  0  0  0  0  0  0  0
    7.0792   -9.0217   17.1429 C   0  0  0  0  0  0  0  0  0  0  0  0
    3.1713  -10.1816   17.6634 C   0  0  0  0  0  0  0  0  0  0  0  0
    2.7878   -8.3822   16.2137 C   0  0  0  0  0  0  0  0  0  0  0  0
    9.4601   -2.6590   25.6528 C   0  0  0  0  0  0  0  0  0  0  0  0
   10.1182   -1.5672   23.1165 C   0  0  0  0  0  0  0  0  0  0  0  0
    1.0552   -9.6360   17.0650 C   0  0  0  0  0  0  0  0  0  0  0  0
    3.6519   -9.1783   16.9039 C   0  0  0  0  0  0  0  0  0  0  0  0
    7.8675   -7.0096   15.9415 C   0  0  0  0  0  0  0  0  0  0  0  0
    5.9733   -9.6553   17.3832 N   0  0  0  0  0  0  0  0  0  0  0  0
   10.2411   -2.9363   23.4301 C   0  0  0  0  0  0  0  0  0  0  0  0
   10.7288   -3.8197   19.9525 C   0  0  0  0  0  0  0  0  0  0  0  0
   10.1189   -5.0054   19.6987 C   0  0  0  0  0  0  0  0  0  0  0  0
  1  3  4  0
  1  7  4  0
  2 21  4  0
  2 27  4  0
  3  9  4  0
  3 10  4  0
  4  8  4  0
  4 18  4  0
  4 25  1  0
  5  9  4  0
  5 12  4  0
  6 13  1  0
  6 27  1  0
  7 28  4  0
  8 11  4  0
  9 29  4  0
 10 12  4  0
 11 24  1  0
 11 26  4  0
 12 25  1  0
 13 28  1  0
 14 20  4  0
 14 23  4  0
 15 17  4  0
 15 21  4  0
 16 19  4  0
 16 23  4  0
 17 22  4  0
 18 26  4  0
 19 24  4  0
 20 24  4  0
 22 27  4  0
 28 29  4  0
M  END
$$$$

 Created by Python create_sdf_string function

 29 33  0  0  0  0  0  0  0  0999 V2000
   10.7215   -3.3326   17.6437 C   0  0  0  0  0  0  0  0  0  0  0  0
    9.9489   -3.4675   24.6487 N   0  0  0  0  0  0  0  0  0  0  0  0
   10.0172   -4.4740   17.4101 C   0  0  0  0  0  0  0  0  0  0  0  0
    6.9051   -7.9575   16.4222 C   0  0  0  0  0  0  0  0  0  0  0  0
    8.9969   -6.3552   17.9668 N   0  0  0  0  0  0  0  0  0  0  0  0
   10.6702   -3.9051   22.4070 C   0  0  0  0  0  0  0  0  0  0  0  0
   11.0625   -3.0028   18.8894 C   0  0  0  0  0  0  0  0  0  0  0  0
    5.6180   -7.9194   16.1754 O   0  0  0  0  0  0  0  0  0  0  0  0
    9.7259   -5.3080   18.4485 C   0  0  0  0  0  0  0  0  0  0  0  0
    9.4578   -5.0200   16.3036 N   0  0  0  0  0  0  0  0  0  0  0  0
    5.0287   -8.9365   16.8223 C   0  0  0  0  0  0  0  0  0  0  0  0
    8.7742   -6.1498   16.6764 C   0  0  0  0  0  0  0  0  0  0  0  0
   10.9418   -3.4032   21.2053 O   0  0  0  0  0  0  0  0  0  0  0  0
    1.4797   -8.6258   16.2950 C   0  0  0  0  0  0  0  0  0  0  0  0
    9.2861   -1.2743   25.3585 C   0  0  0  0  0  0  0  0  0  0  0  0
    1.8892  -10.3985   17.7511 N   0  0  0  0  0  0  0  0  0  0  0  0
    9.6210   -0.6952   24.0976 C   0  0  0  0  0  0  0  0  0  0  0  0
    7.0792   -9.0217   17.1429 C   0  0  0  0  0  0  0  0  0  0  0  0
    3.1713  -10.1816   17.6634 C   0  0  0  0  0  0  0  0  0  0  0  0
    2.7878   -8.3822   16.2137 C   0  0  0  0  0  0  0  0  0  0  0  0
    9.4601   -2.6590   25.6528 C   0  0  0  0  0  0  0  0  0  0  0  0
   10.1182   -1.5672   23.1165 C   0  0  0  0  0  0  0  0  0  0  0  0
    1.0552   -9.6360   17.0650 C   0  0  0  0  0  0  0  0  0  0  0  0
    3.6519   -9.1783   16.9039 C   0  0  0  0  0  0  0  0  0  0  0  0
    7.8675   -7.0096   15.9415 C   0  0  0  0  0  0  0  0  0  0  0  0
    5.9733   -9.6553   17.3832 N   0  0  0  0  0  0  0  0  0  0  0  0
   10.2411   -2.9363   23.4301 C   0  0  0  0  0  0  0  0  0  0  0  0
   10.7288   -3.8197   19.9525 C   0  0  0  0  0  0  0  0  0  0  0  0
   10.1189   -5.0054   19.6987 C   0  0  0  0  0  0  0  0  0  0  0  0
  1  3  4  0
  1  7  4  0
  2 21  4  0
  2 27  4  0
  3  9  4  0
  3 10  4  0
  4  8  4  0
  4 18  4  0
  4 25  1  0
  5  9  4  0
  5 12  4  0
  6 13  1  0
  6 27  1  0
  7 28  4  0
  8 11  4  0
  9 29  4  0
 10 12  4  0
 11 24  1  0
 11 26  4  0
 12 25  1  0
 13 28  1  0
 14 20  4  0
 14 23  4  0
 15 17  4  0
 15 21  4  0
 16 19  4  0
 16 23  4  0
 17 22  4  0
 18 26  4  0
 19 24  4  0
 20 24  4  0
 22 27  4  0
 28 29  4  0
M  END
$$$$

 Created by Python create_sdf_string function

 29 33  0  0  0  0  0  0  0  0999 V2000
   10.7215   -3.3326   17.6437 C   0  0  0  0  0  0  0  0  0  0  0  0
    9.9489   -3.4675   24.6487 N   0  0  0  0  0  0  0  0  0  0  0  0
   10.0172   -4.4740   17.4101 C   0  0  0  0  0  0  0  0  0  0  0  0
    6.9051   -7.9575   16.4222 C   0  0  0  0  0  0  0  0  0  0  0  0
    8.9969   -6.3552   17.9668 N   0  0  0  0  0  0  0  0  0  0  0  0
   10.6702   -3.9051   22.4070 C   0  0  0  0  0  0  0  0  0  0  0  0
   11.0625   -3.0028   18.8894 C   0  0  0  0  0  0  0  0  0  0  0  0
    5.6180   -7.9194   16.1754 O   0  0  0  0  0  0  0  0  0  0  0  0
    9.7259   -5.3080   18.4485 C   0  0  0  0  0  0  0  0  0  0  0  0
    9.4578   -5.0200   16.3036 N   0  0  0  0  0  0  0  0  0  0  0  0
    5.0287   -8.9365   16.8223 C   0  0  0  0  0  0  0  0  0  0  0  0
    8.7742   -6.1498   16.6764 C   0  0  0  0  0  0  0  0  0  0  0  0
   10.9418   -3.4032   21.2053 O   0  0  0  0  0  0  0  0  0  0  0  0
    1.4797   -8.6258   16.2950 C   0  0  0  0  0  0  0  0  0  0  0  0
    9.2861   -1.2743   25.3585 C   0  0  0  0  0  0  0  0  0  0  0  0
    1.8892  -10.3985   17.7511 N   0  0  0  0  0  0  0  0  0  0  0  0
    9.6210   -0.6952   24.0976 C   0  0  0  0  0  0  0  0  0  0  0  0
    7.0792   -9.0217   17.1429 C   0  0  0  0  0  0  0  0  0  0  0  0
    3.1713  -10.1816   17.6634 C   0  0  0  0  0  0  0  0  0  0  0  0
    2.7878   -8.3822   16.2137 C   0  0  0  0  0  0  0  0  0  0  0  0
    9.4601   -2.6590   25.6528 C   0  0  0  0  0  0  0  0  0  0  0  0
   10.1182   -1.5672   23.1165 C   0  0  0  0  0  0  0  0  0  0  0  0
    1.0552   -9.6360   17.0650 C   0  0  0  0  0  0  0  0  0  0  0  0
    3.6519   -9.1783   16.9039 C   0  0  0  0  0  0  0  0  0  0  0  0
    7.8675   -7.0096   15.9415 C   0  0  0  0  0  0  0  0  0  0  0  0
    5.9733   -9.6553   17.3832 N   0  0  0  0  0  0  0  0  0  0  0  0
   10.2411   -2.9363   23.4301 C   0  0  0  0  0  0  0  0  0  0  0  0
   10.7288   -3.8197   19.9525 C   0  0  0  0  0  0  0  0  0  0  0  0
   10.1189   -5.0054   19.6987 C   0  0  0  0  0  0  0  0  0  0  0  0
  1  3  4  0
  1  7  4  0
  2 21  4  0
  2 27  4  0
  3  9  4  0
  3 10  4  0
  4  8  4  0
  4 18  4  0
  4 25  1  0
  5  9  4  0
  5 12  4  0
  6 13  1  0
  6 27  1  0
  7 28  4  0
  8 11  4  0
  9 29  4  0
 10 12  4  0
 11 24  1  0
 11 26  4  0
 12 25  1  0
 13 28  1  0
 14 20  4  0
 14 23  4  0
 15 17  4  0
 15 21  4  0
 16 19  4  0
 16 23  4  0
 17 22  4  0
 18 26  4  0
 19 24  4  0
 20 24  4  0
 22 27  4  0
 28 29  4  0
M  END
$$$$

 Created by Python create_sdf_string function

 29 33  0  0  0  0  0  0  0  0999 V2000
   10.7215   -3.3326   17.6437 C   0  0  0  0  0  0  0  0  0  0  0  0
    9.9489   -3.4675   24.6487 N   0  0  0  0  0  0  0  0  0  0  0  0
   10.0172   -4.4740   17.4101 C   0  0  0  0  0  0  0  0  0  0  0  0
    6.9051   -7.9575   16.4222 C   0  0  0  0  0  0  0  0  0  0  0  0
    8.9969   -6.3552   17.9668 N   0  0  0  0  0  0  0  0  0  0  0  0
   10.6702   -3.9051   22.4070 C   0  0  0  0  0  0  0  0  0  0  0  0
   11.0625   -3.0028   18.8894 C   0  0  0  0  0  0  0  0  0  0  0  0
    5.6180   -7.9194   16.1754 O   0  0  0  0  0  0  0  0  0  0  0  0
    9.7259   -5.3080   18.4485 C   0  0  0  0  0  0  0  0  0  0  0  0
    9.4578   -5.0200   16.3036 N   0  0  0  0  0  0  0  0  0  0  0  0
    5.0287   -8.9365   16.8223 C   0  0  0  0  0  0  0  0  0  0  0  0
    8.7742   -6.1498   16.6764 C   0  0  0  0  0  0  0  0  0  0  0  0
   10.9418   -3.4032   21.2053 O   0  0  0  0  0  0  0  0  0  0  0  0
    1.4797   -8.6258   16.2950 C   0  0  0  0  0  0  0  0  0  0  0  0
    9.2861   -1.2743   25.3585 C   0  0  0  0  0  0  0  0  0  0  0  0
    1.8892  -10.3985   17.7511 N   0  0  0  0  0  0  0  0  0  0  0  0
    9.6210   -0.6952   24.0976 C   0  0  0  0  0  0  0  0  0  0  0  0
    7.0792   -9.0217   17.1429 C   0  0  0  0  0  0  0  0  0  0  0  0
    3.1713  -10.1816   17.6634 C   0  0  0  0  0  0  0  0  0  0  0  0
    2.7878   -8.3822   16.2137 C   0  0  0  0  0  0  0  0  0  0  0  0
    9.4601   -2.6590   25.6528 C   0  0  0  0  0  0  0  0  0  0  0  0
   10.1182   -1.5672   23.1165 C   0  0  0  0  0  0  0  0  0  0  0  0
    1.0552   -9.6360   17.0650 C   0  0  0  0  0  0  0  0  0  0  0  0
    3.6519   -9.1783   16.9039 C   0  0  0  0  0  0  0  0  0  0  0  0
    7.8675   -7.0096   15.9415 C   0  0  0  0  0  0  0  0  0  0  0  0
    5.9733   -9.6553   17.3832 N   0  0  0  0  0  0  0  0  0  0  0  0
   10.2411   -2.9363   23.4301 C   0  0  0  0  0  0  0  0  0  0  0  0
   10.7288   -3.8197   19.9525 C   0  0  0  0  0  0  0  0  0  0  0  0
   10.1189   -5.0054   19.6987 C   0  0  0  0  0  0  0  0  0  0  0  0
  1  3  4  0
  1  7  4  0
  2 21  4  0
  2 27  4  0
  3  9  4  0
  3 10  4  0
  4  8  4  0
  4 18  4  0
  4 25  1  0
  5  9  4  0
  5 12  4  0
  6 13  1  0
  6 27  1  0
  7 28  4  0
  8 11  4  0
  9 29  4  0
 10 12  4  0
 11 24  1  0
 11 26  4  0
 12 25  1  0
 13 28  1  0
 14 20  4  0
 14 23  4  0
 15 17  4  0
 15 21  4  0
 16 19  4  0
 16 23  4  0
 17 22  4  0
 18 26  4  0
 19 24  4  0
 20 24  4  0
 22 27  4  0
 28 29  4  0
M  END
$$$$

 Created by Python create_sdf_string function

 29 33  0  0  0  0  0  0  0  0999 V2000
   10.7215   -3.3326   17.6437 C   0  0  0  0  0  0  0  0  0  0  0  0
    9.9489   -3.4675   24.6487 N   0  0  0  0  0  0  0  0  0  0  0  0
   10.0172   -4.4740   17.4101 C   0  0  0  0  0  0  0  0  0  0  0  0
    6.9051   -7.9575   16.4222 C   0  0  0  0  0  0  0  0  0  0  0  0
    8.9969   -6.3552   17.9668 N   0  0  0  0  0  0  0  0  0  0  0  0
   10.6702   -3.9051   22.4070 C   0  0  0  0  0  0  0  0  0  0  0  0
   11.0625   -3.0028   18.8894 C   0  0  0  0  0  0  0  0  0  0  0  0
    5.6180   -7.9194   16.1754 O   0  0  0  0  0  0  0  0  0  0  0  0
    9.7259   -5.3080   18.4485 C   0  0  0  0  0  0  0  0  0  0  0  0
    9.4578   -5.0200   16.3036 N   0  0  0  0  0  0  0  0  0  0  0  0
    5.0287   -8.9365   16.8223 C   0  0  0  0  0  0  0  0  0  0  0  0
    8.7742   -6.1498   16.6764 C   0  0  0  0  0  0  0  0  0  0  0  0
   10.9418   -3.4032   21.2053 O   0  0  0  0  0  0  0  0  0  0  0  0
    1.4797   -8.6258   16.2950 C   0  0  0  0  0  0  0  0  0  0  0  0
    9.2861   -1.2743   25.3585 C   0  0  0  0  0  0  0  0  0  0  0  0
    1.8892  -10.3985   17.7511 N   0  0  0  0  0  0  0  0  0  0  0  0
    9.6210   -0.6952   24.0976 C   0  0  0  0  0  0  0  0  0  0  0  0
    7.0792   -9.0217   17.1429 C   0  0  0  0  0  0  0  0  0  0  0  0
    3.1713  -10.1816   17.6634 C   0  0  0  0  0  0  0  0  0  0  0  0
    2.7878   -8.3822   16.2137 C   0  0  0  0  0  0  0  0  0  0  0  0
    9.4601   -2.6590   25.6528 C   0  0  0  0  0  0  0  0  0  0  0  0
   10.1182   -1.5672   23.1165 C   0  0  0  0  0  0  0  0  0  0  0  0
    1.0552   -9.6360   17.0650 C   0  0  0  0  0  0  0  0  0  0  0  0
    3.6519   -9.1783   16.9039 C   0  0  0  0  0  0  0  0  0  0  0  0
    7.8675   -7.0096   15.9415 C   0  0  0  0  0  0  0  0  0  0  0  0
    5.9733   -9.6553   17.3832 N   0  0  0  0  0  0  0  0  0  0  0  0
   10.2411   -2.9363   23.4301 C   0  0  0  0  0  0  0  0  0  0  0  0
   10.7288   -3.8197   19.9525 C   0  0  0  0  0  0  0  0  0  0  0  0
   10.1189   -5.0054   19.6987 C   0  0  0  0  0  0  0  0  0  0  0  0
  1  3  4  0
  1  7  4  0
  2 21  4  0
  2 27  4  0
  3  9  4  0
  3 10  4  0
  4  8  4  0
  4 18  4  0
  4 25  1  0
  5  9  4  0
  5 12  4  0
  6 13  1  0
  6 27  1  0
  7 28  4  0
  8 11  4  0
  9 29  4  0
 10 12  4  0
 11 24  1  0
 11 26  4  0
 12 25  1  0
 13 28  1  0
 14 20  4  0
 14 23  4  0
 15 17  4  0
 15 21  4  0
 16 19  4  0
 16 23  4  0
 17 22  4  0
 18 26  4  0
 19 24  4  0
 20 24  4  0
 22 27  4  0
 28 29  4  0
M  END
$$$$

 Created by Python create_sdf_string function

 29 33  0  0  0  0  0  0  0  0999 V2000
   10.7215   -3.3326   17.6437 C   0  0  0  0  0  0  0  0  0  0  0  0
    9.9489   -3.4675   24.6487 N   0  0  0  0  0  0  0  0  0  0  0  0
   10.0172   -4.4740   17.4101 C   0  0  0  0  0  0  0  0  0  0  0  0
    6.9051   -7.9575   16.4222 C   0  0  0  0  0  0  0  0  0  0  0  0
    8.9969   -6.3552   17.9668 N   0  0  0  0  0  0  0  0  0  0  0  0
   10.6702   -3.9051   22.4070 C   0  0  0  0  0  0  0  0  0  0  0  0
   11.0625   -3.0028   18.8894 C   0  0  0  0  0  0  0  0  0  0  0  0
    5.6180   -7.9194   16.1754 O   0  0  0  0  0  0  0  0  0  0  0  0
    9.7259   -5.3080   18.4485 C   0  0  0  0  0  0  0  0  0  0  0  0
    9.4578   -5.0200   16.3036 N   0  0  0  0  0  0  0  0  0  0  0  0
    5.0287   -8.9365   16.8223 C   0  0  0  0  0  0  0  0  0  0  0  0
    8.7742   -6.1498   16.6764 C   0  0  0  0  0  0  0  0  0  0  0  0
   10.9418   -3.4032   21.2053 O   0  0  0  0  0  0  0  0  0  0  0  0
    1.4797   -8.6258   16.2950 C   0  0  0  0  0  0  0  0  0  0  0  0
    9.2861   -1.2743   25.3585 C   0  0  0  0  0  0  0  0  0  0  0  0
    1.8892  -10.3985   17.7511 N   0  0  0  0  0  0  0  0  0  0  0  0
    9.6210   -0.6952   24.0976 C   0  0  0  0  0  0  0  0  0  0  0  0
    7.0792   -9.0217   17.1429 C   0  0  0  0  0  0  0  0  0  0  0  0
    3.1713  -10.1816   17.6634 C   0  0  0  0  0  0  0  0  0  0  0  0
    2.7878   -8.3822   16.2137 C   0  0  0  0  0  0  0  0  0  0  0  0
    9.4601   -2.6590   25.6528 C   0  0  0  0  0  0  0  0  0  0  0  0
   10.1182   -1.5672   23.1165 C   0  0  0  0  0  0  0  0  0  0  0  0
    1.0552   -9.6360   17.0650 C   0  0  0  0  0  0  0  0  0  0  0  0
    3.6519   -9.1783   16.9039 C   0  0  0  0  0  0  0  0  0  0  0  0
    7.8675   -7.0096   15.9415 C   0  0  0  0  0  0  0  0  0  0  0  0
    5.9733   -9.6553   17.3832 N   0  0  0  0  0  0  0  0  0  0  0  0
   10.2411   -2.9363   23.4301 C   0  0  0  0  0  0  0  0  0  0  0  0
   10.7288   -3.8197   19.9525 C   0  0  0  0  0  0  0  0  0  0  0  0
   10.1189   -5.0054   19.6987 C   0  0  0  0  0  0  0  0  0  0  0  0
  1  3  4  0
  1  7  4  0
  2 21  4  0
  2 27  4  0
  3  9  4  0
  3 10  4  0
  4  8  4  0
  4 18  4  0
  4 25  1  0
  5  9  4  0
  5 12  4  0
  6 13  1  0
  6 27  1  0
  7 28  4  0
  8 11  4  0
  9 29  4  0
 10 12  4  0
 11 24  1  0
 11 26  4  0
 12 25  1  0
 13 28  1  0
 14 20  4  0
 14 23  4  0
 15 17  4  0
 15 21  4  0
 16 19  4  0
 16 23  4  0
 17 22  4  0
 18 26  4  0
 19 24  4  0
 20 24  4  0
 22 27  4  0
 28 29  4  0
M  END
$$$$

 Created by Python create_sdf_string function

 29 33  0  0  0  0  0  0  0  0999 V2000
   10.7215   -3.3326   17.6437 C   0  0  0  0  0  0  0  0  0  0  0  0
    9.9489   -3.4675   24.6487 N   0  0  0  0  0  0  0  0  0  0  0  0
   10.0172   -4.4740   17.4101 C   0  0  0  0  0  0  0  0  0  0  0  0
    6.9051   -7.9575   16.4222 C   0  0  0  0  0  0  0  0  0  0  0  0
    8.9969   -6.3552   17.9668 N   0  0  0  0  0  0  0  0  0  0  0  0
   10.6702   -3.9051   22.4070 C   0  0  0  0  0  0  0  0  0  0  0  0
   11.0625   -3.0028   18.8894 C   0  0  0  0  0  0  0  0  0  0  0  0
    5.6180   -7.9194   16.1754 O   0  0  0  0  0  0  0  0  0  0  0  0
    9.7259   -5.3080   18.4485 C   0  0  0  0  0  0  0  0  0  0  0  0
    9.4578   -5.0200   16.3036 N   0  0  0  0  0  0  0  0  0  0  0  0
    5.0287   -8.9365   16.8223 C   0  0  0  0  0  0  0  0  0  0  0  0
    8.7742   -6.1498   16.6764 C   0  0  0  0  0  0  0  0  0  0  0  0
   10.9418   -3.4032   21.2053 O   0  0  0  0  0  0  0  0  0  0  0  0
    1.4797   -8.6258   16.2950 C   0  0  0  0  0  0  0  0  0  0  0  0
    9.2861   -1.2743   25.3585 C   0  0  0  0  0  0  0  0  0  0  0  0
    1.8892  -10.3985   17.7511 N   0  0  0  0  0  0  0  0  0  0  0  0
    9.6210   -0.6952   24.0976 C   0  0  0  0  0  0  0  0  0  0  0  0
    7.0792   -9.0217   17.1429 C   0  0  0  0  0  0  0  0  0  0  0  0
    3.1713  -10.1816   17.6634 C   0  0  0  0  0  0  0  0  0  0  0  0
    2.7878   -8.3822   16.2137 C   0  0  0  0  0  0  0  0  0  0  0  0
    9.4601   -2.6590   25.6528 C   0  0  0  0  0  0  0  0  0  0  0  0
   10.1182   -1.5672   23.1165 C   0  0  0  0  0  0  0  0  0  0  0  0
    1.0552   -9.6360   17.0650 C   0  0  0  0  0  0  0  0  0  0  0  0
    3.6519   -9.1783   16.9039 C   0  0  0  0  0  0  0  0  0  0  0  0
    7.8675   -7.0096   15.9415 C   0  0  0  0  0  0  0  0  0  0  0  0
    5.9733   -9.6553   17.3832 N   0  0  0  0  0  0  0  0  0  0  0  0
   10.2411   -2.9363   23.4301 C   0  0  0  0  0  0  0  0  0  0  0  0
   10.7288   -3.8197   19.9525 C   0  0  0  0  0  0  0  0  0  0  0  0
   10.1189   -5.0054   19.6987 C   0  0  0  0  0  0  0  0  0  0  0  0
  1  3  4  0
  1  7  4  0
  2 21  4  0
  2 27  4  0
  3  9  4  0
  3 10  4  0
  4  8  4  0
  4 18  4  0
  4 25  1  0
  5  9  4  0
  5 12  4  0
  6 13  1  0
  6 27  1  0
  7 28  4  0
  8 11  4  0
  9 29  4  0
 10 12  4  0
 11 24  1  0
 11 26  4  0
 12 25  1  0
 13 28  1  0
 14 20  4  0
 14 23  4  0
 15 17  4  0
 15 21  4  0
 16 19  4  0
 16 23  4  0
 17 22  4  0
 18 26  4  0
 19 24  4  0
 20 24  4  0
 22 27  4  0
 28 29  4  0
M  END
$$$$

 Created by Python create_sdf_string function

 29 33  0  0  0  0  0  0  0  0999 V2000
   10.7215   -3.3326   17.6437 C   0  0  0  0  0  0  0  0  0  0  0  0
    9.9489   -3.4675   24.6487 N   0  0  0  0  0  0  0  0  0  0  0  0
   10.0172   -4.4740   17.4101 C   0  0  0  0  0  0  0  0  0  0  0  0
    6.9051   -7.9575   16.4222 C   0  0  0  0  0  0  0  0  0  0  0  0
    8.9969   -6.3552   17.9668 N   0  0  0  0  0  0  0  0  0  0  0  0
   10.6702   -3.9051   22.4070 C   0  0  0  0  0  0  0  0  0  0  0  0
   11.0625   -3.0028   18.8894 C   0  0  0  0  0  0  0  0  0  0  0  0
    5.6180   -7.9194   16.1754 O   0  0  0  0  0  0  0  0  0  0  0  0
    9.7259   -5.3080   18.4485 C   0  0  0  0  0  0  0  0  0  0  0  0
    9.4578   -5.0200   16.3036 N   0  0  0  0  0  0  0  0  0  0  0  0
    5.0287   -8.9365   16.8223 C   0  0  0  0  0  0  0  0  0  0  0  0
    8.7742   -6.1498   16.6764 C   0  0  0  0  0  0  0  0  0  0  0  0
   10.9418   -3.4032   21.2053 O   0  0  0  0  0  0  0  0  0  0  0  0
    1.4797   -8.6258   16.2950 C   0  0  0  0  0  0  0  0  0  0  0  0
    9.2861   -1.2743   25.3585 C   0  0  0  0  0  0  0  0  0  0  0  0
    1.8892  -10.3985   17.7511 N   0  0  0  0  0  0  0  0  0  0  0  0
    9.6210   -0.6952   24.0976 C   0  0  0  0  0  0  0  0  0  0  0  0
    7.0792   -9.0217   17.1429 C   0  0  0  0  0  0  0  0  0  0  0  0
    3.1713  -10.1816   17.6634 C   0  0  0  0  0  0  0  0  0  0  0  0
    2.7878   -8.3822   16.2137 C   0  0  0  0  0  0  0  0  0  0  0  0
    9.4601   -2.6590   25.6528 C   0  0  0  0  0  0  0  0  0  0  0  0
   10.1182   -1.5672   23.1165 C   0  0  0  0  0  0  0  0  0  0  0  0
    1.0552   -9.6360   17.0650 C   0  0  0  0  0  0  0  0  0  0  0  0
    3.6519   -9.1783   16.9039 C   0  0  0  0  0  0  0  0  0  0  0  0
    7.8675   -7.0096   15.9415 C   0  0  0  0  0  0  0  0  0  0  0  0
    5.9733   -9.6553   17.3832 N   0  0  0  0  0  0  0  0  0  0  0  0
   10.2411   -2.9363   23.4301 C   0  0  0  0  0  0  0  0  0  0  0  0
   10.7288   -3.8197   19.9525 C   0  0  0  0  0  0  0  0  0  0  0  0
   10.1189   -5.0054   19.6987 C   0  0  0  0  0  0  0  0  0  0  0  0
  1  3  4  0
  1  7  4  0
  2 21  4  0
  2 27  4  0
  3  9  4  0
  3 10  4  0
  4  8  4  0
  4 18  4  0
  4 25  1  0
  5  9  4  0
  5 12  4  0
  6 13  1  0
  6 27  1  0
  7 28  4  0
  8 11  4  0
  9 29  4  0
 10 12  4  0
 11 24  1  0
 11 26  4  0
 12 25  1  0
 13 28  1  0
 14 20  4  0
 14 23  4  0
 15 17  4  0
 15 21  4  0
 16 19  4  0
 16 23  4  0
 17 22  4  0
 18 26  4  0
 19 24  4  0
 20 24  4  0
 22 27  4  0
 28 29  4  0
M  END
$$$$

 Created by Python create_sdf_string function

 29 33  0  0  0  0  0  0  0  0999 V2000
   10.7215   -3.3326   17.6437 C   0  0  0  0  0  0  0  0  0  0  0  0
    9.9489   -3.4675   24.6487 N   0  0  0  0  0  0  0  0  0  0  0  0
   10.0172   -4.4740   17.4101 C   0  0  0  0  0  0  0  0  0  0  0  0
    6.9051   -7.9575   16.4222 C   0  0  0  0  0  0  0  0  0  0  0  0
    8.9969   -6.3552   17.9668 N   0  0  0  0  0  0  0  0  0  0  0  0
   10.6702   -3.9051   22.4070 C   0  0  0  0  0  0  0  0  0  0  0  0
   11.0625   -3.0028   18.8894 C   0  0  0  0  0  0  0  0  0  0  0  0
    5.6180   -7.9194   16.1754 O   0  0  0  0  0  0  0  0  0  0  0  0
    9.7259   -5.3080   18.4485 C   0  0  0  0  0  0  0  0  0  0  0  0
    9.4578   -5.0200   16.3036 N   0  0  0  0  0  0  0  0  0  0  0  0
    5.0287   -8.9365   16.8223 C   0  0  0  0  0  0  0  0  0  0  0  0
    8.7742   -6.1498   16.6764 C   0  0  0  0  0  0  0  0  0  0  0  0
   10.9418   -3.4032   21.2053 O   0  0  0  0  0  0  0  0  0  0  0  0
    1.4797   -8.6258   16.2950 C   0  0  0  0  0  0  0  0  0  0  0  0
    9.2861   -1.2743   25.3585 C   0  0  0  0  0  0  0  0  0  0  0  0
    1.8892  -10.3985   17.7511 N   0  0  0  0  0  0  0  0  0  0  0  0
    9.6210   -0.6952   24.0976 C   0  0  0  0  0  0  0  0  0  0  0  0
    7.0792   -9.0217   17.1429 C   0  0  0  0  0  0  0  0  0  0  0  0
    3.1713  -10.1816   17.6634 C   0  0  0  0  0  0  0  0  0  0  0  0
    2.7878   -8.3822   16.2137 C   0  0  0  0  0  0  0  0  0  0  0  0
    9.4601   -2.6590   25.6528 C   0  0  0  0  0  0  0  0  0  0  0  0
   10.1182   -1.5672   23.1165 C   0  0  0  0  0  0  0  0  0  0  0  0
    1.0552   -9.6360   17.0650 C   0  0  0  0  0  0  0  0  0  0  0  0
    3.6519   -9.1783   16.9039 C   0  0  0  0  0  0  0  0  0  0  0  0
    7.8675   -7.0096   15.9415 C   0  0  0  0  0  0  0  0  0  0  0  0
    5.9733   -9.6553   17.3832 N   0  0  0  0  0  0  0  0  0  0  0  0
   10.2411   -2.9363   23.4301 C   0  0  0  0  0  0  0  0  0  0  0  0
   10.7288   -3.8197   19.9525 C   0  0  0  0  0  0  0  0  0  0  0  0
   10.1189   -5.0054   19.6987 C   0  0  0  0  0  0  0  0  0  0  0  0
  1  3  4  0
  1  7  4  0
  2 21  4  0
  2 27  4  0
  3  9  4  0
  3 10  4  0
  4  8  4  0
  4 18  4  0
  4 25  1  0
  5  9  4  0
  5 12  4  0
  6 13  1  0
  6 27  1  0
  7 28  4  0
  8 11  4  0
  9 29  4  0
 10 12  4  0
 11 24  1  0
 11 26  4  0
 12 25  1  0
 13 28  1  0
 14 20  4  0
 14 23  4  0
 15 17  4  0
 15 21  4  0
 16 19  4  0
 16 23  4  0
 17 22  4  0
 18 26  4  0
 19 24  4  0
 20 24  4  0
 22 27  4  0
 28 29  4  0
M  END
$$$$

 Created by Python create_sdf_string function

 29 33  0  0  0  0  0  0  0  0999 V2000
   10.7215   -3.3326   17.6437 C   0  0  0  0  0  0  0  0  0  0  0  0
    9.9489   -3.4675   24.6487 N   0  0  0  0  0  0  0  0  0  0  0  0
   10.0172   -4.4740   17.4101 C   0  0  0  0  0  0  0  0  0  0  0  0
    6.9051   -7.9575   16.4222 C   0  0  0  0  0  0  0  0  0  0  0  0
    8.9969   -6.3552   17.9668 N   0  0  0  0  0  0  0  0  0  0  0  0
   10.6702   -3.9051   22.4070 C   0  0  0  0  0  0  0  0  0  0  0  0
   11.0625   -3.0028   18.8894 C   0  0  0  0  0  0  0  0  0  0  0  0
    5.6180   -7.9194   16.1754 O   0  0  0  0  0  0  0  0  0  0  0  0
    9.7259   -5.3080   18.4485 C   0  0  0  0  0  0  0  0  0  0  0  0
    9.4578   -5.0200   16.3036 N   0  0  0  0  0  0  0  0  0  0  0  0
    5.0287   -8.9365   16.8223 C   0  0  0  0  0  0  0  0  0  0  0  0
    8.7742   -6.1498   16.6764 C   0  0  0  0  0  0  0  0  0  0  0  0
   10.9418   -3.4032   21.2053 O   0  0  0  0  0  0  0  0  0  0  0  0
    1.4797   -8.6258   16.2950 C   0  0  0  0  0  0  0  0  0  0  0  0
    9.2861   -1.2743   25.3585 C   0  0  0  0  0  0  0  0  0  0  0  0
    1.8892  -10.3985   17.7511 N   0  0  0  0  0  0  0  0  0  0  0  0
    9.6210   -0.6952   24.0976 C   0  0  0  0  0  0  0  0  0  0  0  0
    7.0792   -9.0217   17.1429 C   0  0  0  0  0  0  0  0  0  0  0  0
    3.1713  -10.1816   17.6634 C   0  0  0  0  0  0  0  0  0  0  0  0
    2.7878   -8.3822   16.2137 C   0  0  0  0  0  0  0  0  0  0  0  0
    9.4601   -2.6590   25.6528 C   0  0  0  0  0  0  0  0  0  0  0  0
   10.1182   -1.5672   23.1165 C   0  0  0  0  0  0  0  0  0  0  0  0
    1.0552   -9.6360   17.0650 C   0  0  0  0  0  0  0  0  0  0  0  0
    3.6519   -9.1783   16.9039 C   0  0  0  0  0  0  0  0  0  0  0  0
    7.8675   -7.0096   15.9415 C   0  0  0  0  0  0  0  0  0  0  0  0
    5.9733   -9.6553   17.3832 N   0  0  0  0  0  0  0  0  0  0  0  0
   10.2411   -2.9363   23.4301 C   0  0  0  0  0  0  0  0  0  0  0  0
   10.7288   -3.8197   19.9525 C   0  0  0  0  0  0  0  0  0  0  0  0
   10.1189   -5.0054   19.6987 C   0  0  0  0  0  0  0  0  0  0  0  0
  1  3  4  0
  1  7  4  0
  2 21  4  0
  2 27  4  0
  3  9  4  0
  3 10  4  0
  4  8  4  0
  4 18  4  0
  4 25  1  0
  5  9  4  0
  5 12  4  0
  6 13  1  0
  6 27  1  0
  7 28  4  0
  8 11  4  0
  9 29  4  0
 10 12  4  0
 11 24  1  0
 11 26  4  0
 12 25  1  0
 13 28  1  0
 14 20  4  0
 14 23  4  0
 15 17  4  0
 15 21  4  0
 16 19  4  0
 16 23  4  0
 17 22  4  0
 18 26  4  0
 19 24  4  0
 20 24  4  0
 22 27  4  0
 28 29  4  0
M  END
$$$$

 Created by Python create_sdf_string function

 29 33  0  0  0  0  0  0  0  0999 V2000
   10.7215   -3.3326   17.6437 C   0  0  0  0  0  0  0  0  0  0  0  0
    9.9489   -3.4675   24.6487 N   0  0  0  0  0  0  0  0  0  0  0  0
   10.0172   -4.4740   17.4101 C   0  0  0  0  0  0  0  0  0  0  0  0
    6.9051   -7.9575   16.4222 C   0  0  0  0  0  0  0  0  0  0  0  0
    8.9969   -6.3552   17.9668 N   0  0  0  0  0  0  0  0  0  0  0  0
   10.6702   -3.9051   22.4070 C   0  0  0  0  0  0  0  0  0  0  0  0
   11.0625   -3.0028   18.8894 C   0  0  0  0  0  0  0  0  0  0  0  0
    5.6180   -7.9194   16.1754 O   0  0  0  0  0  0  0  0  0  0  0  0
    9.7259   -5.3080   18.4485 C   0  0  0  0  0  0  0  0  0  0  0  0
    9.4578   -5.0200   16.3036 N   0  0  0  0  0  0  0  0  0  0  0  0
    5.0287   -8.9365   16.8223 C   0  0  0  0  0  0  0  0  0  0  0  0
    8.7742   -6.1498   16.6764 C   0  0  0  0  0  0  0  0  0  0  0  0
   10.9418   -3.4032   21.2053 O   0  0  0  0  0  0  0  0  0  0  0  0
    1.4797   -8.6258   16.2950 C   0  0  0  0  0  0  0  0  0  0  0  0
    9.2861   -1.2743   25.3585 C   0  0  0  0  0  0  0  0  0  0  0  0
    1.8892  -10.3985   17.7511 N   0  0  0  0  0  0  0  0  0  0  0  0
    9.6210   -0.6952   24.0976 C   0  0  0  0  0  0  0  0  0  0  0  0
    7.0792   -9.0217   17.1429 C   0  0  0  0  0  0  0  0  0  0  0  0
    3.1713  -10.1816   17.6634 C   0  0  0  0  0  0  0  0  0  0  0  0
    2.7878   -8.3822   16.2137 C   0  0  0  0  0  0  0  0  0  0  0  0
    9.4601   -2.6590   25.6528 C   0  0  0  0  0  0  0  0  0  0  0  0
   10.1182   -1.5672   23.1165 C   0  0  0  0  0  0  0  0  0  0  0  0
    1.0552   -9.6360   17.0650 C   0  0  0  0  0  0  0  0  0  0  0  0
    3.6519   -9.1783   16.9039 C   0  0  0  0  0  0  0  0  0  0  0  0
    7.8675   -7.0096   15.9415 C   0  0  0  0  0  0  0  0  0  0  0  0
    5.9733   -9.6553   17.3832 N   0  0  0  0  0  0  0  0  0  0  0  0
   10.2411   -2.9363   23.4301 C   0  0  0  0  0  0  0  0  0  0  0  0
   10.7288   -3.8197   19.9525 C   0  0  0  0  0  0  0  0  0  0  0  0
   10.1189   -5.0054   19.6987 C   0  0  0  0  0  0  0  0  0  0  0  0
  1  3  4  0
  1  7  4  0
  2 21  4  0
  2 27  4  0
  3  9  4  0
  3 10  4  0
  4  8  4  0
  4 18  4  0
  4 25  1  0
  5  9  4  0
  5 12  4  0
  6 13  1  0
  6 27  1  0
  7 28  4  0
  8 11  4  0
  9 29  4  0
 10 12  4  0
 11 24  1  0
 11 26  4  0
 12 25  1  0
 13 28  1  0
 14 20  4  0
 14 23  4  0
 15 17  4  0
 15 21  4  0
 16 19  4  0
 16 23  4  0
 17 22  4  0
 18 26  4  0
 19 24  4  0
 20 24  4  0
 22 27  4  0
 28 29  4  0
M  END
$$$$

 Created by Python create_sdf_string function

 29 33  0  0  0  0  0  0  0  0999 V2000
   10.7215   -3.3326   17.6437 C   0  0  0  0  0  0  0  0  0  0  0  0
    9.9489   -3.4675   24.6487 N   0  0  0  0  0  0  0  0  0  0  0  0
   10.0172   -4.4740   17.4101 C   0  0  0  0  0  0  0  0  0  0  0  0
    6.9051   -7.9575   16.4222 C   0  0  0  0  0  0  0  0  0  0  0  0
    8.9969   -6.3552   17.9668 N   0  0  0  0  0  0  0  0  0  0  0  0
   10.6702   -3.9051   22.4070 C   0  0  0  0  0  0  0  0  0  0  0  0
   11.0625   -3.0028   18.8894 C   0  0  0  0  0  0  0  0  0  0  0  0
    5.6180   -7.9194   16.1754 O   0  0  0  0  0  0  0  0  0  0  0  0
    9.7259   -5.3080   18.4485 C   0  0  0  0  0  0  0  0  0  0  0  0
    9.4578   -5.0200   16.3036 N   0  0  0  0  0  0  0  0  0  0  0  0
    5.0287   -8.9365   16.8223 C   0  0  0  0  0  0  0  0  0  0  0  0
    8.7742   -6.1498   16.6764 C   0  0  0  0  0  0  0  0  0  0  0  0
   10.9418   -3.4032   21.2053 O   0  0  0  0  0  0  0  0  0  0  0  0
    1.4797   -8.6258   16.2950 C   0  0  0  0  0  0  0  0  0  0  0  0
    9.2861   -1.2743   25.3585 C   0  0  0  0  0  0  0  0  0  0  0  0
    1.8892  -10.3985   17.7511 N   0  0  0  0  0  0  0  0  0  0  0  0
    9.6210   -0.6952   24.0976 C   0  0  0  0  0  0  0  0  0  0  0  0
    7.0792   -9.0217   17.1429 C   0  0  0  0  0  0  0  0  0  0  0  0
    3.1713  -10.1816   17.6634 C   0  0  0  0  0  0  0  0  0  0  0  0
    2.7878   -8.3822   16.2137 C   0  0  0  0  0  0  0  0  0  0  0  0
    9.4601   -2.6590   25.6528 C   0  0  0  0  0  0  0  0  0  0  0  0
   10.1182   -1.5672   23.1165 C   0  0  0  0  0  0  0  0  0  0  0  0
    1.0552   -9.6360   17.0650 C   0  0  0  0  0  0  0  0  0  0  0  0
    3.6519   -9.1783   16.9039 C   0  0  0  0  0  0  0  0  0  0  0  0
    7.8675   -7.0096   15.9415 C   0  0  0  0  0  0  0  0  0  0  0  0
    5.9733   -9.6553   17.3832 N   0  0  0  0  0  0  0  0  0  0  0  0
   10.2411   -2.9363   23.4301 C   0  0  0  0  0  0  0  0  0  0  0  0
   10.7288   -3.8197   19.9525 C   0  0  0  0  0  0  0  0  0  0  0  0
   10.1189   -5.0054   19.6987 C   0  0  0  0  0  0  0  0  0  0  0  0
  1  3  4  0
  1  7  4  0
  2 21  4  0
  2 27  4  0
  3  9  4  0
  3 10  4  0
  4  8  4  0
  4 18  4  0
  4 25  1  0
  5  9  4  0
  5 12  4  0
  6 13  1  0
  6 27  1  0
  7 28  4  0
  8 11  4  0
  9 29  4  0
 10 12  4  0
 11 24  1  0
 11 26  4  0
 12 25  1  0
 13 28  1  0
 14 20  4  0
 14 23  4  0
 15 17  4  0
 15 21  4  0
 16 19  4  0
 16 23  4  0
 17 22  4  0
 18 26  4  0
 19 24  4  0
 20 24  4  0
 22 27  4  0
 28 29  4  0
M  END
$$$$

 Created by Python create_sdf_string function

 29 33  0  0  0  0  0  0  0  0999 V2000
   10.7215   -3.3326   17.6437 C   0  0  0  0  0  0  0  0  0  0  0  0
    9.9489   -3.4675   24.6487 N   0  0  0  0  0  0  0  0  0  0  0  0
   10.0172   -4.4740   17.4101 C   0  0  0  0  0  0  0  0  0  0  0  0
    6.9051   -7.9575   16.4222 C   0  0  0  0  0  0  0  0  0  0  0  0
    8.9969   -6.3552   17.9668 N   0  0  0  0  0  0  0  0  0  0  0  0
   10.6702   -3.9051   22.4070 C   0  0  0  0  0  0  0  0  0  0  0  0
   11.0625   -3.0028   18.8894 C   0  0  0  0  0  0  0  0  0  0  0  0
    5.6180   -7.9194   16.1754 O   0  0  0  0  0  0  0  0  0  0  0  0
    9.7259   -5.3080   18.4485 C   0  0  0  0  0  0  0  0  0  0  0  0
    9.4578   -5.0200   16.3036 N   0  0  0  0  0  0  0  0  0  0  0  0
    5.0287   -8.9365   16.8223 C   0  0  0  0  0  0  0  0  0  0  0  0
    8.7742   -6.1498   16.6764 C   0  0  0  0  0  0  0  0  0  0  0  0
   10.9418   -3.4032   21.2053 O   0  0  0  0  0  0  0  0  0  0  0  0
    1.4797   -8.6258   16.2950 C   0  0  0  0  0  0  0  0  0  0  0  0
    9.2861   -1.2743   25.3585 C   0  0  0  0  0  0  0  0  0  0  0  0
    1.8892  -10.3985   17.7511 N   0  0  0  0  0  0  0  0  0  0  0  0
    9.6210   -0.6952   24.0976 C   0  0  0  0  0  0  0  0  0  0  0  0
    7.0792   -9.0217   17.1429 C   0  0  0  0  0  0  0  0  0  0  0  0
    3.1713  -10.1816   17.6634 C   0  0  0  0  0  0  0  0  0  0  0  0
    2.7878   -8.3822   16.2137 C   0  0  0  0  0  0  0  0  0  0  0  0
    9.4601   -2.6590   25.6528 C   0  0  0  0  0  0  0  0  0  0  0  0
   10.1182   -1.5672   23.1165 C   0  0  0  0  0  0  0  0  0  0  0  0
    1.0552   -9.6360   17.0650 C   0  0  0  0  0  0  0  0  0  0  0  0
    3.6519   -9.1783   16.9039 C   0  0  0  0  0  0  0  0  0  0  0  0
    7.8675   -7.0096   15.9415 C   0  0  0  0  0  0  0  0  0  0  0  0
    5.9733   -9.6553   17.3832 N   0  0  0  0  0  0  0  0  0  0  0  0
   10.2411   -2.9363   23.4301 C   0  0  0  0  0  0  0  0  0  0  0  0
   10.7288   -3.8197   19.9525 C   0  0  0  0  0  0  0  0  0  0  0  0
   10.1189   -5.0054   19.6987 C   0  0  0  0  0  0  0  0  0  0  0  0
  1  3  4  0
  1  7  4  0
  2 21  4  0
  2 27  4  0
  3  9  4  0
  3 10  4  0
  4  8  4  0
  4 18  4  0
  4 25  1  0
  5  9  4  0
  5 12  4  0
  6 13  1  0
  6 27  1  0
  7 28  4  0
  8 11  4  0
  9 29  4  0
 10 12  4  0
 11 24  1  0
 11 26  4  0
 12 25  1  0
 13 28  1  0
 14 20  4  0
 14 23  4  0
 15 17  4  0
 15 21  4  0
 16 19  4  0
 16 23  4  0
 17 22  4  0
 18 26  4  0
 19 24  4  0
 20 24  4  0
 22 27  4  0
 28 29  4  0
M  END
$$$$

 Created by Python create_sdf_string function

 29 33  0  0  0  0  0  0  0  0999 V2000
   10.7215   -3.3326   17.6437 C   0  0  0  0  0  0  0  0  0  0  0  0
    9.9489   -3.4675   24.6487 N   0  0  0  0  0  0  0  0  0  0  0  0
   10.0172   -4.4740   17.4101 C   0  0  0  0  0  0  0  0  0  0  0  0
    6.9051   -7.9575   16.4222 C   0  0  0  0  0  0  0  0  0  0  0  0
    8.9969   -6.3552   17.9668 N   0  0  0  0  0  0  0  0  0  0  0  0
   10.6702   -3.9051   22.4070 C   0  0  0  0  0  0  0  0  0  0  0  0
   11.0625   -3.0028   18.8894 C   0  0  0  0  0  0  0  0  0  0  0  0
    5.6180   -7.9194   16.1754 O   0  0  0  0  0  0  0  0  0  0  0  0
    9.7259   -5.3080   18.4485 C   0  0  0  0  0  0  0  0  0  0  0  0
    9.4578   -5.0200   16.3036 N   0  0  0  0  0  0  0  0  0  0  0  0
    5.0287   -8.9365   16.8223 C   0  0  0  0  0  0  0  0  0  0  0  0
    8.7742   -6.1498   16.6764 C   0  0  0  0  0  0  0  0  0  0  0  0
   10.9418   -3.4032   21.2053 O   0  0  0  0  0  0  0  0  0  0  0  0
    1.4797   -8.6258   16.2950 C   0  0  0  0  0  0  0  0  0  0  0  0
    9.2861   -1.2743   25.3585 C   0  0  0  0  0  0  0  0  0  0  0  0
    1.8892  -10.3985   17.7511 N   0  0  0  0  0  0  0  0  0  0  0  0
    9.6210   -0.6952   24.0976 C   0  0  0  0  0  0  0  0  0  0  0  0
    7.0792   -9.0217   17.1429 C   0  0  0  0  0  0  0  0  0  0  0  0
    3.1713  -10.1816   17.6634 C   0  0  0  0  0  0  0  0  0  0  0  0
    2.7878   -8.3822   16.2137 C   0  0  0  0  0  0  0  0  0  0  0  0
    9.4601   -2.6590   25.6528 C   0  0  0  0  0  0  0  0  0  0  0  0
   10.1182   -1.5672   23.1165 C   0  0  0  0  0  0  0  0  0  0  0  0
    1.0552   -9.6360   17.0650 C   0  0  0  0  0  0  0  0  0  0  0  0
    3.6519   -9.1783   16.9039 C   0  0  0  0  0  0  0  0  0  0  0  0
    7.8675   -7.0096   15.9415 C   0  0  0  0  0  0  0  0  0  0  0  0
    5.9733   -9.6553   17.3832 N   0  0  0  0  0  0  0  0  0  0  0  0
   10.2411   -2.9363   23.4301 C   0  0  0  0  0  0  0  0  0  0  0  0
   10.7288   -3.8197   19.9525 C   0  0  0  0  0  0  0  0  0  0  0  0
   10.1189   -5.0054   19.6987 C   0  0  0  0  0  0  0  0  0  0  0  0
  1  3  4  0
  1  7  4  0
  2 21  4  0
  2 27  4  0
  3  9  4  0
  3 10  4  0
  4  8  4  0
  4 18  4  0
  4 25  1  0
  5  9  4  0
  5 12  4  0
  6 13  1  0
  6 27  1  0
  7 28  4  0
  8 11  4  0
  9 29  4  0
 10 12  4  0
 11 24  1  0
 11 26  4  0
 12 25  1  0
 13 28  1  0
 14 20  4  0
 14 23  4  0
 15 17  4  0
 15 21  4  0
 16 19  4  0
 16 23  4  0
 17 22  4  0
 18 26  4  0
 19 24  4  0
 20 24  4  0
 22 27  4  0
 28 29  4  0
M  END
$$$$

 Created by Python create_sdf_string function

 29 33  0  0  0  0  0  0  0  0999 V2000
   10.7215   -3.3326   17.6437 C   0  0  0  0  0  0  0  0  0  0  0  0
    9.9489   -3.4675   24.6487 N   0  0  0  0  0  0  0  0  0  0  0  0
   10.0172   -4.4740   17.4101 C   0  0  0  0  0  0  0  0  0  0  0  0
    6.9051   -7.9575   16.4222 C   0  0  0  0  0  0  0  0  0  0  0  0
    8.9969   -6.3552   17.9668 N   0  0  0  0  0  0  0  0  0  0  0  0
   10.6702   -3.9051   22.4070 C   0  0  0  0  0  0  0  0  0  0  0  0
   11.0625   -3.0028   18.8894 C   0  0  0  0  0  0  0  0  0  0  0  0
    5.6180   -7.9194   16.1754 O   0  0  0  0  0  0  0  0  0  0  0  0
    9.7259   -5.3080   18.4485 C   0  0  0  0  0  0  0  0  0  0  0  0
    9.4578   -5.0200   16.3036 N   0  0  0  0  0  0  0  0  0  0  0  0
    5.0287   -8.9365   16.8223 C   0  0  0  0  0  0  0  0  0  0  0  0
    8.7742   -6.1498   16.6764 C   0  0  0  0  0  0  0  0  0  0  0  0
   10.9418   -3.4032   21.2053 O   0  0  0  0  0  0  0  0  0  0  0  0
    1.4797   -8.6258   16.2950 C   0  0  0  0  0  0  0  0  0  0  0  0
    9.2861   -1.2743   25.3585 C   0  0  0  0  0  0  0  0  0  0  0  0
    1.8892  -10.3985   17.7511 N   0  0  0  0  0  0  0  0  0  0  0  0
    9.6210   -0.6952   24.0976 C   0  0  0  0  0  0  0  0  0  0  0  0
    7.0792   -9.0217   17.1429 C   0  0  0  0  0  0  0  0  0  0  0  0
    3.1713  -10.1816   17.6634 C   0  0  0  0  0  0  0  0  0  0  0  0
    2.7878   -8.3822   16.2137 C   0  0  0  0  0  0  0  0  0  0  0  0
    9.4601   -2.6590   25.6528 C   0  0  0  0  0  0  0  0  0  0  0  0
   10.1182   -1.5672   23.1165 C   0  0  0  0  0  0  0  0  0  0  0  0
    1.0552   -9.6360   17.0650 C   0  0  0  0  0  0  0  0  0  0  0  0
    3.6519   -9.1783   16.9039 C   0  0  0  0  0  0  0  0  0  0  0  0
    7.8675   -7.0096   15.9415 C   0  0  0  0  0  0  0  0  0  0  0  0
    5.9733   -9.6553   17.3832 N   0  0  0  0  0  0  0  0  0  0  0  0
   10.2411   -2.9363   23.4301 C   0  0  0  0  0  0  0  0  0  0  0  0
   10.7288   -3.8197   19.9525 C   0  0  0  0  0  0  0  0  0  0  0  0
   10.1189   -5.0054   19.6987 C   0  0  0  0  0  0  0  0  0  0  0  0
  1  3  4  0
  1  7  4  0
  2 21  4  0
  2 27  4  0
  3  9  4  0
  3 10  4  0
  4  8  4  0
  4 18  4  0
  4 25  1  0
  5  9  4  0
  5 12  4  0
  6 13  1  0
  6 27  1  0
  7 28  4  0
  8 11  4  0
  9 29  4  0
 10 12  4  0
 11 24  1  0
 11 26  4  0
 12 25  1  0
 13 28  1  0
 14 20  4  0
 14 23  4  0
 15 17  4  0
 15 21  4  0
 16 19  4  0
 16 23  4  0
 17 22  4  0
 18 26  4  0
 19 24  4  0
 20 24  4  0
 22 27  4  0
 28 29  4  0
M  END
$$$$

 Created by Python create_sdf_string function

 29 33  0  0  0  0  0  0  0  0999 V2000
   10.7215   -3.3326   17.6437 C   0  0  0  0  0  0  0  0  0  0  0  0
    9.9489   -3.4675   24.6487 N   0  0  0  0  0  0  0  0  0  0  0  0
   10.0172   -4.4740   17.4101 C   0  0  0  0  0  0  0  0  0  0  0  0
    6.9051   -7.9575   16.4222 C   0  0  0  0  0  0  0  0  0  0  0  0
    8.9969   -6.3552   17.9668 N   0  0  0  0  0  0  0  0  0  0  0  0
   10.6702   -3.9051   22.4070 C   0  0  0  0  0  0  0  0  0  0  0  0
   11.0625   -3.0028   18.8894 C   0  0  0  0  0  0  0  0  0  0  0  0
    5.6180   -7.9194   16.1754 O   0  0  0  0  0  0  0  0  0  0  0  0
    9.7259   -5.3080   18.4485 C   0  0  0  0  0  0  0  0  0  0  0  0
    9.4578   -5.0200   16.3036 N   0  0  0  0  0  0  0  0  0  0  0  0
    5.0287   -8.9365   16.8223 C   0  0  0  0  0  0  0  0  0  0  0  0
    8.7742   -6.1498   16.6764 C   0  0  0  0  0  0  0  0  0  0  0  0
   10.9418   -3.4032   21.2053 O   0  0  0  0  0  0  0  0  0  0  0  0
    1.4797   -8.6258   16.2950 C   0  0  0  0  0  0  0  0  0  0  0  0
    9.2861   -1.2743   25.3585 C   0  0  0  0  0  0  0  0  0  0  0  0
    1.8892  -10.3985   17.7511 N   0  0  0  0  0  0  0  0  0  0  0  0
    9.6210   -0.6952   24.0976 C   0  0  0  0  0  0  0  0  0  0  0  0
    7.0792   -9.0217   17.1429 C   0  0  0  0  0  0  0  0  0  0  0  0
    3.1713  -10.1816   17.6634 C   0  0  0  0  0  0  0  0  0  0  0  0
    2.7878   -8.3822   16.2137 C   0  0  0  0  0  0  0  0  0  0  0  0
    9.4601   -2.6590   25.6528 C   0  0  0  0  0  0  0  0  0  0  0  0
   10.1182   -1.5672   23.1165 C   0  0  0  0  0  0  0  0  0  0  0  0
    1.0552   -9.6360   17.0650 C   0  0  0  0  0  0  0  0  0  0  0  0
    3.6519   -9.1783   16.9039 C   0  0  0  0  0  0  0  0  0  0  0  0
    7.8675   -7.0096   15.9415 C   0  0  0  0  0  0  0  0  0  0  0  0
    5.9733   -9.6553   17.3832 N   0  0  0  0  0  0  0  0  0  0  0  0
   10.2411   -2.9363   23.4301 C   0  0  0  0  0  0  0  0  0  0  0  0
   10.7288   -3.8197   19.9525 C   0  0  0  0  0  0  0  0  0  0  0  0
   10.1189   -5.0054   19.6987 C   0  0  0  0  0  0  0  0  0  0  0  0
  1  3  4  0
  1  7  4  0
  2 21  4  0
  2 27  4  0
  3  9  4  0
  3 10  4  0
  4  8  4  0
  4 18  4  0
  4 25  1  0
  5  9  4  0
  5 12  4  0
  6 13  1  0
  6 27  1  0
  7 28  4  0
  8 11  4  0
  9 29  4  0
 10 12  4  0
 11 24  1  0
 11 26  4  0
 12 25  1  0
 13 28  1  0
 14 20  4  0
 14 23  4  0
 15 17  4  0
 15 21  4  0
 16 19  4  0
 16 23  4  0
 17 22  4  0
 18 26  4  0
 19 24  4  0
 20 24  4  0
 22 27  4  0
 28 29  4  0
M  END
$$$$

 Created by Python create_sdf_string function

 29 33  0  0  0  0  0  0  0  0999 V2000
   10.7215   -3.3326   17.6437 C   0  0  0  0  0  0  0  0  0  0  0  0
    9.9489   -3.4675   24.6487 N   0  0  0  0  0  0  0  0  0  0  0  0
   10.0172   -4.4740   17.4101 C   0  0  0  0  0  0  0  0  0  0  0  0
    6.9051   -7.9575   16.4222 C   0  0  0  0  0  0  0  0  0  0  0  0
    8.9969   -6.3552   17.9668 N   0  0  0  0  0  0  0  0  0  0  0  0
   10.6702   -3.9051   22.4070 C   0  0  0  0  0  0  0  0  0  0  0  0
   11.0625   -3.0028   18.8894 C   0  0  0  0  0  0  0  0  0  0  0  0
    5.6180   -7.9194   16.1754 O   0  0  0  0  0  0  0  0  0  0  0  0
    9.7259   -5.3080   18.4485 C   0  0  0  0  0  0  0  0  0  0  0  0
    9.4578   -5.0200   16.3036 N   0  0  0  0  0  0  0  0  0  0  0  0
    5.0287   -8.9365   16.8223 C   0  0  0  0  0  0  0  0  0  0  0  0
    8.7742   -6.1498   16.6764 C   0  0  0  0  0  0  0  0  0  0  0  0
   10.9418   -3.4032   21.2053 O   0  0  0  0  0  0  0  0  0  0  0  0
    1.4797   -8.6258   16.2950 C   0  0  0  0  0  0  0  0  0  0  0  0
    9.2861   -1.2743   25.3585 C   0  0  0  0  0  0  0  0  0  0  0  0
    1.8892  -10.3985   17.7511 N   0  0  0  0  0  0  0  0  0  0  0  0
    9.6210   -0.6952   24.0976 C   0  0  0  0  0  0  0  0  0  0  0  0
    7.0792   -9.0217   17.1429 C   0  0  0  0  0  0  0  0  0  0  0  0
    3.1713  -10.1816   17.6634 C   0  0  0  0  0  0  0  0  0  0  0  0
    2.7878   -8.3822   16.2137 C   0  0  0  0  0  0  0  0  0  0  0  0
    9.4601   -2.6590   25.6528 C   0  0  0  0  0  0  0  0  0  0  0  0
   10.1182   -1.5672   23.1165 C   0  0  0  0  0  0  0  0  0  0  0  0
    1.0552   -9.6360   17.0650 C   0  0  0  0  0  0  0  0  0  0  0  0
    3.6519   -9.1783   16.9039 C   0  0  0  0  0  0  0  0  0  0  0  0
    7.8675   -7.0096   15.9415 C   0  0  0  0  0  0  0  0  0  0  0  0
    5.9733   -9.6553   17.3832 N   0  0  0  0  0  0  0  0  0  0  0  0
   10.2411   -2.9363   23.4301 C   0  0  0  0  0  0  0  0  0  0  0  0
   10.7288   -3.8197   19.9525 C   0  0  0  0  0  0  0  0  0  0  0  0
   10.1189   -5.0054   19.6987 C   0  0  0  0  0  0  0  0  0  0  0  0
  1  3  4  0
  1  7  4  0
  2 21  4  0
  2 27  4  0
  3  9  4  0
  3 10  4  0
  4  8  4  0
  4 18  4  0
  4 25  1  0
  5  9  4  0
  5 12  4  0
  6 13  1  0
  6 27  1  0
  7 28  4  0
  8 11  4  0
  9 29  4  0
 10 12  4  0
 11 24  1  0
 11 26  4  0
 12 25  1  0
 13 28  1  0
 14 20  4  0
 14 23  4  0
 15 17  4  0
 15 21  4  0
 16 19  4  0
 16 23  4  0
 17 22  4  0
 18 26  4  0
 19 24  4  0
 20 24  4  0
 22 27  4  0
 28 29  4  0
M  END
$$$$

 Created by Python create_sdf_string function

 29 33  0  0  0  0  0  0  0  0999 V2000
   10.7215   -3.3326   17.6437 C   0  0  0  0  0  0  0  0  0  0  0  0
    9.9489   -3.4675   24.6487 N   0  0  0  0  0  0  0  0  0  0  0  0
   10.0172   -4.4740   17.4101 C   0  0  0  0  0  0  0  0  0  0  0  0
    6.9051   -7.9575   16.4222 C   0  0  0  0  0  0  0  0  0  0  0  0
    8.9969   -6.3552   17.9668 N   0  0  0  0  0  0  0  0  0  0  0  0
   10.6702   -3.9051   22.4070 C   0  0  0  0  0  0  0  0  0  0  0  0
   11.0625   -3.0028   18.8894 C   0  0  0  0  0  0  0  0  0  0  0  0
    5.6180   -7.9194   16.1754 O   0  0  0  0  0  0  0  0  0  0  0  0
    9.7259   -5.3080   18.4485 C   0  0  0  0  0  0  0  0  0  0  0  0
    9.4578   -5.0200   16.3036 N   0  0  0  0  0  0  0  0  0  0  0  0
    5.0287   -8.9365   16.8223 C   0  0  0  0  0  0  0  0  0  0  0  0
    8.7742   -6.1498   16.6764 C   0  0  0  0  0  0  0  0  0  0  0  0
   10.9418   -3.4032   21.2053 O   0  0  0  0  0  0  0  0  0  0  0  0
    1.4797   -8.6258   16.2950 C   0  0  0  0  0  0  0  0  0  0  0  0
    9.2861   -1.2743   25.3585 C   0  0  0  0  0  0  0  0  0  0  0  0
    1.8892  -10.3985   17.7511 N   0  0  0  0  0  0  0  0  0  0  0  0
    9.6210   -0.6952   24.0976 C   0  0  0  0  0  0  0  0  0  0  0  0
    7.0792   -9.0217   17.1429 C   0  0  0  0  0  0  0  0  0  0  0  0
    3.1713  -10.1816   17.6634 C   0  0  0  0  0  0  0  0  0  0  0  0
    2.7878   -8.3822   16.2137 C   0  0  0  0  0  0  0  0  0  0  0  0
    9.4601   -2.6590   25.6528 C   0  0  0  0  0  0  0  0  0  0  0  0
   10.1182   -1.5672   23.1165 C   0  0  0  0  0  0  0  0  0  0  0  0
    1.0552   -9.6360   17.0650 C   0  0  0  0  0  0  0  0  0  0  0  0
    3.6519   -9.1783   16.9039 C   0  0  0  0  0  0  0  0  0  0  0  0
    7.8675   -7.0096   15.9415 C   0  0  0  0  0  0  0  0  0  0  0  0
    5.9733   -9.6553   17.3832 N   0  0  0  0  0  0  0  0  0  0  0  0
   10.2411   -2.9363   23.4301 C   0  0  0  0  0  0  0  0  0  0  0  0
   10.7288   -3.8197   19.9525 C   0  0  0  0  0  0  0  0  0  0  0  0
   10.1189   -5.0054   19.6987 C   0  0  0  0  0  0  0  0  0  0  0  0
  1  3  4  0
  1  7  4  0
  2 21  4  0
  2 27  4  0
  3  9  4  0
  3 10  4  0
  4  8  4  0
  4 18  4  0
  4 25  1  0
  5  9  4  0
  5 12  4  0
  6 13  1  0
  6 27  1  0
  7 28  4  0
  8 11  4  0
  9 29  4  0
 10 12  4  0
 11 24  1  0
 11 26  4  0
 12 25  1  0
 13 28  1  0
 14 20  4  0
 14 23  4  0
 15 17  4  0
 15 21  4  0
 16 19  4  0
 16 23  4  0
 17 22  4  0
 18 26  4  0
 19 24  4  0
 20 24  4  0
 22 27  4  0
 28 29  4  0
M  END
$$$$

 Created by Python create_sdf_string function

 29 33  0  0  0  0  0  0  0  0999 V2000
   10.7215   -3.3326   17.6437 C   0  0  0  0  0  0  0  0  0  0  0  0
    9.9489   -3.4675   24.6487 N   0  0  0  0  0  0  0  0  0  0  0  0
   10.0172   -4.4740   17.4101 C   0  0  0  0  0  0  0  0  0  0  0  0
    6.9051   -7.9575   16.4222 C   0  0  0  0  0  0  0  0  0  0  0  0
    8.9969   -6.3552   17.9668 N   0  0  0  0  0  0  0  0  0  0  0  0
   10.6702   -3.9051   22.4070 C   0  0  0  0  0  0  0  0  0  0  0  0
   11.0625   -3.0028   18.8894 C   0  0  0  0  0  0  0  0  0  0  0  0
    5.6180   -7.9194   16.1754 O   0  0  0  0  0  0  0  0  0  0  0  0
    9.7259   -5.3080   18.4485 C   0  0  0  0  0  0  0  0  0  0  0  0
    9.4578   -5.0200   16.3036 N   0  0  0  0  0  0  0  0  0  0  0  0
    5.0287   -8.9365   16.8223 C   0  0  0  0  0  0  0  0  0  0  0  0
    8.7742   -6.1498   16.6764 C   0  0  0  0  0  0  0  0  0  0  0  0
   10.9418   -3.4032   21.2053 O   0  0  0  0  0  0  0  0  0  0  0  0
    1.4797   -8.6258   16.2950 C   0  0  0  0  0  0  0  0  0  0  0  0
    9.2861   -1.2743   25.3585 C   0  0  0  0  0  0  0  0  0  0  0  0
    1.8892  -10.3985   17.7511 N   0  0  0  0  0  0  0  0  0  0  0  0
    9.6210   -0.6952   24.0976 C   0  0  0  0  0  0  0  0  0  0  0  0
    7.0792   -9.0217   17.1429 C   0  0  0  0  0  0  0  0  0  0  0  0
    3.1713  -10.1816   17.6634 C   0  0  0  0  0  0  0  0  0  0  0  0
    2.7878   -8.3822   16.2137 C   0  0  0  0  0  0  0  0  0  0  0  0
    9.4601   -2.6590   25.6528 C   0  0  0  0  0  0  0  0  0  0  0  0
   10.1182   -1.5672   23.1165 C   0  0  0  0  0  0  0  0  0  0  0  0
    1.0552   -9.6360   17.0650 C   0  0  0  0  0  0  0  0  0  0  0  0
    3.6519   -9.1783   16.9039 C   0  0  0  0  0  0  0  0  0  0  0  0
    7.8675   -7.0096   15.9415 C   0  0  0  0  0  0  0  0  0  0  0  0
    5.9733   -9.6553   17.3832 N   0  0  0  0  0  0  0  0  0  0  0  0
   10.2411   -2.9363   23.4301 C   0  0  0  0  0  0  0  0  0  0  0  0
   10.7288   -3.8197   19.9525 C   0  0  0  0  0  0  0  0  0  0  0  0
   10.1189   -5.0054   19.6987 C   0  0  0  0  0  0  0  0  0  0  0  0
  1  3  4  0
  1  7  4  0
  2 21  4  0
  2 27  4  0
  3  9  4  0
  3 10  4  0
  4  8  4  0
  4 18  4  0
  4 25  1  0
  5  9  4  0
  5 12  4  0
  6 13  1  0
  6 27  1  0
  7 28  4  0
  8 11  4  0
  9 29  4  0
 10 12  4  0
 11 24  1  0
 11 26  4  0
 12 25  1  0
 13 28  1  0
 14 20  4  0
 14 23  4  0
 15 17  4  0
 15 21  4  0
 16 19  4  0
 16 23  4  0
 17 22  4  0
 18 26  4  0
 19 24  4  0
 20 24  4  0
 22 27  4  0
 28 29  4  0
M  END
$$$$

 Created by Python create_sdf_string function

 29 33  0  0  0  0  0  0  0  0999 V2000
   10.7215   -3.3326   17.6437 C   0  0  0  0  0  0  0  0  0  0  0  0
    9.9489   -3.4675   24.6487 N   0  0  0  0  0  0  0  0  0  0  0  0
   10.0172   -4.4740   17.4101 C   0  0  0  0  0  0  0  0  0  0  0  0
    6.9051   -7.9575   16.4222 C   0  0  0  0  0  0  0  0  0  0  0  0
    8.9969   -6.3552   17.9668 N   0  0  0  0  0  0  0  0  0  0  0  0
   10.6702   -3.9051   22.4070 C   0  0  0  0  0  0  0  0  0  0  0  0
   11.0625   -3.0028   18.8894 C   0  0  0  0  0  0  0  0  0  0  0  0
    5.6180   -7.9194   16.1754 O   0  0  0  0  0  0  0  0  0  0  0  0
    9.7259   -5.3080   18.4485 C   0  0  0  0  0  0  0  0  0  0  0  0
    9.4578   -5.0200   16.3036 N   0  0  0  0  0  0  0  0  0  0  0  0
    5.0287   -8.9365   16.8223 C   0  0  0  0  0  0  0  0  0  0  0  0
    8.7742   -6.1498   16.6764 C   0  0  0  0  0  0  0  0  0  0  0  0
   10.9418   -3.4032   21.2053 O   0  0  0  0  0  0  0  0  0  0  0  0
    1.4797   -8.6258   16.2950 C   0  0  0  0  0  0  0  0  0  0  0  0
    9.2861   -1.2743   25.3585 C   0  0  0  0  0  0  0  0  0  0  0  0
    1.8892  -10.3985   17.7511 N   0  0  0  0  0  0  0  0  0  0  0  0
    9.6210   -0.6952   24.0976 C   0  0  0  0  0  0  0  0  0  0  0  0
    7.0792   -9.0217   17.1429 C   0  0  0  0  0  0  0  0  0  0  0  0
    3.1713  -10.1816   17.6634 C   0  0  0  0  0  0  0  0  0  0  0  0
    2.7878   -8.3822   16.2137 C   0  0  0  0  0  0  0  0  0  0  0  0
    9.4601   -2.6590   25.6528 C   0  0  0  0  0  0  0  0  0  0  0  0
   10.1182   -1.5672   23.1165 C   0  0  0  0  0  0  0  0  0  0  0  0
    1.0552   -9.6360   17.0650 C   0  0  0  0  0  0  0  0  0  0  0  0
    3.6519   -9.1783   16.9039 C   0  0  0  0  0  0  0  0  0  0  0  0
    7.8675   -7.0096   15.9415 C   0  0  0  0  0  0  0  0  0  0  0  0
    5.9733   -9.6553   17.3832 N   0  0  0  0  0  0  0  0  0  0  0  0
   10.2411   -2.9363   23.4301 C   0  0  0  0  0  0  0  0  0  0  0  0
   10.7288   -3.8197   19.9525 C   0  0  0  0  0  0  0  0  0  0  0  0
   10.1189   -5.0054   19.6987 C   0  0  0  0  0  0  0  0  0  0  0  0
  1  3  4  0
  1  7  4  0
  2 21  4  0
  2 27  4  0
  3  9  4  0
  3 10  4  0
  4  8  4  0
  4 18  4  0
  4 25  1  0
  5  9  4  0
  5 12  4  0
  6 13  1  0
  6 27  1  0
  7 28  4  0
  8 11  4  0
  9 29  4  0
 10 12  4  0
 11 24  1  0
 11 26  4  0
 12 25  1  0
 13 28  1  0
 14 20  4  0
 14 23  4  0
 15 17  4  0
 15 21  4  0
 16 19  4  0
 16 23  4  0
 17 22  4  0
 18 26  4  0
 19 24  4  0
 20 24  4  0
 22 27  4  0
 28 29  4  0
M  END
$$$$

 Created by Python create_sdf_string function

 29 33  0  0  0  0  0  0  0  0999 V2000
   10.7215   -3.3326   17.6437 C   0  0  0  0  0  0  0  0  0  0  0  0
    9.9489   -3.4675   24.6487 N   0  0  0  0  0  0  0  0  0  0  0  0
   10.0172   -4.4740   17.4101 C   0  0  0  0  0  0  0  0  0  0  0  0
    6.9051   -7.9575   16.4222 C   0  0  0  0  0  0  0  0  0  0  0  0
    8.9969   -6.3552   17.9668 N   0  0  0  0  0  0  0  0  0  0  0  0
   10.6702   -3.9051   22.4070 C   0  0  0  0  0  0  0  0  0  0  0  0
   11.0625   -3.0028   18.8894 C   0  0  0  0  0  0  0  0  0  0  0  0
    5.6180   -7.9194   16.1754 O   0  0  0  0  0  0  0  0  0  0  0  0
    9.7259   -5.3080   18.4485 C   0  0  0  0  0  0  0  0  0  0  0  0
    9.4578   -5.0200   16.3036 N   0  0  0  0  0  0  0  0  0  0  0  0
    5.0287   -8.9365   16.8223 C   0  0  0  0  0  0  0  0  0  0  0  0
    8.7742   -6.1498   16.6764 C   0  0  0  0  0  0  0  0  0  0  0  0
   10.9418   -3.4032   21.2053 O   0  0  0  0  0  0  0  0  0  0  0  0
    1.4797   -8.6258   16.2950 C   0  0  0  0  0  0  0  0  0  0  0  0
    9.2861   -1.2743   25.3585 C   0  0  0  0  0  0  0  0  0  0  0  0
    1.8892  -10.3985   17.7511 N   0  0  0  0  0  0  0  0  0  0  0  0
    9.6210   -0.6952   24.0976 C   0  0  0  0  0  0  0  0  0  0  0  0
    7.0792   -9.0217   17.1429 C   0  0  0  0  0  0  0  0  0  0  0  0
    3.1713  -10.1816   17.6634 C   0  0  0  0  0  0  0  0  0  0  0  0
    2.7878   -8.3822   16.2137 C   0  0  0  0  0  0  0  0  0  0  0  0
    9.4601   -2.6590   25.6528 C   0  0  0  0  0  0  0  0  0  0  0  0
   10.1182   -1.5672   23.1165 C   0  0  0  0  0  0  0  0  0  0  0  0
    1.0552   -9.6360   17.0650 C   0  0  0  0  0  0  0  0  0  0  0  0
    3.6519   -9.1783   16.9039 C   0  0  0  0  0  0  0  0  0  0  0  0
    7.8675   -7.0096   15.9415 C   0  0  0  0  0  0  0  0  0  0  0  0
    5.9733   -9.6553   17.3832 N   0  0  0  0  0  0  0  0  0  0  0  0
   10.2411   -2.9363   23.4301 C   0  0  0  0  0  0  0  0  0  0  0  0
   10.7288   -3.8197   19.9525 C   0  0  0  0  0  0  0  0  0  0  0  0
   10.1189   -5.0054   19.6987 C   0  0  0  0  0  0  0  0  0  0  0  0
  1  3  4  0
  1  7  4  0
  2 21  4  0
  2 27  4  0
  3  9  4  0
  3 10  4  0
  4  8  4  0
  4 18  4  0
  4 25  1  0
  5  9  4  0
  5 12  4  0
  6 13  1  0
  6 27  1  0
  7 28  4  0
  8 11  4  0
  9 29  4  0
 10 12  4  0
 11 24  1  0
 11 26  4  0
 12 25  1  0
 13 28  1  0
 14 20  4  0
 14 23  4  0
 15 17  4  0
 15 21  4  0
 16 19  4  0
 16 23  4  0
 17 22  4  0
 18 26  4  0
 19 24  4  0
 20 24  4  0
 22 27  4  0
 28 29  4  0
M  END
$$$$

 Created by Python create_sdf_string function

 29 33  0  0  0  0  0  0  0  0999 V2000
   10.7215   -3.3326   17.6437 C   0  0  0  0  0  0  0  0  0  0  0  0
    9.9489   -3.4675   24.6487 N   0  0  0  0  0  0  0  0  0  0  0  0
   10.0172   -4.4740   17.4101 C   0  0  0  0  0  0  0  0  0  0  0  0
    6.9051   -7.9575   16.4222 C   0  0  0  0  0  0  0  0  0  0  0  0
    8.9969   -6.3552   17.9668 N   0  0  0  0  0  0  0  0  0  0  0  0
   10.6702   -3.9051   22.4070 C   0  0  0  0  0  0  0  0  0  0  0  0
   11.0625   -3.0028   18.8894 C   0  0  0  0  0  0  0  0  0  0  0  0
    5.6180   -7.9194   16.1754 O   0  0  0  0  0  0  0  0  0  0  0  0
    9.7259   -5.3080   18.4485 C   0  0  0  0  0  0  0  0  0  0  0  0
    9.4578   -5.0200   16.3036 N   0  0  0  0  0  0  0  0  0  0  0  0
    5.0287   -8.9365   16.8223 C   0  0  0  0  0  0  0  0  0  0  0  0
    8.7742   -6.1498   16.6764 C   0  0  0  0  0  0  0  0  0  0  0  0
   10.9418   -3.4032   21.2053 O   0  0  0  0  0  0  0  0  0  0  0  0
    1.4797   -8.6258   16.2950 C   0  0  0  0  0  0  0  0  0  0  0  0
    9.2861   -1.2743   25.3585 C   0  0  0  0  0  0  0  0  0  0  0  0
    1.8892  -10.3985   17.7511 N   0  0  0  0  0  0  0  0  0  0  0  0
    9.6210   -0.6952   24.0976 C   0  0  0  0  0  0  0  0  0  0  0  0
    7.0792   -9.0217   17.1429 C   0  0  0  0  0  0  0  0  0  0  0  0
    3.1713  -10.1816   17.6634 C   0  0  0  0  0  0  0  0  0  0  0  0
    2.7878   -8.3822   16.2137 C   0  0  0  0  0  0  0  0  0  0  0  0
    9.4601   -2.6590   25.6528 C   0  0  0  0  0  0  0  0  0  0  0  0
   10.1182   -1.5672   23.1165 C   0  0  0  0  0  0  0  0  0  0  0  0
    1.0552   -9.6360   17.0650 C   0  0  0  0  0  0  0  0  0  0  0  0
    3.6519   -9.1783   16.9039 C   0  0  0  0  0  0  0  0  0  0  0  0
    7.8675   -7.0096   15.9415 C   0  0  0  0  0  0  0  0  0  0  0  0
    5.9733   -9.6553   17.3832 N   0  0  0  0  0  0  0  0  0  0  0  0
   10.2411   -2.9363   23.4301 C   0  0  0  0  0  0  0  0  0  0  0  0
   10.7288   -3.8197   19.9525 C   0  0  0  0  0  0  0  0  0  0  0  0
   10.1189   -5.0054   19.6987 C   0  0  0  0  0  0  0  0  0  0  0  0
  1  3  4  0
  1  7  4  0
  2 21  4  0
  2 27  4  0
  3  9  4  0
  3 10  4  0
  4  8  4  0
  4 18  4  0
  4 25  1  0
  5  9  4  0
  5 12  4  0
  6 13  1  0
  6 27  1  0
  7 28  4  0
  8 11  4  0
  9 29  4  0
 10 12  4  0
 11 24  1  0
 11 26  4  0
 12 25  1  0
 13 28  1  0
 14 20  4  0
 14 23  4  0
 15 17  4  0
 15 21  4  0
 16 19  4  0
 16 23  4  0
 17 22  4  0
 18 26  4  0
 19 24  4  0
 20 24  4  0
 22 27  4  0
 28 29  4  0
M  END
$$$$

 Created by Python create_sdf_string function

 29 33  0  0  0  0  0  0  0  0999 V2000
   10.7215   -3.3326   17.6437 C   0  0  0  0  0  0  0  0  0  0  0  0
    9.9489   -3.4675   24.6487 N   0  0  0  0  0  0  0  0  0  0  0  0
   10.0172   -4.4740   17.4101 C   0  0  0  0  0  0  0  0  0  0  0  0
    6.9051   -7.9575   16.4222 C   0  0  0  0  0  0  0  0  0  0  0  0
    8.9969   -6.3552   17.9668 N   0  0  0  0  0  0  0  0  0  0  0  0
   10.6702   -3.9051   22.4070 C   0  0  0  0  0  0  0  0  0  0  0  0
   11.0625   -3.0028   18.8894 C   0  0  0  0  0  0  0  0  0  0  0  0
    5.6180   -7.9194   16.1754 O   0  0  0  0  0  0  0  0  0  0  0  0
    9.7259   -5.3080   18.4485 C   0  0  0  0  0  0  0  0  0  0  0  0
    9.4578   -5.0200   16.3036 N   0  0  0  0  0  0  0  0  0  0  0  0
    5.0287   -8.9365   16.8223 C   0  0  0  0  0  0  0  0  0  0  0  0
    8.7742   -6.1498   16.6764 C   0  0  0  0  0  0  0  0  0  0  0  0
   10.9418   -3.4032   21.2053 O   0  0  0  0  0  0  0  0  0  0  0  0
    1.4797   -8.6258   16.2950 C   0  0  0  0  0  0  0  0  0  0  0  0
    9.2861   -1.2743   25.3585 C   0  0  0  0  0  0  0  0  0  0  0  0
    1.8892  -10.3985   17.7511 N   0  0  0  0  0  0  0  0  0  0  0  0
    9.6210   -0.6952   24.0976 C   0  0  0  0  0  0  0  0  0  0  0  0
    7.0792   -9.0217   17.1429 C   0  0  0  0  0  0  0  0  0  0  0  0
    3.1713  -10.1816   17.6634 C   0  0  0  0  0  0  0  0  0  0  0  0
    2.7878   -8.3822   16.2137 C   0  0  0  0  0  0  0  0  0  0  0  0
    9.4601   -2.6590   25.6528 C   0  0  0  0  0  0  0  0  0  0  0  0
   10.1182   -1.5672   23.1165 C   0  0  0  0  0  0  0  0  0  0  0  0
    1.0552   -9.6360   17.0650 C   0  0  0  0  0  0  0  0  0  0  0  0
    3.6519   -9.1783   16.9039 C   0  0  0  0  0  0  0  0  0  0  0  0
    7.8675   -7.0096   15.9415 C   0  0  0  0  0  0  0  0  0  0  0  0
    5.9733   -9.6553   17.3832 N   0  0  0  0  0  0  0  0  0  0  0  0
   10.2411   -2.9363   23.4301 C   0  0  0  0  0  0  0  0  0  0  0  0
   10.7288   -3.8197   19.9525 C   0  0  0  0  0  0  0  0  0  0  0  0
   10.1189   -5.0054   19.6987 C   0  0  0  0  0  0  0  0  0  0  0  0
  1  3  4  0
  1  7  4  0
  2 21  4  0
  2 27  4  0
  3  9  4  0
  3 10  4  0
  4  8  4  0
  4 18  4  0
  4 25  1  0
  5  9  4  0
  5 12  4  0
  6 13  1  0
  6 27  1  0
  7 28  4  0
  8 11  4  0
  9 29  4  0
 10 12  4  0
 11 24  1  0
 11 26  4  0
 12 25  1  0
 13 28  1  0
 14 20  4  0
 14 23  4  0
 15 17  4  0
 15 21  4  0
 16 19  4  0
 16 23  4  0
 17 22  4  0
 18 26  4  0
 19 24  4  0
 20 24  4  0
 22 27  4  0
 28 29  4  0
M  END
$$$$

 Created by Python create_sdf_string function

 29 33  0  0  0  0  0  0  0  0999 V2000
   10.7215   -3.3326   17.6437 C   0  0  0  0  0  0  0  0  0  0  0  0
    9.9489   -3.4675   24.6487 N   0  0  0  0  0  0  0  0  0  0  0  0
   10.0172   -4.4740   17.4101 C   0  0  0  0  0  0  0  0  0  0  0  0
    6.9051   -7.9575   16.4222 C   0  0  0  0  0  0  0  0  0  0  0  0
    8.9969   -6.3552   17.9668 N   0  0  0  0  0  0  0  0  0  0  0  0
   10.6702   -3.9051   22.4070 C   0  0  0  0  0  0  0  0  0  0  0  0
   11.0625   -3.0028   18.8894 C   0  0  0  0  0  0  0  0  0  0  0  0
    5.6180   -7.9194   16.1754 O   0  0  0  0  0  0  0  0  0  0  0  0
    9.7259   -5.3080   18.4485 C   0  0  0  0  0  0  0  0  0  0  0  0
    9.4578   -5.0200   16.3036 N   0  0  0  0  0  0  0  0  0  0  0  0
    5.0287   -8.9365   16.8223 C   0  0  0  0  0  0  0  0  0  0  0  0
    8.7742   -6.1498   16.6764 C   0  0  0  0  0  0  0  0  0  0  0  0
   10.9418   -3.4032   21.2053 O   0  0  0  0  0  0  0  0  0  0  0  0
    1.4797   -8.6258   16.2950 C   0  0  0  0  0  0  0  0  0  0  0  0
    9.2861   -1.2743   25.3585 C   0  0  0  0  0  0  0  0  0  0  0  0
    1.8892  -10.3985   17.7511 N   0  0  0  0  0  0  0  0  0  0  0  0
    9.6210   -0.6952   24.0976 C   0  0  0  0  0  0  0  0  0  0  0  0
    7.0792   -9.0217   17.1429 C   0  0  0  0  0  0  0  0  0  0  0  0
    3.1713  -10.1816   17.6634 C   0  0  0  0  0  0  0  0  0  0  0  0
    2.7878   -8.3822   16.2137 C   0  0  0  0  0  0  0  0  0  0  0  0
    9.4601   -2.6590   25.6528 C   0  0  0  0  0  0  0  0  0  0  0  0
   10.1182   -1.5672   23.1165 C   0  0  0  0  0  0  0  0  0  0  0  0
    1.0552   -9.6360   17.0650 C   0  0  0  0  0  0  0  0  0  0  0  0
    3.6519   -9.1783   16.9039 C   0  0  0  0  0  0  0  0  0  0  0  0
    7.8675   -7.0096   15.9415 C   0  0  0  0  0  0  0  0  0  0  0  0
    5.9733   -9.6553   17.3832 N   0  0  0  0  0  0  0  0  0  0  0  0
   10.2411   -2.9363   23.4301 C   0  0  0  0  0  0  0  0  0  0  0  0
   10.7288   -3.8197   19.9525 C   0  0  0  0  0  0  0  0  0  0  0  0
   10.1189   -5.0054   19.6987 C   0  0  0  0  0  0  0  0  0  0  0  0
  1  3  4  0
  1  7  4  0
  2 21  4  0
  2 27  4  0
  3  9  4  0
  3 10  4  0
  4  8  4  0
  4 18  4  0
  4 25  1  0
  5  9  4  0
  5 12  4  0
  6 13  1  0
  6 27  1  0
  7 28  4  0
  8 11  4  0
  9 29  4  0
 10 12  4  0
 11 24  1  0
 11 26  4  0
 12 25  1  0
 13 28  1  0
 14 20  4  0
 14 23  4  0
 15 17  4  0
 15 21  4  0
 16 19  4  0
 16 23  4  0
 17 22  4  0
 18 26  4  0
 19 24  4  0
 20 24  4  0
 22 27  4  0
 28 29  4  0
M  END
$$$$

 Created by Python create_sdf_string function

 29 33  0  0  0  0  0  0  0  0999 V2000
   10.7215   -3.3326   17.6437 C   0  0  0  0  0  0  0  0  0  0  0  0
    9.9489   -3.4675   24.6487 N   0  0  0  0  0  0  0  0  0  0  0  0
   10.0172   -4.4740   17.4101 C   0  0  0  0  0  0  0  0  0  0  0  0
    6.9051   -7.9575   16.4222 C   0  0  0  0  0  0  0  0  0  0  0  0
    8.9969   -6.3552   17.9668 N   0  0  0  0  0  0  0  0  0  0  0  0
   10.6702   -3.9051   22.4070 C   0  0  0  0  0  0  0  0  0  0  0  0
   11.0625   -3.0028   18.8894 C   0  0  0  0  0  0  0  0  0  0  0  0
    5.6180   -7.9194   16.1754 O   0  0  0  0  0  0  0  0  0  0  0  0
    9.7259   -5.3080   18.4485 C   0  0  0  0  0  0  0  0  0  0  0  0
    9.4578   -5.0200   16.3036 N   0  0  0  0  0  0  0  0  0  0  0  0
    5.0287   -8.9365   16.8223 C   0  0  0  0  0  0  0  0  0  0  0  0
    8.7742   -6.1498   16.6764 C   0  0  0  0  0  0  0  0  0  0  0  0
   10.9418   -3.4032   21.2053 O   0  0  0  0  0  0  0  0  0  0  0  0
    1.4797   -8.6258   16.2950 C   0  0  0  0  0  0  0  0  0  0  0  0
    9.2861   -1.2743   25.3585 C   0  0  0  0  0  0  0  0  0  0  0  0
    1.8892  -10.3985   17.7511 N   0  0  0  0  0  0  0  0  0  0  0  0
    9.6210   -0.6952   24.0976 C   0  0  0  0  0  0  0  0  0  0  0  0
    7.0792   -9.0217   17.1429 C   0  0  0  0  0  0  0  0  0  0  0  0
    3.1713  -10.1816   17.6634 C   0  0  0  0  0  0  0  0  0  0  0  0
    2.7878   -8.3822   16.2137 C   0  0  0  0  0  0  0  0  0  0  0  0
    9.4601   -2.6590   25.6528 C   0  0  0  0  0  0  0  0  0  0  0  0
   10.1182   -1.5672   23.1165 C   0  0  0  0  0  0  0  0  0  0  0  0
    1.0552   -9.6360   17.0650 C   0  0  0  0  0  0  0  0  0  0  0  0
    3.6519   -9.1783   16.9039 C   0  0  0  0  0  0  0  0  0  0  0  0
    7.8675   -7.0096   15.9415 C   0  0  0  0  0  0  0  0  0  0  0  0
    5.9733   -9.6553   17.3832 N   0  0  0  0  0  0  0  0  0  0  0  0
   10.2411   -2.9363   23.4301 C   0  0  0  0  0  0  0  0  0  0  0  0
   10.7288   -3.8197   19.9525 C   0  0  0  0  0  0  0  0  0  0  0  0
   10.1189   -5.0054   19.6987 C   0  0  0  0  0  0  0  0  0  0  0  0
  1  3  4  0
  1  7  4  0
  2 21  4  0
  2 27  4  0
  3  9  4  0
  3 10  4  0
  4  8  4  0
  4 18  4  0
  4 25  1  0
  5  9  4  0
  5 12  4  0
  6 13  1  0
  6 27  1  0
  7 28  4  0
  8 11  4  0
  9 29  4  0
 10 12  4  0
 11 24  1  0
 11 26  4  0
 12 25  1  0
 13 28  1  0
 14 20  4  0
 14 23  4  0
 15 17  4  0
 15 21  4  0
 16 19  4  0
 16 23  4  0
 17 22  4  0
 18 26  4  0
 19 24  4  0
 20 24  4  0
 22 27  4  0
 28 29  4  0
M  END
$$$$

 Created by Python create_sdf_string function

 29 33  0  0  0  0  0  0  0  0999 V2000
   10.7215   -3.3326   17.6437 C   0  0  0  0  0  0  0  0  0  0  0  0
    9.9489   -3.4675   24.6487 N   0  0  0  0  0  0  0  0  0  0  0  0
   10.0172   -4.4740   17.4101 C   0  0  0  0  0  0  0  0  0  0  0  0
    6.9051   -7.9575   16.4222 C   0  0  0  0  0  0  0  0  0  0  0  0
    8.9969   -6.3552   17.9668 N   0  0  0  0  0  0  0  0  0  0  0  0
   10.6702   -3.9051   22.4070 C   0  0  0  0  0  0  0  0  0  0  0  0
   11.0625   -3.0028   18.8894 C   0  0  0  0  0  0  0  0  0  0  0  0
    5.6180   -7.9194   16.1754 O   0  0  0  0  0  0  0  0  0  0  0  0
    9.7259   -5.3080   18.4485 C   0  0  0  0  0  0  0  0  0  0  0  0
    9.4578   -5.0200   16.3036 N   0  0  0  0  0  0  0  0  0  0  0  0
    5.0287   -8.9365   16.8223 C   0  0  0  0  0  0  0  0  0  0  0  0
    8.7742   -6.1498   16.6764 C   0  0  0  0  0  0  0  0  0  0  0  0
   10.9418   -3.4032   21.2053 O   0  0  0  0  0  0  0  0  0  0  0  0
    1.4797   -8.6258   16.2950 C   0  0  0  0  0  0  0  0  0  0  0  0
    9.2861   -1.2743   25.3585 C   0  0  0  0  0  0  0  0  0  0  0  0
    1.8892  -10.3985   17.7511 N   0  0  0  0  0  0  0  0  0  0  0  0
    9.6210   -0.6952   24.0976 C   0  0  0  0  0  0  0  0  0  0  0  0
    7.0792   -9.0217   17.1429 C   0  0  0  0  0  0  0  0  0  0  0  0
    3.1713  -10.1816   17.6634 C   0  0  0  0  0  0  0  0  0  0  0  0
    2.7878   -8.3822   16.2137 C   0  0  0  0  0  0  0  0  0  0  0  0
    9.4601   -2.6590   25.6528 C   0  0  0  0  0  0  0  0  0  0  0  0
   10.1182   -1.5672   23.1165 C   0  0  0  0  0  0  0  0  0  0  0  0
    1.0552   -9.6360   17.0650 C   0  0  0  0  0  0  0  0  0  0  0  0
    3.6519   -9.1783   16.9039 C   0  0  0  0  0  0  0  0  0  0  0  0
    7.8675   -7.0096   15.9415 C   0  0  0  0  0  0  0  0  0  0  0  0
    5.9733   -9.6553   17.3832 N   0  0  0  0  0  0  0  0  0  0  0  0
   10.2411   -2.9363   23.4301 C   0  0  0  0  0  0  0  0  0  0  0  0
   10.7288   -3.8197   19.9525 C   0  0  0  0  0  0  0  0  0  0  0  0
   10.1189   -5.0054   19.6987 C   0  0  0  0  0  0  0  0  0  0  0  0
  1  3  4  0
  1  7  4  0
  2 21  4  0
  2 27  4  0
  3  9  4  0
  3 10  4  0
  4  8  4  0
  4 18  4  0
  4 25  1  0
  5  9  4  0
  5 12  4  0
  6 13  1  0
  6 27  1  0
  7 28  4  0
  8 11  4  0
  9 29  4  0
 10 12  4  0
 11 24  1  0
 11 26  4  0
 12 25  1  0
 13 28  1  0
 14 20  4  0
 14 23  4  0
 15 17  4  0
 15 21  4  0
 16 19  4  0
 16 23  4  0
 17 22  4  0
 18 26  4  0
 19 24  4  0
 20 24  4  0
 22 27  4  0
 28 29  4  0
M  END
$$$$

 Created by Python create_sdf_string function

 29 33  0  0  0  0  0  0  0  0999 V2000
   10.7215   -3.3326   17.6437 C   0  0  0  0  0  0  0  0  0  0  0  0
    9.9489   -3.4675   24.6487 N   0  0  0  0  0  0  0  0  0  0  0  0
   10.0172   -4.4740   17.4101 C   0  0  0  0  0  0  0  0  0  0  0  0
    6.9051   -7.9575   16.4222 C   0  0  0  0  0  0  0  0  0  0  0  0
    8.9969   -6.3552   17.9668 N   0  0  0  0  0  0  0  0  0  0  0  0
   10.6702   -3.9051   22.4070 C   0  0  0  0  0  0  0  0  0  0  0  0
   11.0625   -3.0028   18.8894 C   0  0  0  0  0  0  0  0  0  0  0  0
    5.6180   -7.9194   16.1754 O   0  0  0  0  0  0  0  0  0  0  0  0
    9.7259   -5.3080   18.4485 C   0  0  0  0  0  0  0  0  0  0  0  0
    9.4578   -5.0200   16.3036 N   0  0  0  0  0  0  0  0  0  0  0  0
    5.0287   -8.9365   16.8223 C   0  0  0  0  0  0  0  0  0  0  0  0
    8.7742   -6.1498   16.6764 C   0  0  0  0  0  0  0  0  0  0  0  0
   10.9418   -3.4032   21.2053 O   0  0  0  0  0  0  0  0  0  0  0  0
    1.4797   -8.6258   16.2950 C   0  0  0  0  0  0  0  0  0  0  0  0
    9.2861   -1.2743   25.3585 C   0  0  0  0  0  0  0  0  0  0  0  0
    1.8892  -10.3985   17.7511 N   0  0  0  0  0  0  0  0  0  0  0  0
    9.6210   -0.6952   24.0976 C   0  0  0  0  0  0  0  0  0  0  0  0
    7.0792   -9.0217   17.1429 C   0  0  0  0  0  0  0  0  0  0  0  0
    3.1713  -10.1816   17.6634 C   0  0  0  0  0  0  0  0  0  0  0  0
    2.7878   -8.3822   16.2137 C   0  0  0  0  0  0  0  0  0  0  0  0
    9.4601   -2.6590   25.6528 C   0  0  0  0  0  0  0  0  0  0  0  0
   10.1182   -1.5672   23.1165 C   0  0  0  0  0  0  0  0  0  0  0  0
    1.0552   -9.6360   17.0650 C   0  0  0  0  0  0  0  0  0  0  0  0
    3.6519   -9.1783   16.9039 C   0  0  0  0  0  0  0  0  0  0  0  0
    7.8675   -7.0096   15.9415 C   0  0  0  0  0  0  0  0  0  0  0  0
    5.9733   -9.6553   17.3832 N   0  0  0  0  0  0  0  0  0  0  0  0
   10.2411   -2.9363   23.4301 C   0  0  0  0  0  0  0  0  0  0  0  0
   10.7288   -3.8197   19.9525 C   0  0  0  0  0  0  0  0  0  0  0  0
   10.1189   -5.0054   19.6987 C   0  0  0  0  0  0  0  0  0  0  0  0
  1  3  4  0
  1  7  4  0
  2 21  4  0
  2 27  4  0
  3  9  4  0
  3 10  4  0
  4  8  4  0
  4 18  4  0
  4 25  1  0
  5  9  4  0
  5 12  4  0
  6 13  1  0
  6 27  1  0
  7 28  4  0
  8 11  4  0
  9 29  4  0
 10 12  4  0
 11 24  1  0
 11 26  4  0
 12 25  1  0
 13 28  1  0
 14 20  4  0
 14 23  4  0
 15 17  4  0
 15 21  4  0
 16 19  4  0
 16 23  4  0
 17 22  4  0
 18 26  4  0
 19 24  4  0
 20 24  4  0
 22 27  4  0
 28 29  4  0
M  END
$$$$

 Created by Python create_sdf_string function

 29 33  0  0  0  0  0  0  0  0999 V2000
   10.7215   -3.3326   17.6437 C   0  0  0  0  0  0  0  0  0  0  0  0
    9.9489   -3.4675   24.6487 N   0  0  0  0  0  0  0  0  0  0  0  0
   10.0172   -4.4740   17.4101 C   0  0  0  0  0  0  0  0  0  0  0  0
    6.9051   -7.9575   16.4222 C   0  0  0  0  0  0  0  0  0  0  0  0
    8.9969   -6.3552   17.9668 N   0  0  0  0  0  0  0  0  0  0  0  0
   10.6702   -3.9051   22.4070 C   0  0  0  0  0  0  0  0  0  0  0  0
   11.0625   -3.0028   18.8894 C   0  0  0  0  0  0  0  0  0  0  0  0
    5.6180   -7.9194   16.1754 O   0  0  0  0  0  0  0  0  0  0  0  0
    9.7259   -5.3080   18.4485 C   0  0  0  0  0  0  0  0  0  0  0  0
    9.4578   -5.0200   16.3036 N   0  0  0  0  0  0  0  0  0  0  0  0
    5.0287   -8.9365   16.8223 C   0  0  0  0  0  0  0  0  0  0  0  0
    8.7742   -6.1498   16.6764 C   0  0  0  0  0  0  0  0  0  0  0  0
   10.9418   -3.4032   21.2053 O   0  0  0  0  0  0  0  0  0  0  0  0
    1.4797   -8.6258   16.2950 C   0  0  0  0  0  0  0  0  0  0  0  0
    9.2861   -1.2743   25.3585 C   0  0  0  0  0  0  0  0  0  0  0  0
    1.8892  -10.3985   17.7511 N   0  0  0  0  0  0  0  0  0  0  0  0
    9.6210   -0.6952   24.0976 C   0  0  0  0  0  0  0  0  0  0  0  0
    7.0792   -9.0217   17.1429 C   0  0  0  0  0  0  0  0  0  0  0  0
    3.1713  -10.1816   17.6634 C   0  0  0  0  0  0  0  0  0  0  0  0
    2.7878   -8.3822   16.2137 C   0  0  0  0  0  0  0  0  0  0  0  0
    9.4601   -2.6590   25.6528 C   0  0  0  0  0  0  0  0  0  0  0  0
   10.1182   -1.5672   23.1165 C   0  0  0  0  0  0  0  0  0  0  0  0
    1.0552   -9.6360   17.0650 C   0  0  0  0  0  0  0  0  0  0  0  0
    3.6519   -9.1783   16.9039 C   0  0  0  0  0  0  0  0  0  0  0  0
    7.8675   -7.0096   15.9415 C   0  0  0  0  0  0  0  0  0  0  0  0
    5.9733   -9.6553   17.3832 N   0  0  0  0  0  0  0  0  0  0  0  0
   10.2411   -2.9363   23.4301 C   0  0  0  0  0  0  0  0  0  0  0  0
   10.7288   -3.8197   19.9525 C   0  0  0  0  0  0  0  0  0  0  0  0
   10.1189   -5.0054   19.6987 C   0  0  0  0  0  0  0  0  0  0  0  0
  1  3  4  0
  1  7  4  0
  2 21  4  0
  2 27  4  0
  3  9  4  0
  3 10  4  0
  4  8  4  0
  4 18  4  0
  4 25  1  0
  5  9  4  0
  5 12  4  0
  6 13  1  0
  6 27  1  0
  7 28  4  0
  8 11  4  0
  9 29  4  0
 10 12  4  0
 11 24  1  0
 11 26  4  0
 12 25  1  0
 13 28  1  0
 14 20  4  0
 14 23  4  0
 15 17  4  0
 15 21  4  0
 16 19  4  0
 16 23  4  0
 17 22  4  0
 18 26  4  0
 19 24  4  0
 20 24  4  0
 22 27  4  0
 28 29  4  0
M  END
$$$$

 Created by Python create_sdf_string function

 29 33  0  0  0  0  0  0  0  0999 V2000
   10.7215   -3.3326   17.6437 C   0  0  0  0  0  0  0  0  0  0  0  0
    9.9489   -3.4675   24.6487 N   0  0  0  0  0  0  0  0  0  0  0  0
   10.0172   -4.4740   17.4101 C   0  0  0  0  0  0  0  0  0  0  0  0
    6.9051   -7.9575   16.4222 C   0  0  0  0  0  0  0  0  0  0  0  0
    8.9969   -6.3552   17.9668 N   0  0  0  0  0  0  0  0  0  0  0  0
   10.6702   -3.9051   22.4070 C   0  0  0  0  0  0  0  0  0  0  0  0
   11.0625   -3.0028   18.8894 C   0  0  0  0  0  0  0  0  0  0  0  0
    5.6180   -7.9194   16.1754 O   0  0  0  0  0  0  0  0  0  0  0  0
    9.7259   -5.3080   18.4485 C   0  0  0  0  0  0  0  0  0  0  0  0
    9.4578   -5.0200   16.3036 N   0  0  0  0  0  0  0  0  0  0  0  0
    5.0287   -8.9365   16.8223 C   0  0  0  0  0  0  0  0  0  0  0  0
    8.7742   -6.1498   16.6764 C   0  0  0  0  0  0  0  0  0  0  0  0
   10.9418   -3.4032   21.2053 O   0  0  0  0  0  0  0  0  0  0  0  0
    1.4797   -8.6258   16.2950 C   0  0  0  0  0  0  0  0  0  0  0  0
    9.2861   -1.2743   25.3585 C   0  0  0  0  0  0  0  0  0  0  0  0
    1.8892  -10.3985   17.7511 N   0  0  0  0  0  0  0  0  0  0  0  0
    9.6210   -0.6952   24.0976 C   0  0  0  0  0  0  0  0  0  0  0  0
    7.0792   -9.0217   17.1429 C   0  0  0  0  0  0  0  0  0  0  0  0
    3.1713  -10.1816   17.6634 C   0  0  0  0  0  0  0  0  0  0  0  0
    2.7878   -8.3822   16.2137 C   0  0  0  0  0  0  0  0  0  0  0  0
    9.4601   -2.6590   25.6528 C   0  0  0  0  0  0  0  0  0  0  0  0
   10.1182   -1.5672   23.1165 C   0  0  0  0  0  0  0  0  0  0  0  0
    1.0552   -9.6360   17.0650 C   0  0  0  0  0  0  0  0  0  0  0  0
    3.6519   -9.1783   16.9039 C   0  0  0  0  0  0  0  0  0  0  0  0
    7.8675   -7.0096   15.9415 C   0  0  0  0  0  0  0  0  0  0  0  0
    5.9733   -9.6553   17.3832 N   0  0  0  0  0  0  0  0  0  0  0  0
   10.2411   -2.9363   23.4301 C   0  0  0  0  0  0  0  0  0  0  0  0
   10.7288   -3.8197   19.9525 C   0  0  0  0  0  0  0  0  0  0  0  0
   10.1189   -5.0054   19.6987 C   0  0  0  0  0  0  0  0  0  0  0  0
  1  3  4  0
  1  7  4  0
  2 21  4  0
  2 27  4  0
  3  9  4  0
  3 10  4  0
  4  8  4  0
  4 18  4  0
  4 25  1  0
  5  9  4  0
  5 12  4  0
  6 13  1  0
  6 27  1  0
  7 28  4  0
  8 11  4  0
  9 29  4  0
 10 12  4  0
 11 24  1  0
 11 26  4  0
 12 25  1  0
 13 28  1  0
 14 20  4  0
 14 23  4  0
 15 17  4  0
 15 21  4  0
 16 19  4  0
 16 23  4  0
 17 22  4  0
 18 26  4  0
 19 24  4  0
 20 24  4  0
 22 27  4  0
 28 29  4  0
M  END
$$$$

 Created by Python create_sdf_string function

 29 33  0  0  0  0  0  0  0  0999 V2000
   10.7215   -3.3326   17.6437 C   0  0  0  0  0  0  0  0  0  0  0  0
    9.9489   -3.4675   24.6487 N   0  0  0  0  0  0  0  0  0  0  0  0
   10.0172   -4.4740   17.4101 C   0  0  0  0  0  0  0  0  0  0  0  0
    6.9051   -7.9575   16.4222 C   0  0  0  0  0  0  0  0  0  0  0  0
    8.9969   -6.3552   17.9668 N   0  0  0  0  0  0  0  0  0  0  0  0
   10.6702   -3.9051   22.4070 C   0  0  0  0  0  0  0  0  0  0  0  0
   11.0625   -3.0028   18.8894 C   0  0  0  0  0  0  0  0  0  0  0  0
    5.6180   -7.9194   16.1754 O   0  0  0  0  0  0  0  0  0  0  0  0
    9.7259   -5.3080   18.4485 C   0  0  0  0  0  0  0  0  0  0  0  0
    9.4578   -5.0200   16.3036 N   0  0  0  0  0  0  0  0  0  0  0  0
    5.0287   -8.9365   16.8223 C   0  0  0  0  0  0  0  0  0  0  0  0
    8.7742   -6.1498   16.6764 C   0  0  0  0  0  0  0  0  0  0  0  0
   10.9418   -3.4032   21.2053 O   0  0  0  0  0  0  0  0  0  0  0  0
    1.4797   -8.6258   16.2950 C   0  0  0  0  0  0  0  0  0  0  0  0
    9.2861   -1.2743   25.3585 C   0  0  0  0  0  0  0  0  0  0  0  0
    1.8892  -10.3985   17.7511 N   0  0  0  0  0  0  0  0  0  0  0  0
    9.6210   -0.6952   24.0976 C   0  0  0  0  0  0  0  0  0  0  0  0
    7.0792   -9.0217   17.1429 C   0  0  0  0  0  0  0  0  0  0  0  0
    3.1713  -10.1816   17.6634 C   0  0  0  0  0  0  0  0  0  0  0  0
    2.7878   -8.3822   16.2137 C   0  0  0  0  0  0  0  0  0  0  0  0
    9.4601   -2.6590   25.6528 C   0  0  0  0  0  0  0  0  0  0  0  0
   10.1182   -1.5672   23.1165 C   0  0  0  0  0  0  0  0  0  0  0  0
    1.0552   -9.6360   17.0650 C   0  0  0  0  0  0  0  0  0  0  0  0
    3.6519   -9.1783   16.9039 C   0  0  0  0  0  0  0  0  0  0  0  0
    7.8675   -7.0096   15.9415 C   0  0  0  0  0  0  0  0  0  0  0  0
    5.9733   -9.6553   17.3832 N   0  0  0  0  0  0  0  0  0  0  0  0
   10.2411   -2.9363   23.4301 C   0  0  0  0  0  0  0  0  0  0  0  0
   10.7288   -3.8197   19.9525 C   0  0  0  0  0  0  0  0  0  0  0  0
   10.1189   -5.0054   19.6987 C   0  0  0  0  0  0  0  0  0  0  0  0
  1  3  4  0
  1  7  4  0
  2 21  4  0
  2 27  4  0
  3  9  4  0
  3 10  4  0
  4  8  4  0
  4 18  4  0
  4 25  1  0
  5  9  4  0
  5 12  4  0
  6 13  1  0
  6 27  1  0
  7 28  4  0
  8 11  4  0
  9 29  4  0
 10 12  4  0
 11 24  1  0
 11 26  4  0
 12 25  1  0
 13 28  1  0
 14 20  4  0
 14 23  4  0
 15 17  4  0
 15 21  4  0
 16 19  4  0
 16 23  4  0
 17 22  4  0
 18 26  4  0
 19 24  4  0
 20 24  4  0
 22 27  4  0
 28 29  4  0
M  END
$$$$

 Created by Python create_sdf_string function

 29 33  0  0  0  0  0  0  0  0999 V2000
   10.7215   -3.3326   17.6437 C   0  0  0  0  0  0  0  0  0  0  0  0
    9.9489   -3.4675   24.6487 N   0  0  0  0  0  0  0  0  0  0  0  0
   10.0172   -4.4740   17.4101 C   0  0  0  0  0  0  0  0  0  0  0  0
    6.9051   -7.9575   16.4222 C   0  0  0  0  0  0  0  0  0  0  0  0
    8.9969   -6.3552   17.9668 N   0  0  0  0  0  0  0  0  0  0  0  0
   10.6702   -3.9051   22.4070 C   0  0  0  0  0  0  0  0  0  0  0  0
   11.0625   -3.0028   18.8894 C   0  0  0  0  0  0  0  0  0  0  0  0
    5.6180   -7.9194   16.1754 O   0  0  0  0  0  0  0  0  0  0  0  0
    9.7259   -5.3080   18.4485 C   0  0  0  0  0  0  0  0  0  0  0  0
    9.4578   -5.0200   16.3036 N   0  0  0  0  0  0  0  0  0  0  0  0
    5.0287   -8.9365   16.8223 C   0  0  0  0  0  0  0  0  0  0  0  0
    8.7742   -6.1498   16.6764 C   0  0  0  0  0  0  0  0  0  0  0  0
   10.9418   -3.4032   21.2053 O   0  0  0  0  0  0  0  0  0  0  0  0
    1.4797   -8.6258   16.2950 C   0  0  0  0  0  0  0  0  0  0  0  0
    9.2861   -1.2743   25.3585 C   0  0  0  0  0  0  0  0  0  0  0  0
    1.8892  -10.3985   17.7511 N   0  0  0  0  0  0  0  0  0  0  0  0
    9.6210   -0.6952   24.0976 C   0  0  0  0  0  0  0  0  0  0  0  0
    7.0792   -9.0217   17.1429 C   0  0  0  0  0  0  0  0  0  0  0  0
    3.1713  -10.1816   17.6634 C   0  0  0  0  0  0  0  0  0  0  0  0
    2.7878   -8.3822   16.2137 C   0  0  0  0  0  0  0  0  0  0  0  0
    9.4601   -2.6590   25.6528 C   0  0  0  0  0  0  0  0  0  0  0  0
   10.1182   -1.5672   23.1165 C   0  0  0  0  0  0  0  0  0  0  0  0
    1.0552   -9.6360   17.0650 C   0  0  0  0  0  0  0  0  0  0  0  0
    3.6519   -9.1783   16.9039 C   0  0  0  0  0  0  0  0  0  0  0  0
    7.8675   -7.0096   15.9415 C   0  0  0  0  0  0  0  0  0  0  0  0
    5.9733   -9.6553   17.3832 N   0  0  0  0  0  0  0  0  0  0  0  0
   10.2411   -2.9363   23.4301 C   0  0  0  0  0  0  0  0  0  0  0  0
   10.7288   -3.8197   19.9525 C   0  0  0  0  0  0  0  0  0  0  0  0
   10.1189   -5.0054   19.6987 C   0  0  0  0  0  0  0  0  0  0  0  0
  1  3  4  0
  1  7  4  0
  2 21  4  0
  2 27  4  0
  3  9  4  0
  3 10  4  0
  4  8  4  0
  4 18  4  0
  4 25  1  0
  5  9  4  0
  5 12  4  0
  6 13  1  0
  6 27  1  0
  7 28  4  0
  8 11  4  0
  9 29  4  0
 10 12  4  0
 11 24  1  0
 11 26  4  0
 12 25  1  0
 13 28  1  0
 14 20  4  0
 14 23  4  0
 15 17  4  0
 15 21  4  0
 16 19  4  0
 16 23  4  0
 17 22  4  0
 18 26  4  0
 19 24  4  0
 20 24  4  0
 22 27  4  0
 28 29  4  0
M  END
$$$$

 Created by Python create_sdf_string function

 29 33  0  0  0  0  0  0  0  0999 V2000
   10.7215   -3.3326   17.6437 C   0  0  0  0  0  0  0  0  0  0  0  0
    9.9489   -3.4675   24.6487 N   0  0  0  0  0  0  0  0  0  0  0  0
   10.0172   -4.4740   17.4101 C   0  0  0  0  0  0  0  0  0  0  0  0
    6.9051   -7.9575   16.4222 C   0  0  0  0  0  0  0  0  0  0  0  0
    8.9969   -6.3552   17.9668 N   0  0  0  0  0  0  0  0  0  0  0  0
   10.6702   -3.9051   22.4070 C   0  0  0  0  0  0  0  0  0  0  0  0
   11.0625   -3.0028   18.8894 C   0  0  0  0  0  0  0  0  0  0  0  0
    5.6180   -7.9194   16.1754 O   0  0  0  0  0  0  0  0  0  0  0  0
    9.7259   -5.3080   18.4485 C   0  0  0  0  0  0  0  0  0  0  0  0
    9.4578   -5.0200   16.3036 N   0  0  0  0  0  0  0  0  0  0  0  0
    5.0287   -8.9365   16.8223 C   0  0  0  0  0  0  0  0  0  0  0  0
    8.7742   -6.1498   16.6764 C   0  0  0  0  0  0  0  0  0  0  0  0
   10.9418   -3.4032   21.2053 O   0  0  0  0  0  0  0  0  0  0  0  0
    1.4797   -8.6258   16.2950 C   0  0  0  0  0  0  0  0  0  0  0  0
    9.2861   -1.2743   25.3585 C   0  0  0  0  0  0  0  0  0  0  0  0
    1.8892  -10.3985   17.7511 N   0  0  0  0  0  0  0  0  0  0  0  0
    9.6210   -0.6952   24.0976 C   0  0  0  0  0  0  0  0  0  0  0  0
    7.0792   -9.0217   17.1429 C   0  0  0  0  0  0  0  0  0  0  0  0
    3.1713  -10.1816   17.6634 C   0  0  0  0  0  0  0  0  0  0  0  0
    2.7878   -8.3822   16.2137 C   0  0  0  0  0  0  0  0  0  0  0  0
    9.4601   -2.6590   25.6528 C   0  0  0  0  0  0  0  0  0  0  0  0
   10.1182   -1.5672   23.1165 C   0  0  0  0  0  0  0  0  0  0  0  0
    1.0552   -9.6360   17.0650 C   0  0  0  0  0  0  0  0  0  0  0  0
    3.6519   -9.1783   16.9039 C   0  0  0  0  0  0  0  0  0  0  0  0
    7.8675   -7.0096   15.9415 C   0  0  0  0  0  0  0  0  0  0  0  0
    5.9733   -9.6553   17.3832 N   0  0  0  0  0  0  0  0  0  0  0  0
   10.2411   -2.9363   23.4301 C   0  0  0  0  0  0  0  0  0  0  0  0
   10.7288   -3.8197   19.9525 C   0  0  0  0  0  0  0  0  0  0  0  0
   10.1189   -5.0054   19.6987 C   0  0  0  0  0  0  0  0  0  0  0  0
  1  3  4  0
  1  7  4  0
  2 21  4  0
  2 27  4  0
  3  9  4  0
  3 10  4  0
  4  8  4  0
  4 18  4  0
  4 25  1  0
  5  9  4  0
  5 12  4  0
  6 13  1  0
  6 27  1  0
  7 28  4  0
  8 11  4  0
  9 29  4  0
 10 12  4  0
 11 24  1  0
 11 26  4  0
 12 25  1  0
 13 28  1  0
 14 20  4  0
 14 23  4  0
 15 17  4  0
 15 21  4  0
 16 19  4  0
 16 23  4  0
 17 22  4  0
 18 26  4  0
 19 24  4  0
 20 24  4  0
 22 27  4  0
 28 29  4  0
M  END
$$$$

 Created by Python create_sdf_string function

 29 33  0  0  0  0  0  0  0  0999 V2000
   10.7215   -3.3326   17.6437 C   0  0  0  0  0  0  0  0  0  0  0  0
    9.9489   -3.4675   24.6487 N   0  0  0  0  0  0  0  0  0  0  0  0
   10.0172   -4.4740   17.4101 C   0  0  0  0  0  0  0  0  0  0  0  0
    6.9051   -7.9575   16.4222 C   0  0  0  0  0  0  0  0  0  0  0  0
    8.9969   -6.3552   17.9668 N   0  0  0  0  0  0  0  0  0  0  0  0
   10.6702   -3.9051   22.4070 C   0  0  0  0  0  0  0  0  0  0  0  0
   11.0625   -3.0028   18.8894 C   0  0  0  0  0  0  0  0  0  0  0  0
    5.6180   -7.9194   16.1754 O   0  0  0  0  0  0  0  0  0  0  0  0
    9.7259   -5.3080   18.4485 C   0  0  0  0  0  0  0  0  0  0  0  0
    9.4578   -5.0200   16.3036 N   0  0  0  0  0  0  0  0  0  0  0  0
    5.0287   -8.9365   16.8223 C   0  0  0  0  0  0  0  0  0  0  0  0
    8.7742   -6.1498   16.6764 C   0  0  0  0  0  0  0  0  0  0  0  0
   10.9418   -3.4032   21.2053 O   0  0  0  0  0  0  0  0  0  0  0  0
    1.4797   -8.6258   16.2950 C   0  0  0  0  0  0  0  0  0  0  0  0
    9.2861   -1.2743   25.3585 C   0  0  0  0  0  0  0  0  0  0  0  0
    1.8892  -10.3985   17.7511 N   0  0  0  0  0  0  0  0  0  0  0  0
    9.6210   -0.6952   24.0976 C   0  0  0  0  0  0  0  0  0  0  0  0
    7.0792   -9.0217   17.1429 C   0  0  0  0  0  0  0  0  0  0  0  0
    3.1713  -10.1816   17.6634 C   0  0  0  0  0  0  0  0  0  0  0  0
    2.7878   -8.3822   16.2137 C   0  0  0  0  0  0  0  0  0  0  0  0
    9.4601   -2.6590   25.6528 C   0  0  0  0  0  0  0  0  0  0  0  0
   10.1182   -1.5672   23.1165 C   0  0  0  0  0  0  0  0  0  0  0  0
    1.0552   -9.6360   17.0650 C   0  0  0  0  0  0  0  0  0  0  0  0
    3.6519   -9.1783   16.9039 C   0  0  0  0  0  0  0  0  0  0  0  0
    7.8675   -7.0096   15.9415 C   0  0  0  0  0  0  0  0  0  0  0  0
    5.9733   -9.6553   17.3832 N   0  0  0  0  0  0  0  0  0  0  0  0
   10.2411   -2.9363   23.4301 C   0  0  0  0  0  0  0  0  0  0  0  0
   10.7288   -3.8197   19.9525 C   0  0  0  0  0  0  0  0  0  0  0  0
   10.1189   -5.0054   19.6987 C   0  0  0  0  0  0  0  0  0  0  0  0
  1  3  4  0
  1  7  4  0
  2 21  4  0
  2 27  4  0
  3  9  4  0
  3 10  4  0
  4  8  4  0
  4 18  4  0
  4 25  1  0
  5  9  4  0
  5 12  4  0
  6 13  1  0
  6 27  1  0
  7 28  4  0
  8 11  4  0
  9 29  4  0
 10 12  4  0
 11 24  1  0
 11 26  4  0
 12 25  1  0
 13 28  1  0
 14 20  4  0
 14 23  4  0
 15 17  4  0
 15 21  4  0
 16 19  4  0
 16 23  4  0
 17 22  4  0
 18 26  4  0
 19 24  4  0
 20 24  4  0
 22 27  4  0
 28 29  4  0
M  END
$$$$

 Created by Python create_sdf_string function

 29 33  0  0  0  0  0  0  0  0999 V2000
   10.7215   -3.3326   17.6437 C   0  0  0  0  0  0  0  0  0  0  0  0
    9.9489   -3.4675   24.6487 N   0  0  0  0  0  0  0  0  0  0  0  0
   10.0172   -4.4740   17.4101 C   0  0  0  0  0  0  0  0  0  0  0  0
    6.9051   -7.9575   16.4222 C   0  0  0  0  0  0  0  0  0  0  0  0
    8.9969   -6.3552   17.9668 N   0  0  0  0  0  0  0  0  0  0  0  0
   10.6702   -3.9051   22.4070 C   0  0  0  0  0  0  0  0  0  0  0  0
   11.0625   -3.0028   18.8894 C   0  0  0  0  0  0  0  0  0  0  0  0
    5.6180   -7.9194   16.1754 O   0  0  0  0  0  0  0  0  0  0  0  0
    9.7259   -5.3080   18.4485 C   0  0  0  0  0  0  0  0  0  0  0  0
    9.4578   -5.0200   16.3036 N   0  0  0  0  0  0  0  0  0  0  0  0
    5.0287   -8.9365   16.8223 C   0  0  0  0  0  0  0  0  0  0  0  0
    8.7742   -6.1498   16.6764 C   0  0  0  0  0  0  0  0  0  0  0  0
   10.9418   -3.4032   21.2053 O   0  0  0  0  0  0  0  0  0  0  0  0
    1.4797   -8.6258   16.2950 C   0  0  0  0  0  0  0  0  0  0  0  0
    9.2861   -1.2743   25.3585 C   0  0  0  0  0  0  0  0  0  0  0  0
    1.8892  -10.3985   17.7511 N   0  0  0  0  0  0  0  0  0  0  0  0
    9.6210   -0.6952   24.0976 C   0  0  0  0  0  0  0  0  0  0  0  0
    7.0792   -9.0217   17.1429 C   0  0  0  0  0  0  0  0  0  0  0  0
    3.1713  -10.1816   17.6634 C   0  0  0  0  0  0  0  0  0  0  0  0
    2.7878   -8.3822   16.2137 C   0  0  0  0  0  0  0  0  0  0  0  0
    9.4601   -2.6590   25.6528 C   0  0  0  0  0  0  0  0  0  0  0  0
   10.1182   -1.5672   23.1165 C   0  0  0  0  0  0  0  0  0  0  0  0
    1.0552   -9.6360   17.0650 C   0  0  0  0  0  0  0  0  0  0  0  0
    3.6519   -9.1783   16.9039 C   0  0  0  0  0  0  0  0  0  0  0  0
    7.8675   -7.0096   15.9415 C   0  0  0  0  0  0  0  0  0  0  0  0
    5.9733   -9.6553   17.3832 N   0  0  0  0  0  0  0  0  0  0  0  0
   10.2411   -2.9363   23.4301 C   0  0  0  0  0  0  0  0  0  0  0  0
   10.7288   -3.8197   19.9525 C   0  0  0  0  0  0  0  0  0  0  0  0
   10.1189   -5.0054   19.6987 C   0  0  0  0  0  0  0  0  0  0  0  0
  1  3  4  0
  1  7  4  0
  2 21  4  0
  2 27  4  0
  3  9  4  0
  3 10  4  0
  4  8  4  0
  4 18  4  0
  4 25  1  0
  5  9  4  0
  5 12  4  0
  6 13  1  0
  6 27  1  0
  7 28  4  0
  8 11  4  0
  9 29  4  0
 10 12  4  0
 11 24  1  0
 11 26  4  0
 12 25  1  0
 13 28  1  0
 14 20  4  0
 14 23  4  0
 15 17  4  0
 15 21  4  0
 16 19  4  0
 16 23  4  0
 17 22  4  0
 18 26  4  0
 19 24  4  0
 20 24  4  0
 22 27  4  0
 28 29  4  0
M  END
$$$$

 Created by Python create_sdf_string function

 29 33  0  0  0  0  0  0  0  0999 V2000
   10.7215   -3.3326   17.6437 C   0  0  0  0  0  0  0  0  0  0  0  0
    9.9489   -3.4675   24.6487 N   0  0  0  0  0  0  0  0  0  0  0  0
   10.0172   -4.4740   17.4101 C   0  0  0  0  0  0  0  0  0  0  0  0
    6.9051   -7.9575   16.4222 C   0  0  0  0  0  0  0  0  0  0  0  0
    8.9969   -6.3552   17.9668 N   0  0  0  0  0  0  0  0  0  0  0  0
   10.6702   -3.9051   22.4070 C   0  0  0  0  0  0  0  0  0  0  0  0
   11.0625   -3.0028   18.8894 C   0  0  0  0  0  0  0  0  0  0  0  0
    5.6180   -7.9194   16.1754 O   0  0  0  0  0  0  0  0  0  0  0  0
    9.7259   -5.3080   18.4485 C   0  0  0  0  0  0  0  0  0  0  0  0
    9.4578   -5.0200   16.3036 N   0  0  0  0  0  0  0  0  0  0  0  0
    5.0287   -8.9365   16.8223 C   0  0  0  0  0  0  0  0  0  0  0  0
    8.7742   -6.1498   16.6764 C   0  0  0  0  0  0  0  0  0  0  0  0
   10.9418   -3.4032   21.2053 O   0  0  0  0  0  0  0  0  0  0  0  0
    1.4797   -8.6258   16.2950 C   0  0  0  0  0  0  0  0  0  0  0  0
    9.2861   -1.2743   25.3585 C   0  0  0  0  0  0  0  0  0  0  0  0
    1.8892  -10.3985   17.7511 N   0  0  0  0  0  0  0  0  0  0  0  0
    9.6210   -0.6952   24.0976 C   0  0  0  0  0  0  0  0  0  0  0  0
    7.0792   -9.0217   17.1429 C   0  0  0  0  0  0  0  0  0  0  0  0
    3.1713  -10.1816   17.6634 C   0  0  0  0  0  0  0  0  0  0  0  0
    2.7878   -8.3822   16.2137 C   0  0  0  0  0  0  0  0  0  0  0  0
    9.4601   -2.6590   25.6528 C   0  0  0  0  0  0  0  0  0  0  0  0
   10.1182   -1.5672   23.1165 C   0  0  0  0  0  0  0  0  0  0  0  0
    1.0552   -9.6360   17.0650 C   0  0  0  0  0  0  0  0  0  0  0  0
    3.6519   -9.1783   16.9039 C   0  0  0  0  0  0  0  0  0  0  0  0
    7.8675   -7.0096   15.9415 C   0  0  0  0  0  0  0  0  0  0  0  0
    5.9733   -9.6553   17.3832 N   0  0  0  0  0  0  0  0  0  0  0  0
   10.2411   -2.9363   23.4301 C   0  0  0  0  0  0  0  0  0  0  0  0
   10.7288   -3.8197   19.9525 C   0  0  0  0  0  0  0  0  0  0  0  0
   10.1189   -5.0054   19.6987 C   0  0  0  0  0  0  0  0  0  0  0  0
  1  3  4  0
  1  7  4  0
  2 21  4  0
  2 27  4  0
  3  9  4  0
  3 10  4  0
  4  8  4  0
  4 18  4  0
  4 25  1  0
  5  9  4  0
  5 12  4  0
  6 13  1  0
  6 27  1  0
  7 28  4  0
  8 11  4  0
  9 29  4  0
 10 12  4  0
 11 24  1  0
 11 26  4  0
 12 25  1  0
 13 28  1  0
 14 20  4  0
 14 23  4  0
 15 17  4  0
 15 21  4  0
 16 19  4  0
 16 23  4  0
 17 22  4  0
 18 26  4  0
 19 24  4  0
 20 24  4  0
 22 27  4  0
 28 29  4  0
M  END
$$$$

 Created by Python create_sdf_string function

 29 33  0  0  0  0  0  0  0  0999 V2000
   10.7215   -3.3326   17.6437 C   0  0  0  0  0  0  0  0  0  0  0  0
    9.9489   -3.4675   24.6487 N   0  0  0  0  0  0  0  0  0  0  0  0
   10.0172   -4.4740   17.4101 C   0  0  0  0  0  0  0  0  0  0  0  0
    6.9051   -7.9575   16.4222 C   0  0  0  0  0  0  0  0  0  0  0  0
    8.9969   -6.3552   17.9668 N   0  0  0  0  0  0  0  0  0  0  0  0
   10.6702   -3.9051   22.4070 C   0  0  0  0  0  0  0  0  0  0  0  0
   11.0625   -3.0028   18.8894 C   0  0  0  0  0  0  0  0  0  0  0  0
    5.6180   -7.9194   16.1754 O   0  0  0  0  0  0  0  0  0  0  0  0
    9.7259   -5.3080   18.4485 C   0  0  0  0  0  0  0  0  0  0  0  0
    9.4578   -5.0200   16.3036 N   0  0  0  0  0  0  0  0  0  0  0  0
    5.0287   -8.9365   16.8223 C   0  0  0  0  0  0  0  0  0  0  0  0
    8.7742   -6.1498   16.6764 C   0  0  0  0  0  0  0  0  0  0  0  0
   10.9418   -3.4032   21.2053 O   0  0  0  0  0  0  0  0  0  0  0  0
    1.4797   -8.6258   16.2950 C   0  0  0  0  0  0  0  0  0  0  0  0
    9.2861   -1.2743   25.3585 C   0  0  0  0  0  0  0  0  0  0  0  0
    1.8892  -10.3985   17.7511 N   0  0  0  0  0  0  0  0  0  0  0  0
    9.6210   -0.6952   24.0976 C   0  0  0  0  0  0  0  0  0  0  0  0
    7.0792   -9.0217   17.1429 C   0  0  0  0  0  0  0  0  0  0  0  0
    3.1713  -10.1816   17.6634 C   0  0  0  0  0  0  0  0  0  0  0  0
    2.7878   -8.3822   16.2137 C   0  0  0  0  0  0  0  0  0  0  0  0
    9.4601   -2.6590   25.6528 C   0  0  0  0  0  0  0  0  0  0  0  0
   10.1182   -1.5672   23.1165 C   0  0  0  0  0  0  0  0  0  0  0  0
    1.0552   -9.6360   17.0650 C   0  0  0  0  0  0  0  0  0  0  0  0
    3.6519   -9.1783   16.9039 C   0  0  0  0  0  0  0  0  0  0  0  0
    7.8675   -7.0096   15.9415 C   0  0  0  0  0  0  0  0  0  0  0  0
    5.9733   -9.6553   17.3832 N   0  0  0  0  0  0  0  0  0  0  0  0
   10.2411   -2.9363   23.4301 C   0  0  0  0  0  0  0  0  0  0  0  0
   10.7288   -3.8197   19.9525 C   0  0  0  0  0  0  0  0  0  0  0  0
   10.1189   -5.0054   19.6987 C   0  0  0  0  0  0  0  0  0  0  0  0
  1  3  4  0
  1  7  4  0
  2 21  4  0
  2 27  4  0
  3  9  4  0
  3 10  4  0
  4  8  4  0
  4 18  4  0
  4 25  1  0
  5  9  4  0
  5 12  4  0
  6 13  1  0
  6 27  1  0
  7 28  4  0
  8 11  4  0
  9 29  4  0
 10 12  4  0
 11 24  1  0
 11 26  4  0
 12 25  1  0
 13 28  1  0
 14 20  4  0
 14 23  4  0
 15 17  4  0
 15 21  4  0
 16 19  4  0
 16 23  4  0
 17 22  4  0
 18 26  4  0
 19 24  4  0
 20 24  4  0
 22 27  4  0
 28 29  4  0
M  END
$$$$

 Created by Python create_sdf_string function

 29 33  0  0  0  0  0  0  0  0999 V2000
   10.7215   -3.3326   17.6437 C   0  0  0  0  0  0  0  0  0  0  0  0
    9.9489   -3.4675   24.6487 N   0  0  0  0  0  0  0  0  0  0  0  0
   10.0172   -4.4740   17.4101 C   0  0  0  0  0  0  0  0  0  0  0  0
    6.9051   -7.9575   16.4222 C   0  0  0  0  0  0  0  0  0  0  0  0
    8.9969   -6.3552   17.9668 N   0  0  0  0  0  0  0  0  0  0  0  0
   10.6702   -3.9051   22.4070 C   0  0  0  0  0  0  0  0  0  0  0  0
   11.0625   -3.0028   18.8894 C   0  0  0  0  0  0  0  0  0  0  0  0
    5.6180   -7.9194   16.1754 O   0  0  0  0  0  0  0  0  0  0  0  0
    9.7259   -5.3080   18.4485 C   0  0  0  0  0  0  0  0  0  0  0  0
    9.4578   -5.0200   16.3036 N   0  0  0  0  0  0  0  0  0  0  0  0
    5.0287   -8.9365   16.8223 C   0  0  0  0  0  0  0  0  0  0  0  0
    8.7742   -6.1498   16.6764 C   0  0  0  0  0  0  0  0  0  0  0  0
   10.9418   -3.4032   21.2053 O   0  0  0  0  0  0  0  0  0  0  0  0
    1.4797   -8.6258   16.2950 C   0  0  0  0  0  0  0  0  0  0  0  0
    9.2861   -1.2743   25.3585 C   0  0  0  0  0  0  0  0  0  0  0  0
    1.8892  -10.3985   17.7511 N   0  0  0  0  0  0  0  0  0  0  0  0
    9.6210   -0.6952   24.0976 C   0  0  0  0  0  0  0  0  0  0  0  0
    7.0792   -9.0217   17.1429 C   0  0  0  0  0  0  0  0  0  0  0  0
    3.1713  -10.1816   17.6634 C   0  0  0  0  0  0  0  0  0  0  0  0
    2.7878   -8.3822   16.2137 C   0  0  0  0  0  0  0  0  0  0  0  0
    9.4601   -2.6590   25.6528 C   0  0  0  0  0  0  0  0  0  0  0  0
   10.1182   -1.5672   23.1165 C   0  0  0  0  0  0  0  0  0  0  0  0
    1.0552   -9.6360   17.0650 C   0  0  0  0  0  0  0  0  0  0  0  0
    3.6519   -9.1783   16.9039 C   0  0  0  0  0  0  0  0  0  0  0  0
    7.8675   -7.0096   15.9415 C   0  0  0  0  0  0  0  0  0  0  0  0
    5.9733   -9.6553   17.3832 N   0  0  0  0  0  0  0  0  0  0  0  0
   10.2411   -2.9363   23.4301 C   0  0  0  0  0  0  0  0  0  0  0  0
   10.7288   -3.8197   19.9525 C   0  0  0  0  0  0  0  0  0  0  0  0
   10.1189   -5.0054   19.6987 C   0  0  0  0  0  0  0  0  0  0  0  0
  1  3  4  0
  1  7  4  0
  2 21  4  0
  2 27  4  0
  3  9  4  0
  3 10  4  0
  4  8  4  0
  4 18  4  0
  4 25  1  0
  5  9  4  0
  5 12  4  0
  6 13  1  0
  6 27  1  0
  7 28  4  0
  8 11  4  0
  9 29  4  0
 10 12  4  0
 11 24  1  0
 11 26  4  0
 12 25  1  0
 13 28  1  0
 14 20  4  0
 14 23  4  0
 15 17  4  0
 15 21  4  0
 16 19  4  0
 16 23  4  0
 17 22  4  0
 18 26  4  0
 19 24  4  0
 20 24  4  0
 22 27  4  0
 28 29  4  0
M  END
$$$$

 Created by Python create_sdf_string function

 29 33  0  0  0  0  0  0  0  0999 V2000
   10.7215   -3.3326   17.6437 C   0  0  0  0  0  0  0  0  0  0  0  0
    9.9489   -3.4675   24.6487 N   0  0  0  0  0  0  0  0  0  0  0  0
   10.0172   -4.4740   17.4101 C   0  0  0  0  0  0  0  0  0  0  0  0
    6.9051   -7.9575   16.4222 C   0  0  0  0  0  0  0  0  0  0  0  0
    8.9969   -6.3552   17.9668 N   0  0  0  0  0  0  0  0  0  0  0  0
   10.6702   -3.9051   22.4070 C   0  0  0  0  0  0  0  0  0  0  0  0
   11.0625   -3.0028   18.8894 C   0  0  0  0  0  0  0  0  0  0  0  0
    5.6180   -7.9194   16.1754 O   0  0  0  0  0  0  0  0  0  0  0  0
    9.7259   -5.3080   18.4485 C   0  0  0  0  0  0  0  0  0  0  0  0
    9.4578   -5.0200   16.3036 N   0  0  0  0  0  0  0  0  0  0  0  0
    5.0287   -8.9365   16.8223 C   0  0  0  0  0  0  0  0  0  0  0  0
    8.7742   -6.1498   16.6764 C   0  0  0  0  0  0  0  0  0  0  0  0
   10.9418   -3.4032   21.2053 O   0  0  0  0  0  0  0  0  0  0  0  0
    1.4797   -8.6258   16.2950 C   0  0  0  0  0  0  0  0  0  0  0  0
    9.2861   -1.2743   25.3585 C   0  0  0  0  0  0  0  0  0  0  0  0
    1.8892  -10.3985   17.7511 N   0  0  0  0  0  0  0  0  0  0  0  0
    9.6210   -0.6952   24.0976 C   0  0  0  0  0  0  0  0  0  0  0  0
    7.0792   -9.0217   17.1429 C   0  0  0  0  0  0  0  0  0  0  0  0
    3.1713  -10.1816   17.6634 C   0  0  0  0  0  0  0  0  0  0  0  0
    2.7878   -8.3822   16.2137 C   0  0  0  0  0  0  0  0  0  0  0  0
    9.4601   -2.6590   25.6528 C   0  0  0  0  0  0  0  0  0  0  0  0
   10.1182   -1.5672   23.1165 C   0  0  0  0  0  0  0  0  0  0  0  0
    1.0552   -9.6360   17.0650 C   0  0  0  0  0  0  0  0  0  0  0  0
    3.6519   -9.1783   16.9039 C   0  0  0  0  0  0  0  0  0  0  0  0
    7.8675   -7.0096   15.9415 C   0  0  0  0  0  0  0  0  0  0  0  0
    5.9733   -9.6553   17.3832 N   0  0  0  0  0  0  0  0  0  0  0  0
   10.2411   -2.9363   23.4301 C   0  0  0  0  0  0  0  0  0  0  0  0
   10.7288   -3.8197   19.9525 C   0  0  0  0  0  0  0  0  0  0  0  0
   10.1189   -5.0054   19.6987 C   0  0  0  0  0  0  0  0  0  0  0  0
  1  3  4  0
  1  7  4  0
  2 21  4  0
  2 27  4  0
  3  9  4  0
  3 10  4  0
  4  8  4  0
  4 18  4  0
  4 25  1  0
  5  9  4  0
  5 12  4  0
  6 13  1  0
  6 27  1  0
  7 28  4  0
  8 11  4  0
  9 29  4  0
 10 12  4  0
 11 24  1  0
 11 26  4  0
 12 25  1  0
 13 28  1  0
 14 20  4  0
 14 23  4  0
 15 17  4  0
 15 21  4  0
 16 19  4  0
 16 23  4  0
 17 22  4  0
 18 26  4  0
 19 24  4  0
 20 24  4  0
 22 27  4  0
 28 29  4  0
M  END
$$$$

 Created by Python create_sdf_string function

 29 33  0  0  0  0  0  0  0  0999 V2000
   10.7215   -3.3326   17.6437 C   0  0  0  0  0  0  0  0  0  0  0  0
    9.9489   -3.4675   24.6487 N   0  0  0  0  0  0  0  0  0  0  0  0
   10.0172   -4.4740   17.4101 C   0  0  0  0  0  0  0  0  0  0  0  0
    6.9051   -7.9575   16.4222 C   0  0  0  0  0  0  0  0  0  0  0  0
    8.9969   -6.3552   17.9668 N   0  0  0  0  0  0  0  0  0  0  0  0
   10.6702   -3.9051   22.4070 C   0  0  0  0  0  0  0  0  0  0  0  0
   11.0625   -3.0028   18.8894 C   0  0  0  0  0  0  0  0  0  0  0  0
    5.6180   -7.9194   16.1754 O   0  0  0  0  0  0  0  0  0  0  0  0
    9.7259   -5.3080   18.4485 C   0  0  0  0  0  0  0  0  0  0  0  0
    9.4578   -5.0200   16.3036 N   0  0  0  0  0  0  0  0  0  0  0  0
    5.0287   -8.9365   16.8223 C   0  0  0  0  0  0  0  0  0  0  0  0
    8.7742   -6.1498   16.6764 C   0  0  0  0  0  0  0  0  0  0  0  0
   10.9418   -3.4032   21.2053 O   0  0  0  0  0  0  0  0  0  0  0  0
    1.4797   -8.6258   16.2950 C   0  0  0  0  0  0  0  0  0  0  0  0
    9.2861   -1.2743   25.3585 C   0  0  0  0  0  0  0  0  0  0  0  0
    1.8892  -10.3985   17.7511 N   0  0  0  0  0  0  0  0  0  0  0  0
    9.6210   -0.6952   24.0976 C   0  0  0  0  0  0  0  0  0  0  0  0
    7.0792   -9.0217   17.1429 C   0  0  0  0  0  0  0  0  0  0  0  0
    3.1713  -10.1816   17.6634 C   0  0  0  0  0  0  0  0  0  0  0  0
    2.7878   -8.3822   16.2137 C   0  0  0  0  0  0  0  0  0  0  0  0
    9.4601   -2.6590   25.6528 C   0  0  0  0  0  0  0  0  0  0  0  0
   10.1182   -1.5672   23.1165 C   0  0  0  0  0  0  0  0  0  0  0  0
    1.0552   -9.6360   17.0650 C   0  0  0  0  0  0  0  0  0  0  0  0
    3.6519   -9.1783   16.9039 C   0  0  0  0  0  0  0  0  0  0  0  0
    7.8675   -7.0096   15.9415 C   0  0  0  0  0  0  0  0  0  0  0  0
    5.9733   -9.6553   17.3832 N   0  0  0  0  0  0  0  0  0  0  0  0
   10.2411   -2.9363   23.4301 C   0  0  0  0  0  0  0  0  0  0  0  0
   10.7288   -3.8197   19.9525 C   0  0  0  0  0  0  0  0  0  0  0  0
   10.1189   -5.0054   19.6987 C   0  0  0  0  0  0  0  0  0  0  0  0
  1  3  4  0
  1  7  4  0
  2 21  4  0
  2 27  4  0
  3  9  4  0
  3 10  4  0
  4  8  4  0
  4 18  4  0
  4 25  1  0
  5  9  4  0
  5 12  4  0
  6 13  1  0
  6 27  1  0
  7 28  4  0
  8 11  4  0
  9 29  4  0
 10 12  4  0
 11 24  1  0
 11 26  4  0
 12 25  1  0
 13 28  1  0
 14 20  4  0
 14 23  4  0
 15 17  4  0
 15 21  4  0
 16 19  4  0
 16 23  4  0
 17 22  4  0
 18 26  4  0
 19 24  4  0
 20 24  4  0
 22 27  4  0
 28 29  4  0
M  END
$$$$

 Created by Python create_sdf_string function

 29 33  0  0  0  0  0  0  0  0999 V2000
   10.7215   -3.3326   17.6437 C   0  0  0  0  0  0  0  0  0  0  0  0
    9.9489   -3.4675   24.6487 N   0  0  0  0  0  0  0  0  0  0  0  0
   10.0172   -4.4740   17.4101 C   0  0  0  0  0  0  0  0  0  0  0  0
    6.9051   -7.9575   16.4222 C   0  0  0  0  0  0  0  0  0  0  0  0
    8.9969   -6.3552   17.9668 N   0  0  0  0  0  0  0  0  0  0  0  0
   10.6702   -3.9051   22.4070 C   0  0  0  0  0  0  0  0  0  0  0  0
   11.0625   -3.0028   18.8894 C   0  0  0  0  0  0  0  0  0  0  0  0
    5.6180   -7.9194   16.1754 O   0  0  0  0  0  0  0  0  0  0  0  0
    9.7259   -5.3080   18.4485 C   0  0  0  0  0  0  0  0  0  0  0  0
    9.4578   -5.0200   16.3036 N   0  0  0  0  0  0  0  0  0  0  0  0
    5.0287   -8.9365   16.8223 C   0  0  0  0  0  0  0  0  0  0  0  0
    8.7742   -6.1498   16.6764 C   0  0  0  0  0  0  0  0  0  0  0  0
   10.9418   -3.4032   21.2053 O   0  0  0  0  0  0  0  0  0  0  0  0
    1.4797   -8.6258   16.2950 C   0  0  0  0  0  0  0  0  0  0  0  0
    9.2861   -1.2743   25.3585 C   0  0  0  0  0  0  0  0  0  0  0  0
    1.8892  -10.3985   17.7511 N   0  0  0  0  0  0  0  0  0  0  0  0
    9.6210   -0.6952   24.0976 C   0  0  0  0  0  0  0  0  0  0  0  0
    7.0792   -9.0217   17.1429 C   0  0  0  0  0  0  0  0  0  0  0  0
    3.1713  -10.1816   17.6634 C   0  0  0  0  0  0  0  0  0  0  0  0
    2.7878   -8.3822   16.2137 C   0  0  0  0  0  0  0  0  0  0  0  0
    9.4601   -2.6590   25.6528 C   0  0  0  0  0  0  0  0  0  0  0  0
   10.1182   -1.5672   23.1165 C   0  0  0  0  0  0  0  0  0  0  0  0
    1.0552   -9.6360   17.0650 C   0  0  0  0  0  0  0  0  0  0  0  0
    3.6519   -9.1783   16.9039 C   0  0  0  0  0  0  0  0  0  0  0  0
    7.8675   -7.0096   15.9415 C   0  0  0  0  0  0  0  0  0  0  0  0
    5.9733   -9.6553   17.3832 N   0  0  0  0  0  0  0  0  0  0  0  0
   10.2411   -2.9363   23.4301 C   0  0  0  0  0  0  0  0  0  0  0  0
   10.7288   -3.8197   19.9525 C   0  0  0  0  0  0  0  0  0  0  0  0
   10.1189   -5.0054   19.6987 C   0  0  0  0  0  0  0  0  0  0  0  0
  1  3  4  0
  1  7  4  0
  2 21  4  0
  2 27  4  0
  3  9  4  0
  3 10  4  0
  4  8  4  0
  4 18  4  0
  4 25  1  0
  5  9  4  0
  5 12  4  0
  6 13  1  0
  6 27  1  0
  7 28  4  0
  8 11  4  0
  9 29  4  0
 10 12  4  0
 11 24  1  0
 11 26  4  0
 12 25  1  0
 13 28  1  0
 14 20  4  0
 14 23  4  0
 15 17  4  0
 15 21  4  0
 16 19  4  0
 16 23  4  0
 17 22  4  0
 18 26  4  0
 19 24  4  0
 20 24  4  0
 22 27  4  0
 28 29  4  0
M  END
$$$$

 Created by Python create_sdf_string function

 29 33  0  0  0  0  0  0  0  0999 V2000
   10.7215   -3.3326   17.6437 C   0  0  0  0  0  0  0  0  0  0  0  0
    9.9489   -3.4675   24.6487 N   0  0  0  0  0  0  0  0  0  0  0  0
   10.0172   -4.4740   17.4101 C   0  0  0  0  0  0  0  0  0  0  0  0
    6.9051   -7.9575   16.4222 C   0  0  0  0  0  0  0  0  0  0  0  0
    8.9969   -6.3552   17.9668 N   0  0  0  0  0  0  0  0  0  0  0  0
   10.6702   -3.9051   22.4070 C   0  0  0  0  0  0  0  0  0  0  0  0
   11.0625   -3.0028   18.8894 C   0  0  0  0  0  0  0  0  0  0  0  0
    5.6180   -7.9194   16.1754 O   0  0  0  0  0  0  0  0  0  0  0  0
    9.7259   -5.3080   18.4485 C   0  0  0  0  0  0  0  0  0  0  0  0
    9.4578   -5.0200   16.3036 N   0  0  0  0  0  0  0  0  0  0  0  0
    5.0287   -8.9365   16.8223 C   0  0  0  0  0  0  0  0  0  0  0  0
    8.7742   -6.1498   16.6764 C   0  0  0  0  0  0  0  0  0  0  0  0
   10.9418   -3.4032   21.2053 O   0  0  0  0  0  0  0  0  0  0  0  0
    1.4797   -8.6258   16.2950 C   0  0  0  0  0  0  0  0  0  0  0  0
    9.2861   -1.2743   25.3585 C   0  0  0  0  0  0  0  0  0  0  0  0
    1.8892  -10.3985   17.7511 N   0  0  0  0  0  0  0  0  0  0  0  0
    9.6210   -0.6952   24.0976 C   0  0  0  0  0  0  0  0  0  0  0  0
    7.0792   -9.0217   17.1429 C   0  0  0  0  0  0  0  0  0  0  0  0
    3.1713  -10.1816   17.6634 C   0  0  0  0  0  0  0  0  0  0  0  0
    2.7878   -8.3822   16.2137 C   0  0  0  0  0  0  0  0  0  0  0  0
    9.4601   -2.6590   25.6528 C   0  0  0  0  0  0  0  0  0  0  0  0
   10.1182   -1.5672   23.1165 C   0  0  0  0  0  0  0  0  0  0  0  0
    1.0552   -9.6360   17.0650 C   0  0  0  0  0  0  0  0  0  0  0  0
    3.6519   -9.1783   16.9039 C   0  0  0  0  0  0  0  0  0  0  0  0
    7.8675   -7.0096   15.9415 C   0  0  0  0  0  0  0  0  0  0  0  0
    5.9733   -9.6553   17.3832 N   0  0  0  0  0  0  0  0  0  0  0  0
   10.2411   -2.9363   23.4301 C   0  0  0  0  0  0  0  0  0  0  0  0
   10.7288   -3.8197   19.9525 C   0  0  0  0  0  0  0  0  0  0  0  0
   10.1189   -5.0054   19.6987 C   0  0  0  0  0  0  0  0  0  0  0  0
  1  3  4  0
  1  7  4  0
  2 21  4  0
  2 27  4  0
  3  9  4  0
  3 10  4  0
  4  8  4  0
  4 18  4  0
  4 25  1  0
  5  9  4  0
  5 12  4  0
  6 13  1  0
  6 27  1  0
  7 28  4  0
  8 11  4  0
  9 29  4  0
 10 12  4  0
 11 24  1  0
 11 26  4  0
 12 25  1  0
 13 28  1  0
 14 20  4  0
 14 23  4  0
 15 17  4  0
 15 21  4  0
 16 19  4  0
 16 23  4  0
 17 22  4  0
 18 26  4  0
 19 24  4  0
 20 24  4  0
 22 27  4  0
 28 29  4  0
M  END
$$$$

 Created by Python create_sdf_string function

 29 33  0  0  0  0  0  0  0  0999 V2000
   10.7215   -3.3326   17.6437 C   0  0  0  0  0  0  0  0  0  0  0  0
    9.9489   -3.4675   24.6487 N   0  0  0  0  0  0  0  0  0  0  0  0
   10.0172   -4.4740   17.4101 C   0  0  0  0  0  0  0  0  0  0  0  0
    6.9051   -7.9575   16.4222 C   0  0  0  0  0  0  0  0  0  0  0  0
    8.9969   -6.3552   17.9668 N   0  0  0  0  0  0  0  0  0  0  0  0
   10.6702   -3.9051   22.4070 C   0  0  0  0  0  0  0  0  0  0  0  0
   11.0625   -3.0028   18.8894 C   0  0  0  0  0  0  0  0  0  0  0  0
    5.6180   -7.9194   16.1754 O   0  0  0  0  0  0  0  0  0  0  0  0
    9.7259   -5.3080   18.4485 C   0  0  0  0  0  0  0  0  0  0  0  0
    9.4578   -5.0200   16.3036 N   0  0  0  0  0  0  0  0  0  0  0  0
    5.0287   -8.9365   16.8223 C   0  0  0  0  0  0  0  0  0  0  0  0
    8.7742   -6.1498   16.6764 C   0  0  0  0  0  0  0  0  0  0  0  0
   10.9418   -3.4032   21.2053 O   0  0  0  0  0  0  0  0  0  0  0  0
    1.4797   -8.6258   16.2950 C   0  0  0  0  0  0  0  0  0  0  0  0
    9.2861   -1.2743   25.3585 C   0  0  0  0  0  0  0  0  0  0  0  0
    1.8892  -10.3985   17.7511 N   0  0  0  0  0  0  0  0  0  0  0  0
    9.6210   -0.6952   24.0976 C   0  0  0  0  0  0  0  0  0  0  0  0
    7.0792   -9.0217   17.1429 C   0  0  0  0  0  0  0  0  0  0  0  0
    3.1713  -10.1816   17.6634 C   0  0  0  0  0  0  0  0  0  0  0  0
    2.7878   -8.3822   16.2137 C   0  0  0  0  0  0  0  0  0  0  0  0
    9.4601   -2.6590   25.6528 C   0  0  0  0  0  0  0  0  0  0  0  0
   10.1182   -1.5672   23.1165 C   0  0  0  0  0  0  0  0  0  0  0  0
    1.0552   -9.6360   17.0650 C   0  0  0  0  0  0  0  0  0  0  0  0
    3.6519   -9.1783   16.9039 C   0  0  0  0  0  0  0  0  0  0  0  0
    7.8675   -7.0096   15.9415 C   0  0  0  0  0  0  0  0  0  0  0  0
    5.9733   -9.6553   17.3832 N   0  0  0  0  0  0  0  0  0  0  0  0
   10.2411   -2.9363   23.4301 C   0  0  0  0  0  0  0  0  0  0  0  0
   10.7288   -3.8197   19.9525 C   0  0  0  0  0  0  0  0  0  0  0  0
   10.1189   -5.0054   19.6987 C   0  0  0  0  0  0  0  0  0  0  0  0
  1  3  4  0
  1  7  4  0
  2 21  4  0
  2 27  4  0
  3  9  4  0
  3 10  4  0
  4  8  4  0
  4 18  4  0
  4 25  1  0
  5  9  4  0
  5 12  4  0
  6 13  1  0
  6 27  1  0
  7 28  4  0
  8 11  4  0
  9 29  4  0
 10 12  4  0
 11 24  1  0
 11 26  4  0
 12 25  1  0
 13 28  1  0
 14 20  4  0
 14 23  4  0
 15 17  4  0
 15 21  4  0
 16 19  4  0
 16 23  4  0
 17 22  4  0
 18 26  4  0
 19 24  4  0
 20 24  4  0
 22 27  4  0
 28 29  4  0
M  END
$$$$

 Created by Python create_sdf_string function

 29 33  0  0  0  0  0  0  0  0999 V2000
   10.7215   -3.3326   17.6437 C   0  0  0  0  0  0  0  0  0  0  0  0
    9.9489   -3.4675   24.6487 N   0  0  0  0  0  0  0  0  0  0  0  0
   10.0172   -4.4740   17.4101 C   0  0  0  0  0  0  0  0  0  0  0  0
    6.9051   -7.9575   16.4222 C   0  0  0  0  0  0  0  0  0  0  0  0
    8.9969   -6.3552   17.9668 N   0  0  0  0  0  0  0  0  0  0  0  0
   10.6702   -3.9051   22.4070 C   0  0  0  0  0  0  0  0  0  0  0  0
   11.0625   -3.0028   18.8894 C   0  0  0  0  0  0  0  0  0  0  0  0
    5.6180   -7.9194   16.1754 O   0  0  0  0  0  0  0  0  0  0  0  0
    9.7259   -5.3080   18.4485 C   0  0  0  0  0  0  0  0  0  0  0  0
    9.4578   -5.0200   16.3036 N   0  0  0  0  0  0  0  0  0  0  0  0
    5.0287   -8.9365   16.8223 C   0  0  0  0  0  0  0  0  0  0  0  0
    8.7742   -6.1498   16.6764 C   0  0  0  0  0  0  0  0  0  0  0  0
   10.9418   -3.4032   21.2053 O   0  0  0  0  0  0  0  0  0  0  0  0
    1.4797   -8.6258   16.2950 C   0  0  0  0  0  0  0  0  0  0  0  0
    9.2861   -1.2743   25.3585 C   0  0  0  0  0  0  0  0  0  0  0  0
    1.8892  -10.3985   17.7511 N   0  0  0  0  0  0  0  0  0  0  0  0
    9.6210   -0.6952   24.0976 C   0  0  0  0  0  0  0  0  0  0  0  0
    7.0792   -9.0217   17.1429 C   0  0  0  0  0  0  0  0  0  0  0  0
    3.1713  -10.1816   17.6634 C   0  0  0  0  0  0  0  0  0  0  0  0
    2.7878   -8.3822   16.2137 C   0  0  0  0  0  0  0  0  0  0  0  0
    9.4601   -2.6590   25.6528 C   0  0  0  0  0  0  0  0  0  0  0  0
   10.1182   -1.5672   23.1165 C   0  0  0  0  0  0  0  0  0  0  0  0
    1.0552   -9.6360   17.0650 C   0  0  0  0  0  0  0  0  0  0  0  0
    3.6519   -9.1783   16.9039 C   0  0  0  0  0  0  0  0  0  0  0  0
    7.8675   -7.0096   15.9415 C   0  0  0  0  0  0  0  0  0  0  0  0
    5.9733   -9.6553   17.3832 N   0  0  0  0  0  0  0  0  0  0  0  0
   10.2411   -2.9363   23.4301 C   0  0  0  0  0  0  0  0  0  0  0  0
   10.7288   -3.8197   19.9525 C   0  0  0  0  0  0  0  0  0  0  0  0
   10.1189   -5.0054   19.6987 C   0  0  0  0  0  0  0  0  0  0  0  0
  1  3  4  0
  1  7  4  0
  2 21  4  0
  2 27  4  0
  3  9  4  0
  3 10  4  0
  4  8  4  0
  4 18  4  0
  4 25  1  0
  5  9  4  0
  5 12  4  0
  6 13  1  0
  6 27  1  0
  7 28  4  0
  8 11  4  0
  9 29  4  0
 10 12  4  0
 11 24  1  0
 11 26  4  0
 12 25  1  0
 13 28  1  0
 14 20  4  0
 14 23  4  0
 15 17  4  0
 15 21  4  0
 16 19  4  0
 16 23  4  0
 17 22  4  0
 18 26  4  0
 19 24  4  0
 20 24  4  0
 22 27  4  0
 28 29  4  0
M  END
$$$$

 Created by Python create_sdf_string function

 29 33  0  0  0  0  0  0  0  0999 V2000
   10.7215   -3.3326   17.6437 C   0  0  0  0  0  0  0  0  0  0  0  0
    9.9489   -3.4675   24.6487 N   0  0  0  0  0  0  0  0  0  0  0  0
   10.0172   -4.4740   17.4101 C   0  0  0  0  0  0  0  0  0  0  0  0
    6.9051   -7.9575   16.4222 C   0  0  0  0  0  0  0  0  0  0  0  0
    8.9969   -6.3552   17.9668 N   0  0  0  0  0  0  0  0  0  0  0  0
   10.6702   -3.9051   22.4070 C   0  0  0  0  0  0  0  0  0  0  0  0
   11.0625   -3.0028   18.8894 C   0  0  0  0  0  0  0  0  0  0  0  0
    5.6180   -7.9194   16.1754 O   0  0  0  0  0  0  0  0  0  0  0  0
    9.7259   -5.3080   18.4485 C   0  0  0  0  0  0  0  0  0  0  0  0
    9.4578   -5.0200   16.3036 N   0  0  0  0  0  0  0  0  0  0  0  0
    5.0287   -8.9365   16.8223 C   0  0  0  0  0  0  0  0  0  0  0  0
    8.7742   -6.1498   16.6764 C   0  0  0  0  0  0  0  0  0  0  0  0
   10.9418   -3.4032   21.2053 O   0  0  0  0  0  0  0  0  0  0  0  0
    1.4797   -8.6258   16.2950 C   0  0  0  0  0  0  0  0  0  0  0  0
    9.2861   -1.2743   25.3585 C   0  0  0  0  0  0  0  0  0  0  0  0
    1.8892  -10.3985   17.7511 N   0  0  0  0  0  0  0  0  0  0  0  0
    9.6210   -0.6952   24.0976 C   0  0  0  0  0  0  0  0  0  0  0  0
    7.0792   -9.0217   17.1429 C   0  0  0  0  0  0  0  0  0  0  0  0
    3.1713  -10.1816   17.6634 C   0  0  0  0  0  0  0  0  0  0  0  0
    2.7878   -8.3822   16.2137 C   0  0  0  0  0  0  0  0  0  0  0  0
    9.4601   -2.6590   25.6528 C   0  0  0  0  0  0  0  0  0  0  0  0
   10.1182   -1.5672   23.1165 C   0  0  0  0  0  0  0  0  0  0  0  0
    1.0552   -9.6360   17.0650 C   0  0  0  0  0  0  0  0  0  0  0  0
    3.6519   -9.1783   16.9039 C   0  0  0  0  0  0  0  0  0  0  0  0
    7.8675   -7.0096   15.9415 C   0  0  0  0  0  0  0  0  0  0  0  0
    5.9733   -9.6553   17.3832 N   0  0  0  0  0  0  0  0  0  0  0  0
   10.2411   -2.9363   23.4301 C   0  0  0  0  0  0  0  0  0  0  0  0
   10.7288   -3.8197   19.9525 C   0  0  0  0  0  0  0  0  0  0  0  0
   10.1189   -5.0054   19.6987 C   0  0  0  0  0  0  0  0  0  0  0  0
  1  3  4  0
  1  7  4  0
  2 21  4  0
  2 27  4  0
  3  9  4  0
  3 10  4  0
  4  8  4  0
  4 18  4  0
  4 25  1  0
  5  9  4  0
  5 12  4  0
  6 13  1  0
  6 27  1  0
  7 28  4  0
  8 11  4  0
  9 29  4  0
 10 12  4  0
 11 24  1  0
 11 26  4  0
 12 25  1  0
 13 28  1  0
 14 20  4  0
 14 23  4  0
 15 17  4  0
 15 21  4  0
 16 19  4  0
 16 23  4  0
 17 22  4  0
 18 26  4  0
 19 24  4  0
 20 24  4  0
 22 27  4  0
 28 29  4  0
M  END
$$$$

 Created by Python create_sdf_string function

 29 33  0  0  0  0  0  0  0  0999 V2000
   10.7215   -3.3326   17.6437 C   0  0  0  0  0  0  0  0  0  0  0  0
    9.9489   -3.4675   24.6487 N   0  0  0  0  0  0  0  0  0  0  0  0
   10.0172   -4.4740   17.4101 C   0  0  0  0  0  0  0  0  0  0  0  0
    6.9051   -7.9575   16.4222 C   0  0  0  0  0  0  0  0  0  0  0  0
    8.9969   -6.3552   17.9668 N   0  0  0  0  0  0  0  0  0  0  0  0
   10.6702   -3.9051   22.4070 C   0  0  0  0  0  0  0  0  0  0  0  0
   11.0625   -3.0028   18.8894 C   0  0  0  0  0  0  0  0  0  0  0  0
    5.6180   -7.9194   16.1754 O   0  0  0  0  0  0  0  0  0  0  0  0
    9.7259   -5.3080   18.4485 C   0  0  0  0  0  0  0  0  0  0  0  0
    9.4578   -5.0200   16.3036 N   0  0  0  0  0  0  0  0  0  0  0  0
    5.0287   -8.9365   16.8223 C   0  0  0  0  0  0  0  0  0  0  0  0
    8.7742   -6.1498   16.6764 C   0  0  0  0  0  0  0  0  0  0  0  0
   10.9418   -3.4032   21.2053 O   0  0  0  0  0  0  0  0  0  0  0  0
    1.4797   -8.6258   16.2950 C   0  0  0  0  0  0  0  0  0  0  0  0
    9.2861   -1.2743   25.3585 C   0  0  0  0  0  0  0  0  0  0  0  0
    1.8892  -10.3985   17.7511 N   0  0  0  0  0  0  0  0  0  0  0  0
    9.6210   -0.6952   24.0976 C   0  0  0  0  0  0  0  0  0  0  0  0
    7.0792   -9.0217   17.1429 C   0  0  0  0  0  0  0  0  0  0  0  0
    3.1713  -10.1816   17.6634 C   0  0  0  0  0  0  0  0  0  0  0  0
    2.7878   -8.3822   16.2137 C   0  0  0  0  0  0  0  0  0  0  0  0
    9.4601   -2.6590   25.6528 C   0  0  0  0  0  0  0  0  0  0  0  0
   10.1182   -1.5672   23.1165 C   0  0  0  0  0  0  0  0  0  0  0  0
    1.0552   -9.6360   17.0650 C   0  0  0  0  0  0  0  0  0  0  0  0
    3.6519   -9.1783   16.9039 C   0  0  0  0  0  0  0  0  0  0  0  0
    7.8675   -7.0096   15.9415 C   0  0  0  0  0  0  0  0  0  0  0  0
    5.9733   -9.6553   17.3832 N   0  0  0  0  0  0  0  0  0  0  0  0
   10.2411   -2.9363   23.4301 C   0  0  0  0  0  0  0  0  0  0  0  0
   10.7288   -3.8197   19.9525 C   0  0  0  0  0  0  0  0  0  0  0  0
   10.1189   -5.0054   19.6987 C   0  0  0  0  0  0  0  0  0  0  0  0
  1  3  4  0
  1  7  4  0
  2 21  4  0
  2 27  4  0
  3  9  4  0
  3 10  4  0
  4  8  4  0
  4 18  4  0
  4 25  1  0
  5  9  4  0
  5 12  4  0
  6 13  1  0
  6 27  1  0
  7 28  4  0
  8 11  4  0
  9 29  4  0
 10 12  4  0
 11 24  1  0
 11 26  4  0
 12 25  1  0
 13 28  1  0
 14 20  4  0
 14 23  4  0
 15 17  4  0
 15 21  4  0
 16 19  4  0
 16 23  4  0
 17 22  4  0
 18 26  4  0
 19 24  4  0
 20 24  4  0
 22 27  4  0
 28 29  4  0
M  END
$$$$

 Created by Python create_sdf_string function

 29 33  0  0  0  0  0  0  0  0999 V2000
   10.7215   -3.3326   17.6437 C   0  0  0  0  0  0  0  0  0  0  0  0
    9.9489   -3.4675   24.6487 N   0  0  0  0  0  0  0  0  0  0  0  0
   10.0172   -4.4740   17.4101 C   0  0  0  0  0  0  0  0  0  0  0  0
    6.9051   -7.9575   16.4222 C   0  0  0  0  0  0  0  0  0  0  0  0
    8.9969   -6.3552   17.9668 N   0  0  0  0  0  0  0  0  0  0  0  0
   10.6702   -3.9051   22.4070 C   0  0  0  0  0  0  0  0  0  0  0  0
   11.0625   -3.0028   18.8894 C   0  0  0  0  0  0  0  0  0  0  0  0
    5.6180   -7.9194   16.1754 O   0  0  0  0  0  0  0  0  0  0  0  0
    9.7259   -5.3080   18.4485 C   0  0  0  0  0  0  0  0  0  0  0  0
    9.4578   -5.0200   16.3036 N   0  0  0  0  0  0  0  0  0  0  0  0
    5.0287   -8.9365   16.8223 C   0  0  0  0  0  0  0  0  0  0  0  0
    8.7742   -6.1498   16.6764 C   0  0  0  0  0  0  0  0  0  0  0  0
   10.9418   -3.4032   21.2053 O   0  0  0  0  0  0  0  0  0  0  0  0
    1.4797   -8.6258   16.2950 C   0  0  0  0  0  0  0  0  0  0  0  0
    9.2861   -1.2743   25.3585 C   0  0  0  0  0  0  0  0  0  0  0  0
    1.8892  -10.3985   17.7511 N   0  0  0  0  0  0  0  0  0  0  0  0
    9.6210   -0.6952   24.0976 C   0  0  0  0  0  0  0  0  0  0  0  0
    7.0792   -9.0217   17.1429 C   0  0  0  0  0  0  0  0  0  0  0  0
    3.1713  -10.1816   17.6634 C   0  0  0  0  0  0  0  0  0  0  0  0
    2.7878   -8.3822   16.2137 C   0  0  0  0  0  0  0  0  0  0  0  0
    9.4601   -2.6590   25.6528 C   0  0  0  0  0  0  0  0  0  0  0  0
   10.1182   -1.5672   23.1165 C   0  0  0  0  0  0  0  0  0  0  0  0
    1.0552   -9.6360   17.0650 C   0  0  0  0  0  0  0  0  0  0  0  0
    3.6519   -9.1783   16.9039 C   0  0  0  0  0  0  0  0  0  0  0  0
    7.8675   -7.0096   15.9415 C   0  0  0  0  0  0  0  0  0  0  0  0
    5.9733   -9.6553   17.3832 N   0  0  0  0  0  0  0  0  0  0  0  0
   10.2411   -2.9363   23.4301 C   0  0  0  0  0  0  0  0  0  0  0  0
   10.7288   -3.8197   19.9525 C   0  0  0  0  0  0  0  0  0  0  0  0
   10.1189   -5.0054   19.6987 C   0  0  0  0  0  0  0  0  0  0  0  0
  1  3  4  0
  1  7  4  0
  2 21  4  0
  2 27  4  0
  3  9  4  0
  3 10  4  0
  4  8  4  0
  4 18  4  0
  4 25  1  0
  5  9  4  0
  5 12  4  0
  6 13  1  0
  6 27  1  0
  7 28  4  0
  8 11  4  0
  9 29  4  0
 10 12  4  0
 11 24  1  0
 11 26  4  0
 12 25  1  0
 13 28  1  0
 14 20  4  0
 14 23  4  0
 15 17  4  0
 15 21  4  0
 16 19  4  0
 16 23  4  0
 17 22  4  0
 18 26  4  0
 19 24  4  0
 20 24  4  0
 22 27  4  0
 28 29  4  0
M  END
$$$$

 Created by Python create_sdf_string function

 29 33  0  0  0  0  0  0  0  0999 V2000
   10.7215   -3.3326   17.6437 C   0  0  0  0  0  0  0  0  0  0  0  0
    9.9489   -3.4675   24.6487 N   0  0  0  0  0  0  0  0  0  0  0  0
   10.0172   -4.4740   17.4101 C   0  0  0  0  0  0  0  0  0  0  0  0
    6.9051   -7.9575   16.4222 C   0  0  0  0  0  0  0  0  0  0  0  0
    8.9969   -6.3552   17.9668 N   0  0  0  0  0  0  0  0  0  0  0  0
   10.6702   -3.9051   22.4070 C   0  0  0  0  0  0  0  0  0  0  0  0
   11.0625   -3.0028   18.8894 C   0  0  0  0  0  0  0  0  0  0  0  0
    5.6180   -7.9194   16.1754 O   0  0  0  0  0  0  0  0  0  0  0  0
    9.7259   -5.3080   18.4485 C   0  0  0  0  0  0  0  0  0  0  0  0
    9.4578   -5.0200   16.3036 N   0  0  0  0  0  0  0  0  0  0  0  0
    5.0287   -8.9365   16.8223 C   0  0  0  0  0  0  0  0  0  0  0  0
    8.7742   -6.1498   16.6764 C   0  0  0  0  0  0  0  0  0  0  0  0
   10.9418   -3.4032   21.2053 O   0  0  0  0  0  0  0  0  0  0  0  0
    1.4797   -8.6258   16.2950 C   0  0  0  0  0  0  0  0  0  0  0  0
    9.2861   -1.2743   25.3585 C   0  0  0  0  0  0  0  0  0  0  0  0
    1.8892  -10.3985   17.7511 N   0  0  0  0  0  0  0  0  0  0  0  0
    9.6210   -0.6952   24.0976 C   0  0  0  0  0  0  0  0  0  0  0  0
    7.0792   -9.0217   17.1429 C   0  0  0  0  0  0  0  0  0  0  0  0
    3.1713  -10.1816   17.6634 C   0  0  0  0  0  0  0  0  0  0  0  0
    2.7878   -8.3822   16.2137 C   0  0  0  0  0  0  0  0  0  0  0  0
    9.4601   -2.6590   25.6528 C   0  0  0  0  0  0  0  0  0  0  0  0
   10.1182   -1.5672   23.1165 C   0  0  0  0  0  0  0  0  0  0  0  0
    1.0552   -9.6360   17.0650 C   0  0  0  0  0  0  0  0  0  0  0  0
    3.6519   -9.1783   16.9039 C   0  0  0  0  0  0  0  0  0  0  0  0
    7.8675   -7.0096   15.9415 C   0  0  0  0  0  0  0  0  0  0  0  0
    5.9733   -9.6553   17.3832 N   0  0  0  0  0  0  0  0  0  0  0  0
   10.2411   -2.9363   23.4301 C   0  0  0  0  0  0  0  0  0  0  0  0
   10.7288   -3.8197   19.9525 C   0  0  0  0  0  0  0  0  0  0  0  0
   10.1189   -5.0054   19.6987 C   0  0  0  0  0  0  0  0  0  0  0  0
  1  3  4  0
  1  7  4  0
  2 21  4  0
  2 27  4  0
  3  9  4  0
  3 10  4  0
  4  8  4  0
  4 18  4  0
  4 25  1  0
  5  9  4  0
  5 12  4  0
  6 13  1  0
  6 27  1  0
  7 28  4  0
  8 11  4  0
  9 29  4  0
 10 12  4  0
 11 24  1  0
 11 26  4  0
 12 25  1  0
 13 28  1  0
 14 20  4  0
 14 23  4  0
 15 17  4  0
 15 21  4  0
 16 19  4  0
 16 23  4  0
 17 22  4  0
 18 26  4  0
 19 24  4  0
 20 24  4  0
 22 27  4  0
 28 29  4  0
M  END
$$$$

 Created by Python create_sdf_string function

 29 33  0  0  0  0  0  0  0  0999 V2000
   10.7215   -3.3326   17.6437 C   0  0  0  0  0  0  0  0  0  0  0  0
    9.9489   -3.4675   24.6487 N   0  0  0  0  0  0  0  0  0  0  0  0
   10.0172   -4.4740   17.4101 C   0  0  0  0  0  0  0  0  0  0  0  0
    6.9051   -7.9575   16.4222 C   0  0  0  0  0  0  0  0  0  0  0  0
    8.9969   -6.3552   17.9668 N   0  0  0  0  0  0  0  0  0  0  0  0
   10.6702   -3.9051   22.4070 C   0  0  0  0  0  0  0  0  0  0  0  0
   11.0625   -3.0028   18.8894 C   0  0  0  0  0  0  0  0  0  0  0  0
    5.6180   -7.9194   16.1754 O   0  0  0  0  0  0  0  0  0  0  0  0
    9.7259   -5.3080   18.4485 C   0  0  0  0  0  0  0  0  0  0  0  0
    9.4578   -5.0200   16.3036 N   0  0  0  0  0  0  0  0  0  0  0  0
    5.0287   -8.9365   16.8223 C   0  0  0  0  0  0  0  0  0  0  0  0
    8.7742   -6.1498   16.6764 C   0  0  0  0  0  0  0  0  0  0  0  0
   10.9418   -3.4032   21.2053 O   0  0  0  0  0  0  0  0  0  0  0  0
    1.4797   -8.6258   16.2950 C   0  0  0  0  0  0  0  0  0  0  0  0
    9.2861   -1.2743   25.3585 C   0  0  0  0  0  0  0  0  0  0  0  0
    1.8892  -10.3985   17.7511 N   0  0  0  0  0  0  0  0  0  0  0  0
    9.6210   -0.6952   24.0976 C   0  0  0  0  0  0  0  0  0  0  0  0
    7.0792   -9.0217   17.1429 C   0  0  0  0  0  0  0  0  0  0  0  0
    3.1713  -10.1816   17.6634 C   0  0  0  0  0  0  0  0  0  0  0  0
    2.7878   -8.3822   16.2137 C   0  0  0  0  0  0  0  0  0  0  0  0
    9.4601   -2.6590   25.6528 C   0  0  0  0  0  0  0  0  0  0  0  0
   10.1182   -1.5672   23.1165 C   0  0  0  0  0  0  0  0  0  0  0  0
    1.0552   -9.6360   17.0650 C   0  0  0  0  0  0  0  0  0  0  0  0
    3.6519   -9.1783   16.9039 C   0  0  0  0  0  0  0  0  0  0  0  0
    7.8675   -7.0096   15.9415 C   0  0  0  0  0  0  0  0  0  0  0  0
    5.9733   -9.6553   17.3832 N   0  0  0  0  0  0  0  0  0  0  0  0
   10.2411   -2.9363   23.4301 C   0  0  0  0  0  0  0  0  0  0  0  0
   10.7288   -3.8197   19.9525 C   0  0  0  0  0  0  0  0  0  0  0  0
   10.1189   -5.0054   19.6987 C   0  0  0  0  0  0  0  0  0  0  0  0
  1  3  4  0
  1  7  4  0
  2 21  4  0
  2 27  4  0
  3  9  4  0
  3 10  4  0
  4  8  4  0
  4 18  4  0
  4 25  1  0
  5  9  4  0
  5 12  4  0
  6 13  1  0
  6 27  1  0
  7 28  4  0
  8 11  4  0
  9 29  4  0
 10 12  4  0
 11 24  1  0
 11 26  4  0
 12 25  1  0
 13 28  1  0
 14 20  4  0
 14 23  4  0
 15 17  4  0
 15 21  4  0
 16 19  4  0
 16 23  4  0
 17 22  4  0
 18 26  4  0
 19 24  4  0
 20 24  4  0
 22 27  4  0
 28 29  4  0
M  END
$$$$

 Created by Python create_sdf_string function

 29 33  0  0  0  0  0  0  0  0999 V2000
   10.7215   -3.3326   17.6437 C   0  0  0  0  0  0  0  0  0  0  0  0
    9.9489   -3.4675   24.6487 N   0  0  0  0  0  0  0  0  0  0  0  0
   10.0172   -4.4740   17.4101 C   0  0  0  0  0  0  0  0  0  0  0  0
    6.9051   -7.9575   16.4222 C   0  0  0  0  0  0  0  0  0  0  0  0
    8.9969   -6.3552   17.9668 N   0  0  0  0  0  0  0  0  0  0  0  0
   10.6702   -3.9051   22.4070 C   0  0  0  0  0  0  0  0  0  0  0  0
   11.0625   -3.0028   18.8894 C   0  0  0  0  0  0  0  0  0  0  0  0
    5.6180   -7.9194   16.1754 O   0  0  0  0  0  0  0  0  0  0  0  0
    9.7259   -5.3080   18.4485 C   0  0  0  0  0  0  0  0  0  0  0  0
    9.4578   -5.0200   16.3036 N   0  0  0  0  0  0  0  0  0  0  0  0
    5.0287   -8.9365   16.8223 C   0  0  0  0  0  0  0  0  0  0  0  0
    8.7742   -6.1498   16.6764 C   0  0  0  0  0  0  0  0  0  0  0  0
   10.9418   -3.4032   21.2053 O   0  0  0  0  0  0  0  0  0  0  0  0
    1.4797   -8.6258   16.2950 C   0  0  0  0  0  0  0  0  0  0  0  0
    9.2861   -1.2743   25.3585 C   0  0  0  0  0  0  0  0  0  0  0  0
    1.8892  -10.3985   17.7511 N   0  0  0  0  0  0  0  0  0  0  0  0
    9.6210   -0.6952   24.0976 C   0  0  0  0  0  0  0  0  0  0  0  0
    7.0792   -9.0217   17.1429 C   0  0  0  0  0  0  0  0  0  0  0  0
    3.1713  -10.1816   17.6634 C   0  0  0  0  0  0  0  0  0  0  0  0
    2.7878   -8.3822   16.2137 C   0  0  0  0  0  0  0  0  0  0  0  0
    9.4601   -2.6590   25.6528 C   0  0  0  0  0  0  0  0  0  0  0  0
   10.1182   -1.5672   23.1165 C   0  0  0  0  0  0  0  0  0  0  0  0
    1.0552   -9.6360   17.0650 C   0  0  0  0  0  0  0  0  0  0  0  0
    3.6519   -9.1783   16.9039 C   0  0  0  0  0  0  0  0  0  0  0  0
    7.8675   -7.0096   15.9415 C   0  0  0  0  0  0  0  0  0  0  0  0
    5.9733   -9.6553   17.3832 N   0  0  0  0  0  0  0  0  0  0  0  0
   10.2411   -2.9363   23.4301 C   0  0  0  0  0  0  0  0  0  0  0  0
   10.7288   -3.8197   19.9525 C   0  0  0  0  0  0  0  0  0  0  0  0
   10.1189   -5.0054   19.6987 C   0  0  0  0  0  0  0  0  0  0  0  0
  1  3  4  0
  1  7  4  0
  2 21  4  0
  2 27  4  0
  3  9  4  0
  3 10  4  0
  4  8  4  0
  4 18  4  0
  4 25  1  0
  5  9  4  0
  5 12  4  0
  6 13  1  0
  6 27  1  0
  7 28  4  0
  8 11  4  0
  9 29  4  0
 10 12  4  0
 11 24  1  0
 11 26  4  0
 12 25  1  0
 13 28  1  0
 14 20  4  0
 14 23  4  0
 15 17  4  0
 15 21  4  0
 16 19  4  0
 16 23  4  0
 17 22  4  0
 18 26  4  0
 19 24  4  0
 20 24  4  0
 22 27  4  0
 28 29  4  0
M  END
$$$$

 Created by Python create_sdf_string function

 29 33  0  0  0  0  0  0  0  0999 V2000
   10.7215   -3.3326   17.6437 C   0  0  0  0  0  0  0  0  0  0  0  0
    9.9489   -3.4675   24.6487 N   0  0  0  0  0  0  0  0  0  0  0  0
   10.0172   -4.4740   17.4101 C   0  0  0  0  0  0  0  0  0  0  0  0
    6.9051   -7.9575   16.4222 C   0  0  0  0  0  0  0  0  0  0  0  0
    8.9969   -6.3552   17.9668 N   0  0  0  0  0  0  0  0  0  0  0  0
   10.6702   -3.9051   22.4070 C   0  0  0  0  0  0  0  0  0  0  0  0
   11.0625   -3.0028   18.8894 C   0  0  0  0  0  0  0  0  0  0  0  0
    5.6180   -7.9194   16.1754 O   0  0  0  0  0  0  0  0  0  0  0  0
    9.7259   -5.3080   18.4485 C   0  0  0  0  0  0  0  0  0  0  0  0
    9.4578   -5.0200   16.3036 N   0  0  0  0  0  0  0  0  0  0  0  0
    5.0287   -8.9365   16.8223 C   0  0  0  0  0  0  0  0  0  0  0  0
    8.7742   -6.1498   16.6764 C   0  0  0  0  0  0  0  0  0  0  0  0
   10.9418   -3.4032   21.2053 O   0  0  0  0  0  0  0  0  0  0  0  0
    1.4797   -8.6258   16.2950 C   0  0  0  0  0  0  0  0  0  0  0  0
    9.2861   -1.2743   25.3585 C   0  0  0  0  0  0  0  0  0  0  0  0
    1.8892  -10.3985   17.7511 N   0  0  0  0  0  0  0  0  0  0  0  0
    9.6210   -0.6952   24.0976 C   0  0  0  0  0  0  0  0  0  0  0  0
    7.0792   -9.0217   17.1429 C   0  0  0  0  0  0  0  0  0  0  0  0
    3.1713  -10.1816   17.6634 C   0  0  0  0  0  0  0  0  0  0  0  0
    2.7878   -8.3822   16.2137 C   0  0  0  0  0  0  0  0  0  0  0  0
    9.4601   -2.6590   25.6528 C   0  0  0  0  0  0  0  0  0  0  0  0
   10.1182   -1.5672   23.1165 C   0  0  0  0  0  0  0  0  0  0  0  0
    1.0552   -9.6360   17.0650 C   0  0  0  0  0  0  0  0  0  0  0  0
    3.6519   -9.1783   16.9039 C   0  0  0  0  0  0  0  0  0  0  0  0
    7.8675   -7.0096   15.9415 C   0  0  0  0  0  0  0  0  0  0  0  0
    5.9733   -9.6553   17.3832 N   0  0  0  0  0  0  0  0  0  0  0  0
   10.2411   -2.9363   23.4301 C   0  0  0  0  0  0  0  0  0  0  0  0
   10.7288   -3.8197   19.9525 C   0  0  0  0  0  0  0  0  0  0  0  0
   10.1189   -5.0054   19.6987 C   0  0  0  0  0  0  0  0  0  0  0  0
  1  3  4  0
  1  7  4  0
  2 21  4  0
  2 27  4  0
  3  9  4  0
  3 10  4  0
  4  8  4  0
  4 18  4  0
  4 25  1  0
  5  9  4  0
  5 12  4  0
  6 13  1  0
  6 27  1  0
  7 28  4  0
  8 11  4  0
  9 29  4  0
 10 12  4  0
 11 24  1  0
 11 26  4  0
 12 25  1  0
 13 28  1  0
 14 20  4  0
 14 23  4  0
 15 17  4  0
 15 21  4  0
 16 19  4  0
 16 23  4  0
 17 22  4  0
 18 26  4  0
 19 24  4  0
 20 24  4  0
 22 27  4  0
 28 29  4  0
M  END
$$$$

 Created by Python create_sdf_string function

 29 33  0  0  0  0  0  0  0  0999 V2000
   10.7215   -3.3326   17.6437 C   0  0  0  0  0  0  0  0  0  0  0  0
    9.9489   -3.4675   24.6487 N   0  0  0  0  0  0  0  0  0  0  0  0
   10.0172   -4.4740   17.4101 C   0  0  0  0  0  0  0  0  0  0  0  0
    6.9051   -7.9575   16.4222 C   0  0  0  0  0  0  0  0  0  0  0  0
    8.9969   -6.3552   17.9668 N   0  0  0  0  0  0  0  0  0  0  0  0
   10.6702   -3.9051   22.4070 C   0  0  0  0  0  0  0  0  0  0  0  0
   11.0625   -3.0028   18.8894 C   0  0  0  0  0  0  0  0  0  0  0  0
    5.6180   -7.9194   16.1754 O   0  0  0  0  0  0  0  0  0  0  0  0
    9.7259   -5.3080   18.4485 C   0  0  0  0  0  0  0  0  0  0  0  0
    9.4578   -5.0200   16.3036 N   0  0  0  0  0  0  0  0  0  0  0  0
    5.0287   -8.9365   16.8223 C   0  0  0  0  0  0  0  0  0  0  0  0
    8.7742   -6.1498   16.6764 C   0  0  0  0  0  0  0  0  0  0  0  0
   10.9418   -3.4032   21.2053 O   0  0  0  0  0  0  0  0  0  0  0  0
    1.4797   -8.6258   16.2950 C   0  0  0  0  0  0  0  0  0  0  0  0
    9.2861   -1.2743   25.3585 C   0  0  0  0  0  0  0  0  0  0  0  0
    1.8892  -10.3985   17.7511 N   0  0  0  0  0  0  0  0  0  0  0  0
    9.6210   -0.6952   24.0976 C   0  0  0  0  0  0  0  0  0  0  0  0
    7.0792   -9.0217   17.1429 C   0  0  0  0  0  0  0  0  0  0  0  0
    3.1713  -10.1816   17.6634 C   0  0  0  0  0  0  0  0  0  0  0  0
    2.7878   -8.3822   16.2137 C   0  0  0  0  0  0  0  0  0  0  0  0
    9.4601   -2.6590   25.6528 C   0  0  0  0  0  0  0  0  0  0  0  0
   10.1182   -1.5672   23.1165 C   0  0  0  0  0  0  0  0  0  0  0  0
    1.0552   -9.6360   17.0650 C   0  0  0  0  0  0  0  0  0  0  0  0
    3.6519   -9.1783   16.9039 C   0  0  0  0  0  0  0  0  0  0  0  0
    7.8675   -7.0096   15.9415 C   0  0  0  0  0  0  0  0  0  0  0  0
    5.9733   -9.6553   17.3832 N   0  0  0  0  0  0  0  0  0  0  0  0
   10.2411   -2.9363   23.4301 C   0  0  0  0  0  0  0  0  0  0  0  0
   10.7288   -3.8197   19.9525 C   0  0  0  0  0  0  0  0  0  0  0  0
   10.1189   -5.0054   19.6987 C   0  0  0  0  0  0  0  0  0  0  0  0
  1  3  4  0
  1  7  4  0
  2 21  4  0
  2 27  4  0
  3  9  4  0
  3 10  4  0
  4  8  4  0
  4 18  4  0
  4 25  1  0
  5  9  4  0
  5 12  4  0
  6 13  1  0
  6 27  1  0
  7 28  4  0
  8 11  4  0
  9 29  4  0
 10 12  4  0
 11 24  1  0
 11 26  4  0
 12 25  1  0
 13 28  1  0
 14 20  4  0
 14 23  4  0
 15 17  4  0
 15 21  4  0
 16 19  4  0
 16 23  4  0
 17 22  4  0
 18 26  4  0
 19 24  4  0
 20 24  4  0
 22 27  4  0
 28 29  4  0
M  END
$$$$

 Created by Python create_sdf_string function

 29 33  0  0  0  0  0  0  0  0999 V2000
   10.7215   -3.3326   17.6437 C   0  0  0  0  0  0  0  0  0  0  0  0
    9.9489   -3.4675   24.6487 N   0  0  0  0  0  0  0  0  0  0  0  0
   10.0172   -4.4740   17.4101 C   0  0  0  0  0  0  0  0  0  0  0  0
    6.9051   -7.9575   16.4222 C   0  0  0  0  0  0  0  0  0  0  0  0
    8.9969   -6.3552   17.9668 N   0  0  0  0  0  0  0  0  0  0  0  0
   10.6702   -3.9051   22.4070 C   0  0  0  0  0  0  0  0  0  0  0  0
   11.0625   -3.0028   18.8894 C   0  0  0  0  0  0  0  0  0  0  0  0
    5.6180   -7.9194   16.1754 O   0  0  0  0  0  0  0  0  0  0  0  0
    9.7259   -5.3080   18.4485 C   0  0  0  0  0  0  0  0  0  0  0  0
    9.4578   -5.0200   16.3036 N   0  0  0  0  0  0  0  0  0  0  0  0
    5.0287   -8.9365   16.8223 C   0  0  0  0  0  0  0  0  0  0  0  0
    8.7742   -6.1498   16.6764 C   0  0  0  0  0  0  0  0  0  0  0  0
   10.9418   -3.4032   21.2053 O   0  0  0  0  0  0  0  0  0  0  0  0
    1.4797   -8.6258   16.2950 C   0  0  0  0  0  0  0  0  0  0  0  0
    9.2861   -1.2743   25.3585 C   0  0  0  0  0  0  0  0  0  0  0  0
    1.8892  -10.3985   17.7511 N   0  0  0  0  0  0  0  0  0  0  0  0
    9.6210   -0.6952   24.0976 C   0  0  0  0  0  0  0  0  0  0  0  0
    7.0792   -9.0217   17.1429 C   0  0  0  0  0  0  0  0  0  0  0  0
    3.1713  -10.1816   17.6634 C   0  0  0  0  0  0  0  0  0  0  0  0
    2.7878   -8.3822   16.2137 C   0  0  0  0  0  0  0  0  0  0  0  0
    9.4601   -2.6590   25.6528 C   0  0  0  0  0  0  0  0  0  0  0  0
   10.1182   -1.5672   23.1165 C   0  0  0  0  0  0  0  0  0  0  0  0
    1.0552   -9.6360   17.0650 C   0  0  0  0  0  0  0  0  0  0  0  0
    3.6519   -9.1783   16.9039 C   0  0  0  0  0  0  0  0  0  0  0  0
    7.8675   -7.0096   15.9415 C   0  0  0  0  0  0  0  0  0  0  0  0
    5.9733   -9.6553   17.3832 N   0  0  0  0  0  0  0  0  0  0  0  0
   10.2411   -2.9363   23.4301 C   0  0  0  0  0  0  0  0  0  0  0  0
   10.7288   -3.8197   19.9525 C   0  0  0  0  0  0  0  0  0  0  0  0
   10.1189   -5.0054   19.6987 C   0  0  0  0  0  0  0  0  0  0  0  0
  1  3  4  0
  1  7  4  0
  2 21  4  0
  2 27  4  0
  3  9  4  0
  3 10  4  0
  4  8  4  0
  4 18  4  0
  4 25  1  0
  5  9  4  0
  5 12  4  0
  6 13  1  0
  6 27  1  0
  7 28  4  0
  8 11  4  0
  9 29  4  0
 10 12  4  0
 11 24  1  0
 11 26  4  0
 12 25  1  0
 13 28  1  0
 14 20  4  0
 14 23  4  0
 15 17  4  0
 15 21  4  0
 16 19  4  0
 16 23  4  0
 17 22  4  0
 18 26  4  0
 19 24  4  0
 20 24  4  0
 22 27  4  0
 28 29  4  0
M  END
$$$$

 Created by Python create_sdf_string function

 29 33  0  0  0  0  0  0  0  0999 V2000
   10.7215   -3.3326   17.6437 C   0  0  0  0  0  0  0  0  0  0  0  0
    9.9489   -3.4675   24.6487 N   0  0  0  0  0  0  0  0  0  0  0  0
   10.0172   -4.4740   17.4101 C   0  0  0  0  0  0  0  0  0  0  0  0
    6.9051   -7.9575   16.4222 C   0  0  0  0  0  0  0  0  0  0  0  0
    8.9969   -6.3552   17.9668 N   0  0  0  0  0  0  0  0  0  0  0  0
   10.6702   -3.9051   22.4070 C   0  0  0  0  0  0  0  0  0  0  0  0
   11.0625   -3.0028   18.8894 C   0  0  0  0  0  0  0  0  0  0  0  0
    5.6180   -7.9194   16.1754 O   0  0  0  0  0  0  0  0  0  0  0  0
    9.7259   -5.3080   18.4485 C   0  0  0  0  0  0  0  0  0  0  0  0
    9.4578   -5.0200   16.3036 N   0  0  0  0  0  0  0  0  0  0  0  0
    5.0287   -8.9365   16.8223 C   0  0  0  0  0  0  0  0  0  0  0  0
    8.7742   -6.1498   16.6764 C   0  0  0  0  0  0  0  0  0  0  0  0
   10.9418   -3.4032   21.2053 O   0  0  0  0  0  0  0  0  0  0  0  0
    1.4797   -8.6258   16.2950 C   0  0  0  0  0  0  0  0  0  0  0  0
    9.2861   -1.2743   25.3585 C   0  0  0  0  0  0  0  0  0  0  0  0
    1.8892  -10.3985   17.7511 N   0  0  0  0  0  0  0  0  0  0  0  0
    9.6210   -0.6952   24.0976 C   0  0  0  0  0  0  0  0  0  0  0  0
    7.0792   -9.0217   17.1429 C   0  0  0  0  0  0  0  0  0  0  0  0
    3.1713  -10.1816   17.6634 C   0  0  0  0  0  0  0  0  0  0  0  0
    2.7878   -8.3822   16.2137 C   0  0  0  0  0  0  0  0  0  0  0  0
    9.4601   -2.6590   25.6528 C   0  0  0  0  0  0  0  0  0  0  0  0
   10.1182   -1.5672   23.1165 C   0  0  0  0  0  0  0  0  0  0  0  0
    1.0552   -9.6360   17.0650 C   0  0  0  0  0  0  0  0  0  0  0  0
    3.6519   -9.1783   16.9039 C   0  0  0  0  0  0  0  0  0  0  0  0
    7.8675   -7.0096   15.9415 C   0  0  0  0  0  0  0  0  0  0  0  0
    5.9733   -9.6553   17.3832 N   0  0  0  0  0  0  0  0  0  0  0  0
   10.2411   -2.9363   23.4301 C   0  0  0  0  0  0  0  0  0  0  0  0
   10.7288   -3.8197   19.9525 C   0  0  0  0  0  0  0  0  0  0  0  0
   10.1189   -5.0054   19.6987 C   0  0  0  0  0  0  0  0  0  0  0  0
  1  3  4  0
  1  7  4  0
  2 21  4  0
  2 27  4  0
  3  9  4  0
  3 10  4  0
  4  8  4  0
  4 18  4  0
  4 25  1  0
  5  9  4  0
  5 12  4  0
  6 13  1  0
  6 27  1  0
  7 28  4  0
  8 11  4  0
  9 29  4  0
 10 12  4  0
 11 24  1  0
 11 26  4  0
 12 25  1  0
 13 28  1  0
 14 20  4  0
 14 23  4  0
 15 17  4  0
 15 21  4  0
 16 19  4  0
 16 23  4  0
 17 22  4  0
 18 26  4  0
 19 24  4  0
 20 24  4  0
 22 27  4  0
 28 29  4  0
M  END
$$$$

 Created by Python create_sdf_string function

 29 33  0  0  0  0  0  0  0  0999 V2000
   10.7215   -3.3326   17.6437 C   0  0  0  0  0  0  0  0  0  0  0  0
    9.9489   -3.4675   24.6487 N   0  0  0  0  0  0  0  0  0  0  0  0
   10.0172   -4.4740   17.4101 C   0  0  0  0  0  0  0  0  0  0  0  0
    6.9051   -7.9575   16.4222 C   0  0  0  0  0  0  0  0  0  0  0  0
    8.9969   -6.3552   17.9668 N   0  0  0  0  0  0  0  0  0  0  0  0
   10.6702   -3.9051   22.4070 C   0  0  0  0  0  0  0  0  0  0  0  0
   11.0625   -3.0028   18.8894 C   0  0  0  0  0  0  0  0  0  0  0  0
    5.6180   -7.9194   16.1754 O   0  0  0  0  0  0  0  0  0  0  0  0
    9.7259   -5.3080   18.4485 C   0  0  0  0  0  0  0  0  0  0  0  0
    9.4578   -5.0200   16.3036 N   0  0  0  0  0  0  0  0  0  0  0  0
    5.0287   -8.9365   16.8223 C   0  0  0  0  0  0  0  0  0  0  0  0
    8.7742   -6.1498   16.6764 C   0  0  0  0  0  0  0  0  0  0  0  0
   10.9418   -3.4032   21.2053 O   0  0  0  0  0  0  0  0  0  0  0  0
    1.4797   -8.6258   16.2950 C   0  0  0  0  0  0  0  0  0  0  0  0
    9.2861   -1.2743   25.3585 C   0  0  0  0  0  0  0  0  0  0  0  0
    1.8892  -10.3985   17.7511 N   0  0  0  0  0  0  0  0  0  0  0  0
    9.6210   -0.6952   24.0976 C   0  0  0  0  0  0  0  0  0  0  0  0
    7.0792   -9.0217   17.1429 C   0  0  0  0  0  0  0  0  0  0  0  0
    3.1713  -10.1816   17.6634 C   0  0  0  0  0  0  0  0  0  0  0  0
    2.7878   -8.3822   16.2137 C   0  0  0  0  0  0  0  0  0  0  0  0
    9.4601   -2.6590   25.6528 C   0  0  0  0  0  0  0  0  0  0  0  0
   10.1182   -1.5672   23.1165 C   0  0  0  0  0  0  0  0  0  0  0  0
    1.0552   -9.6360   17.0650 C   0  0  0  0  0  0  0  0  0  0  0  0
    3.6519   -9.1783   16.9039 C   0  0  0  0  0  0  0  0  0  0  0  0
    7.8675   -7.0096   15.9415 C   0  0  0  0  0  0  0  0  0  0  0  0
    5.9733   -9.6553   17.3832 N   0  0  0  0  0  0  0  0  0  0  0  0
   10.2411   -2.9363   23.4301 C   0  0  0  0  0  0  0  0  0  0  0  0
   10.7288   -3.8197   19.9525 C   0  0  0  0  0  0  0  0  0  0  0  0
   10.1189   -5.0054   19.6987 C   0  0  0  0  0  0  0  0  0  0  0  0
  1  3  4  0
  1  7  4  0
  2 21  4  0
  2 27  4  0
  3  9  4  0
  3 10  4  0
  4  8  4  0
  4 18  4  0
  4 25  1  0
  5  9  4  0
  5 12  4  0
  6 13  1  0
  6 27  1  0
  7 28  4  0
  8 11  4  0
  9 29  4  0
 10 12  4  0
 11 24  1  0
 11 26  4  0
 12 25  1  0
 13 28  1  0
 14 20  4  0
 14 23  4  0
 15 17  4  0
 15 21  4  0
 16 19  4  0
 16 23  4  0
 17 22  4  0
 18 26  4  0
 19 24  4  0
 20 24  4  0
 22 27  4  0
 28 29  4  0
M  END
$$$$

 Created by Python create_sdf_string function

 29 33  0  0  0  0  0  0  0  0999 V2000
   10.7215   -3.3326   17.6437 C   0  0  0  0  0  0  0  0  0  0  0  0
    9.9489   -3.4675   24.6487 N   0  0  0  0  0  0  0  0  0  0  0  0
   10.0172   -4.4740   17.4101 C   0  0  0  0  0  0  0  0  0  0  0  0
    6.9051   -7.9575   16.4222 C   0  0  0  0  0  0  0  0  0  0  0  0
    8.9969   -6.3552   17.9668 N   0  0  0  0  0  0  0  0  0  0  0  0
   10.6702   -3.9051   22.4070 C   0  0  0  0  0  0  0  0  0  0  0  0
   11.0625   -3.0028   18.8894 C   0  0  0  0  0  0  0  0  0  0  0  0
    5.6180   -7.9194   16.1754 O   0  0  0  0  0  0  0  0  0  0  0  0
    9.7259   -5.3080   18.4485 C   0  0  0  0  0  0  0  0  0  0  0  0
    9.4578   -5.0200   16.3036 N   0  0  0  0  0  0  0  0  0  0  0  0
    5.0287   -8.9365   16.8223 C   0  0  0  0  0  0  0  0  0  0  0  0
    8.7742   -6.1498   16.6764 C   0  0  0  0  0  0  0  0  0  0  0  0
   10.9418   -3.4032   21.2053 O   0  0  0  0  0  0  0  0  0  0  0  0
    1.4797   -8.6258   16.2950 C   0  0  0  0  0  0  0  0  0  0  0  0
    9.2861   -1.2743   25.3585 C   0  0  0  0  0  0  0  0  0  0  0  0
    1.8892  -10.3985   17.7511 N   0  0  0  0  0  0  0  0  0  0  0  0
    9.6210   -0.6952   24.0976 C   0  0  0  0  0  0  0  0  0  0  0  0
    7.0792   -9.0217   17.1429 C   0  0  0  0  0  0  0  0  0  0  0  0
    3.1713  -10.1816   17.6634 C   0  0  0  0  0  0  0  0  0  0  0  0
    2.7878   -8.3822   16.2137 C   0  0  0  0  0  0  0  0  0  0  0  0
    9.4601   -2.6590   25.6528 C   0  0  0  0  0  0  0  0  0  0  0  0
   10.1182   -1.5672   23.1165 C   0  0  0  0  0  0  0  0  0  0  0  0
    1.0552   -9.6360   17.0650 C   0  0  0  0  0  0  0  0  0  0  0  0
    3.6519   -9.1783   16.9039 C   0  0  0  0  0  0  0  0  0  0  0  0
    7.8675   -7.0096   15.9415 C   0  0  0  0  0  0  0  0  0  0  0  0
    5.9733   -9.6553   17.3832 N   0  0  0  0  0  0  0  0  0  0  0  0
   10.2411   -2.9363   23.4301 C   0  0  0  0  0  0  0  0  0  0  0  0
   10.7288   -3.8197   19.9525 C   0  0  0  0  0  0  0  0  0  0  0  0
   10.1189   -5.0054   19.6987 C   0  0  0  0  0  0  0  0  0  0  0  0
  1  3  4  0
  1  7  4  0
  2 21  4  0
  2 27  4  0
  3  9  4  0
  3 10  4  0
  4  8  4  0
  4 18  4  0
  4 25  1  0
  5  9  4  0
  5 12  4  0
  6 13  1  0
  6 27  1  0
  7 28  4  0
  8 11  4  0
  9 29  4  0
 10 12  4  0
 11 24  1  0
 11 26  4  0
 12 25  1  0
 13 28  1  0
 14 20  4  0
 14 23  4  0
 15 17  4  0
 15 21  4  0
 16 19  4  0
 16 23  4  0
 17 22  4  0
 18 26  4  0
 19 24  4  0
 20 24  4  0
 22 27  4  0
 28 29  4  0
M  END
$$$$

 Created by Python create_sdf_string function

 29 33  0  0  0  0  0  0  0  0999 V2000
   10.7215   -3.3326   17.6437 C   0  0  0  0  0  0  0  0  0  0  0  0
    9.9489   -3.4675   24.6487 N   0  0  0  0  0  0  0  0  0  0  0  0
   10.0172   -4.4740   17.4101 C   0  0  0  0  0  0  0  0  0  0  0  0
    6.9051   -7.9575   16.4222 C   0  0  0  0  0  0  0  0  0  0  0  0
    8.9969   -6.3552   17.9668 N   0  0  0  0  0  0  0  0  0  0  0  0
   10.6702   -3.9051   22.4070 C   0  0  0  0  0  0  0  0  0  0  0  0
   11.0625   -3.0028   18.8894 C   0  0  0  0  0  0  0  0  0  0  0  0
    5.6180   -7.9194   16.1754 O   0  0  0  0  0  0  0  0  0  0  0  0
    9.7259   -5.3080   18.4485 C   0  0  0  0  0  0  0  0  0  0  0  0
    9.4578   -5.0200   16.3036 N   0  0  0  0  0  0  0  0  0  0  0  0
    5.0287   -8.9365   16.8223 C   0  0  0  0  0  0  0  0  0  0  0  0
    8.7742   -6.1498   16.6764 C   0  0  0  0  0  0  0  0  0  0  0  0
   10.9418   -3.4032   21.2053 O   0  0  0  0  0  0  0  0  0  0  0  0
    1.4797   -8.6258   16.2950 C   0  0  0  0  0  0  0  0  0  0  0  0
    9.2861   -1.2743   25.3585 C   0  0  0  0  0  0  0  0  0  0  0  0
    1.8892  -10.3985   17.7511 N   0  0  0  0  0  0  0  0  0  0  0  0
    9.6210   -0.6952   24.0976 C   0  0  0  0  0  0  0  0  0  0  0  0
    7.0792   -9.0217   17.1429 C   0  0  0  0  0  0  0  0  0  0  0  0
    3.1713  -10.1816   17.6634 C   0  0  0  0  0  0  0  0  0  0  0  0
    2.7878   -8.3822   16.2137 C   0  0  0  0  0  0  0  0  0  0  0  0
    9.4601   -2.6590   25.6528 C   0  0  0  0  0  0  0  0  0  0  0  0
   10.1182   -1.5672   23.1165 C   0  0  0  0  0  0  0  0  0  0  0  0
    1.0552   -9.6360   17.0650 C   0  0  0  0  0  0  0  0  0  0  0  0
    3.6519   -9.1783   16.9039 C   0  0  0  0  0  0  0  0  0  0  0  0
    7.8675   -7.0096   15.9415 C   0  0  0  0  0  0  0  0  0  0  0  0
    5.9733   -9.6553   17.3832 N   0  0  0  0  0  0  0  0  0  0  0  0
   10.2411   -2.9363   23.4301 C   0  0  0  0  0  0  0  0  0  0  0  0
   10.7288   -3.8197   19.9525 C   0  0  0  0  0  0  0  0  0  0  0  0
   10.1189   -5.0054   19.6987 C   0  0  0  0  0  0  0  0  0  0  0  0
  1  3  4  0
  1  7  4  0
  2 21  4  0
  2 27  4  0
  3  9  4  0
  3 10  4  0
  4  8  4  0
  4 18  4  0
  4 25  1  0
  5  9  4  0
  5 12  4  0
  6 13  1  0
  6 27  1  0
  7 28  4  0
  8 11  4  0
  9 29  4  0
 10 12  4  0
 11 24  1  0
 11 26  4  0
 12 25  1  0
 13 28  1  0
 14 20  4  0
 14 23  4  0
 15 17  4  0
 15 21  4  0
 16 19  4  0
 16 23  4  0
 17 22  4  0
 18 26  4  0
 19 24  4  0
 20 24  4  0
 22 27  4  0
 28 29  4  0
M  END
$$$$

 Created by Python create_sdf_string function

 29 33  0  0  0  0  0  0  0  0999 V2000
   10.7215   -3.3326   17.6437 C   0  0  0  0  0  0  0  0  0  0  0  0
    9.9489   -3.4675   24.6487 N   0  0  0  0  0  0  0  0  0  0  0  0
   10.0172   -4.4740   17.4101 C   0  0  0  0  0  0  0  0  0  0  0  0
    6.9051   -7.9575   16.4222 C   0  0  0  0  0  0  0  0  0  0  0  0
    8.9969   -6.3552   17.9668 N   0  0  0  0  0  0  0  0  0  0  0  0
   10.6702   -3.9051   22.4070 C   0  0  0  0  0  0  0  0  0  0  0  0
   11.0625   -3.0028   18.8894 C   0  0  0  0  0  0  0  0  0  0  0  0
    5.6180   -7.9194   16.1754 O   0  0  0  0  0  0  0  0  0  0  0  0
    9.7259   -5.3080   18.4485 C   0  0  0  0  0  0  0  0  0  0  0  0
    9.4578   -5.0200   16.3036 N   0  0  0  0  0  0  0  0  0  0  0  0
    5.0287   -8.9365   16.8223 C   0  0  0  0  0  0  0  0  0  0  0  0
    8.7742   -6.1498   16.6764 C   0  0  0  0  0  0  0  0  0  0  0  0
   10.9418   -3.4032   21.2053 O   0  0  0  0  0  0  0  0  0  0  0  0
    1.4797   -8.6258   16.2950 C   0  0  0  0  0  0  0  0  0  0  0  0
    9.2861   -1.2743   25.3585 C   0  0  0  0  0  0  0  0  0  0  0  0
    1.8892  -10.3985   17.7511 N   0  0  0  0  0  0  0  0  0  0  0  0
    9.6210   -0.6952   24.0976 C   0  0  0  0  0  0  0  0  0  0  0  0
    7.0792   -9.0217   17.1429 C   0  0  0  0  0  0  0  0  0  0  0  0
    3.1713  -10.1816   17.6634 C   0  0  0  0  0  0  0  0  0  0  0  0
    2.7878   -8.3822   16.2137 C   0  0  0  0  0  0  0  0  0  0  0  0
    9.4601   -2.6590   25.6528 C   0  0  0  0  0  0  0  0  0  0  0  0
   10.1182   -1.5672   23.1165 C   0  0  0  0  0  0  0  0  0  0  0  0
    1.0552   -9.6360   17.0650 C   0  0  0  0  0  0  0  0  0  0  0  0
    3.6519   -9.1783   16.9039 C   0  0  0  0  0  0  0  0  0  0  0  0
    7.8675   -7.0096   15.9415 C   0  0  0  0  0  0  0  0  0  0  0  0
    5.9733   -9.6553   17.3832 N   0  0  0  0  0  0  0  0  0  0  0  0
   10.2411   -2.9363   23.4301 C   0  0  0  0  0  0  0  0  0  0  0  0
   10.7288   -3.8197   19.9525 C   0  0  0  0  0  0  0  0  0  0  0  0
   10.1189   -5.0054   19.6987 C   0  0  0  0  0  0  0  0  0  0  0  0
  1  3  4  0
  1  7  4  0
  2 21  4  0
  2 27  4  0
  3  9  4  0
  3 10  4  0
  4  8  4  0
  4 18  4  0
  4 25  1  0
  5  9  4  0
  5 12  4  0
  6 13  1  0
  6 27  1  0
  7 28  4  0
  8 11  4  0
  9 29  4  0
 10 12  4  0
 11 24  1  0
 11 26  4  0
 12 25  1  0
 13 28  1  0
 14 20  4  0
 14 23  4  0
 15 17  4  0
 15 21  4  0
 16 19  4  0
 16 23  4  0
 17 22  4  0
 18 26  4  0
 19 24  4  0
 20 24  4  0
 22 27  4  0
 28 29  4  0
M  END
$$$$

 Created by Python create_sdf_string function

 29 33  0  0  0  0  0  0  0  0999 V2000
   10.7215   -3.3326   17.6437 C   0  0  0  0  0  0  0  0  0  0  0  0
    9.9489   -3.4675   24.6487 N   0  0  0  0  0  0  0  0  0  0  0  0
   10.0172   -4.4740   17.4101 C   0  0  0  0  0  0  0  0  0  0  0  0
    6.9051   -7.9575   16.4222 C   0  0  0  0  0  0  0  0  0  0  0  0
    8.9969   -6.3552   17.9668 N   0  0  0  0  0  0  0  0  0  0  0  0
   10.6702   -3.9051   22.4070 C   0  0  0  0  0  0  0  0  0  0  0  0
   11.0625   -3.0028   18.8894 C   0  0  0  0  0  0  0  0  0  0  0  0
    5.6180   -7.9194   16.1754 O   0  0  0  0  0  0  0  0  0  0  0  0
    9.7259   -5.3080   18.4485 C   0  0  0  0  0  0  0  0  0  0  0  0
    9.4578   -5.0200   16.3036 N   0  0  0  0  0  0  0  0  0  0  0  0
    5.0287   -8.9365   16.8223 C   0  0  0  0  0  0  0  0  0  0  0  0
    8.7742   -6.1498   16.6764 C   0  0  0  0  0  0  0  0  0  0  0  0
   10.9418   -3.4032   21.2053 O   0  0  0  0  0  0  0  0  0  0  0  0
    1.4797   -8.6258   16.2950 C   0  0  0  0  0  0  0  0  0  0  0  0
    9.2861   -1.2743   25.3585 C   0  0  0  0  0  0  0  0  0  0  0  0
    1.8892  -10.3985   17.7511 N   0  0  0  0  0  0  0  0  0  0  0  0
    9.6210   -0.6952   24.0976 C   0  0  0  0  0  0  0  0  0  0  0  0
    7.0792   -9.0217   17.1429 C   0  0  0  0  0  0  0  0  0  0  0  0
    3.1713  -10.1816   17.6634 C   0  0  0  0  0  0  0  0  0  0  0  0
    2.7878   -8.3822   16.2137 C   0  0  0  0  0  0  0  0  0  0  0  0
    9.4601   -2.6590   25.6528 C   0  0  0  0  0  0  0  0  0  0  0  0
   10.1182   -1.5672   23.1165 C   0  0  0  0  0  0  0  0  0  0  0  0
    1.0552   -9.6360   17.0650 C   0  0  0  0  0  0  0  0  0  0  0  0
    3.6519   -9.1783   16.9039 C   0  0  0  0  0  0  0  0  0  0  0  0
    7.8675   -7.0096   15.9415 C   0  0  0  0  0  0  0  0  0  0  0  0
    5.9733   -9.6553   17.3832 N   0  0  0  0  0  0  0  0  0  0  0  0
   10.2411   -2.9363   23.4301 C   0  0  0  0  0  0  0  0  0  0  0  0
   10.7288   -3.8197   19.9525 C   0  0  0  0  0  0  0  0  0  0  0  0
   10.1189   -5.0054   19.6987 C   0  0  0  0  0  0  0  0  0  0  0  0
  1  3  4  0
  1  7  4  0
  2 21  4  0
  2 27  4  0
  3  9  4  0
  3 10  4  0
  4  8  4  0
  4 18  4  0
  4 25  1  0
  5  9  4  0
  5 12  4  0
  6 13  1  0
  6 27  1  0
  7 28  4  0
  8 11  4  0
  9 29  4  0
 10 12  4  0
 11 24  1  0
 11 26  4  0
 12 25  1  0
 13 28  1  0
 14 20  4  0
 14 23  4  0
 15 17  4  0
 15 21  4  0
 16 19  4  0
 16 23  4  0
 17 22  4  0
 18 26  4  0
 19 24  4  0
 20 24  4  0
 22 27  4  0
 28 29  4  0
M  END
$$$$

 Created by Python create_sdf_string function

 29 33  0  0  0  0  0  0  0  0999 V2000
   10.7215   -3.3326   17.6437 C   0  0  0  0  0  0  0  0  0  0  0  0
    9.9489   -3.4675   24.6487 N   0  0  0  0  0  0  0  0  0  0  0  0
   10.0172   -4.4740   17.4101 C   0  0  0  0  0  0  0  0  0  0  0  0
    6.9051   -7.9575   16.4222 C   0  0  0  0  0  0  0  0  0  0  0  0
    8.9969   -6.3552   17.9668 N   0  0  0  0  0  0  0  0  0  0  0  0
   10.6702   -3.9051   22.4070 C   0  0  0  0  0  0  0  0  0  0  0  0
   11.0625   -3.0028   18.8894 C   0  0  0  0  0  0  0  0  0  0  0  0
    5.6180   -7.9194   16.1754 O   0  0  0  0  0  0  0  0  0  0  0  0
    9.7259   -5.3080   18.4485 C   0  0  0  0  0  0  0  0  0  0  0  0
    9.4578   -5.0200   16.3036 N   0  0  0  0  0  0  0  0  0  0  0  0
    5.0287   -8.9365   16.8223 C   0  0  0  0  0  0  0  0  0  0  0  0
    8.7742   -6.1498   16.6764 C   0  0  0  0  0  0  0  0  0  0  0  0
   10.9418   -3.4032   21.2053 O   0  0  0  0  0  0  0  0  0  0  0  0
    1.4797   -8.6258   16.2950 C   0  0  0  0  0  0  0  0  0  0  0  0
    9.2861   -1.2743   25.3585 C   0  0  0  0  0  0  0  0  0  0  0  0
    1.8892  -10.3985   17.7511 N   0  0  0  0  0  0  0  0  0  0  0  0
    9.6210   -0.6952   24.0976 C   0  0  0  0  0  0  0  0  0  0  0  0
    7.0792   -9.0217   17.1429 C   0  0  0  0  0  0  0  0  0  0  0  0
    3.1713  -10.1816   17.6634 C   0  0  0  0  0  0  0  0  0  0  0  0
    2.7878   -8.3822   16.2137 C   0  0  0  0  0  0  0  0  0  0  0  0
    9.4601   -2.6590   25.6528 C   0  0  0  0  0  0  0  0  0  0  0  0
   10.1182   -1.5672   23.1165 C   0  0  0  0  0  0  0  0  0  0  0  0
    1.0552   -9.6360   17.0650 C   0  0  0  0  0  0  0  0  0  0  0  0
    3.6519   -9.1783   16.9039 C   0  0  0  0  0  0  0  0  0  0  0  0
    7.8675   -7.0096   15.9415 C   0  0  0  0  0  0  0  0  0  0  0  0
    5.9733   -9.6553   17.3832 N   0  0  0  0  0  0  0  0  0  0  0  0
   10.2411   -2.9363   23.4301 C   0  0  0  0  0  0  0  0  0  0  0  0
   10.7288   -3.8197   19.9525 C   0  0  0  0  0  0  0  0  0  0  0  0
   10.1189   -5.0054   19.6987 C   0  0  0  0  0  0  0  0  0  0  0  0
  1  3  4  0
  1  7  4  0
  2 21  4  0
  2 27  4  0
  3  9  4  0
  3 10  4  0
  4  8  4  0
  4 18  4  0
  4 25  1  0
  5  9  4  0
  5 12  4  0
  6 13  1  0
  6 27  1  0
  7 28  4  0
  8 11  4  0
  9 29  4  0
 10 12  4  0
 11 24  1  0
 11 26  4  0
 12 25  1  0
 13 28  1  0
 14 20  4  0
 14 23  4  0
 15 17  4  0
 15 21  4  0
 16 19  4  0
 16 23  4  0
 17 22  4  0
 18 26  4  0
 19 24  4  0
 20 24  4  0
 22 27  4  0
 28 29  4  0
M  END
$$$$

 Created by Python create_sdf_string function

 29 33  0  0  0  0  0  0  0  0999 V2000
   10.7215   -3.3326   17.6437 C   0  0  0  0  0  0  0  0  0  0  0  0
    9.9489   -3.4675   24.6487 N   0  0  0  0  0  0  0  0  0  0  0  0
   10.0172   -4.4740   17.4101 C   0  0  0  0  0  0  0  0  0  0  0  0
    6.9051   -7.9575   16.4222 C   0  0  0  0  0  0  0  0  0  0  0  0
    8.9969   -6.3552   17.9668 N   0  0  0  0  0  0  0  0  0  0  0  0
   10.6702   -3.9051   22.4070 C   0  0  0  0  0  0  0  0  0  0  0  0
   11.0625   -3.0028   18.8894 C   0  0  0  0  0  0  0  0  0  0  0  0
    5.6180   -7.9194   16.1754 O   0  0  0  0  0  0  0  0  0  0  0  0
    9.7259   -5.3080   18.4485 C   0  0  0  0  0  0  0  0  0  0  0  0
    9.4578   -5.0200   16.3036 N   0  0  0  0  0  0  0  0  0  0  0  0
    5.0287   -8.9365   16.8223 C   0  0  0  0  0  0  0  0  0  0  0  0
    8.7742   -6.1498   16.6764 C   0  0  0  0  0  0  0  0  0  0  0  0
   10.9418   -3.4032   21.2053 O   0  0  0  0  0  0  0  0  0  0  0  0
    1.4797   -8.6258   16.2950 C   0  0  0  0  0  0  0  0  0  0  0  0
    9.2861   -1.2743   25.3585 C   0  0  0  0  0  0  0  0  0  0  0  0
    1.8892  -10.3985   17.7511 N   0  0  0  0  0  0  0  0  0  0  0  0
    9.6210   -0.6952   24.0976 C   0  0  0  0  0  0  0  0  0  0  0  0
    7.0792   -9.0217   17.1429 C   0  0  0  0  0  0  0  0  0  0  0  0
    3.1713  -10.1816   17.6634 C   0  0  0  0  0  0  0  0  0  0  0  0
    2.7878   -8.3822   16.2137 C   0  0  0  0  0  0  0  0  0  0  0  0
    9.4601   -2.6590   25.6528 C   0  0  0  0  0  0  0  0  0  0  0  0
   10.1182   -1.5672   23.1165 C   0  0  0  0  0  0  0  0  0  0  0  0
    1.0552   -9.6360   17.0650 C   0  0  0  0  0  0  0  0  0  0  0  0
    3.6519   -9.1783   16.9039 C   0  0  0  0  0  0  0  0  0  0  0  0
    7.8675   -7.0096   15.9415 C   0  0  0  0  0  0  0  0  0  0  0  0
    5.9733   -9.6553   17.3832 N   0  0  0  0  0  0  0  0  0  0  0  0
   10.2411   -2.9363   23.4301 C   0  0  0  0  0  0  0  0  0  0  0  0
   10.7288   -3.8197   19.9525 C   0  0  0  0  0  0  0  0  0  0  0  0
   10.1189   -5.0054   19.6987 C   0  0  0  0  0  0  0  0  0  0  0  0
  1  3  4  0
  1  7  4  0
  2 21  4  0
  2 27  4  0
  3  9  4  0
  3 10  4  0
  4  8  4  0
  4 18  4  0
  4 25  1  0
  5  9  4  0
  5 12  4  0
  6 13  1  0
  6 27  1  0
  7 28  4  0
  8 11  4  0
  9 29  4  0
 10 12  4  0
 11 24  1  0
 11 26  4  0
 12 25  1  0
 13 28  1  0
 14 20  4  0
 14 23  4  0
 15 17  4  0
 15 21  4  0
 16 19  4  0
 16 23  4  0
 17 22  4  0
 18 26  4  0
 19 24  4  0
 20 24  4  0
 22 27  4  0
 28 29  4  0
M  END
$$$$

 Created by Python create_sdf_string function

 29 33  0  0  0  0  0  0  0  0999 V2000
   10.7215   -3.3326   17.6437 C   0  0  0  0  0  0  0  0  0  0  0  0
    9.9489   -3.4675   24.6487 N   0  0  0  0  0  0  0  0  0  0  0  0
   10.0172   -4.4740   17.4101 C   0  0  0  0  0  0  0  0  0  0  0  0
    6.9051   -7.9575   16.4222 C   0  0  0  0  0  0  0  0  0  0  0  0
    8.9969   -6.3552   17.9668 N   0  0  0  0  0  0  0  0  0  0  0  0
   10.6702   -3.9051   22.4070 C   0  0  0  0  0  0  0  0  0  0  0  0
   11.0625   -3.0028   18.8894 C   0  0  0  0  0  0  0  0  0  0  0  0
    5.6180   -7.9194   16.1754 O   0  0  0  0  0  0  0  0  0  0  0  0
    9.7259   -5.3080   18.4485 C   0  0  0  0  0  0  0  0  0  0  0  0
    9.4578   -5.0200   16.3036 N   0  0  0  0  0  0  0  0  0  0  0  0
    5.0287   -8.9365   16.8223 C   0  0  0  0  0  0  0  0  0  0  0  0
    8.7742   -6.1498   16.6764 C   0  0  0  0  0  0  0  0  0  0  0  0
   10.9418   -3.4032   21.2053 O   0  0  0  0  0  0  0  0  0  0  0  0
    1.4797   -8.6258   16.2950 C   0  0  0  0  0  0  0  0  0  0  0  0
    9.2861   -1.2743   25.3585 C   0  0  0  0  0  0  0  0  0  0  0  0
    1.8892  -10.3985   17.7511 N   0  0  0  0  0  0  0  0  0  0  0  0
    9.6210   -0.6952   24.0976 C   0  0  0  0  0  0  0  0  0  0  0  0
    7.0792   -9.0217   17.1429 C   0  0  0  0  0  0  0  0  0  0  0  0
    3.1713  -10.1816   17.6634 C   0  0  0  0  0  0  0  0  0  0  0  0
    2.7878   -8.3822   16.2137 C   0  0  0  0  0  0  0  0  0  0  0  0
    9.4601   -2.6590   25.6528 C   0  0  0  0  0  0  0  0  0  0  0  0
   10.1182   -1.5672   23.1165 C   0  0  0  0  0  0  0  0  0  0  0  0
    1.0552   -9.6360   17.0650 C   0  0  0  0  0  0  0  0  0  0  0  0
    3.6519   -9.1783   16.9039 C   0  0  0  0  0  0  0  0  0  0  0  0
    7.8675   -7.0096   15.9415 C   0  0  0  0  0  0  0  0  0  0  0  0
    5.9733   -9.6553   17.3832 N   0  0  0  0  0  0  0  0  0  0  0  0
   10.2411   -2.9363   23.4301 C   0  0  0  0  0  0  0  0  0  0  0  0
   10.7288   -3.8197   19.9525 C   0  0  0  0  0  0  0  0  0  0  0  0
   10.1189   -5.0054   19.6987 C   0  0  0  0  0  0  0  0  0  0  0  0
  1  3  4  0
  1  7  4  0
  2 21  4  0
  2 27  4  0
  3  9  4  0
  3 10  4  0
  4  8  4  0
  4 18  4  0
  4 25  1  0
  5  9  4  0
  5 12  4  0
  6 13  1  0
  6 27  1  0
  7 28  4  0
  8 11  4  0
  9 29  4  0
 10 12  4  0
 11 24  1  0
 11 26  4  0
 12 25  1  0
 13 28  1  0
 14 20  4  0
 14 23  4  0
 15 17  4  0
 15 21  4  0
 16 19  4  0
 16 23  4  0
 17 22  4  0
 18 26  4  0
 19 24  4  0
 20 24  4  0
 22 27  4  0
 28 29  4  0
M  END
$$$$

 Created by Python create_sdf_string function

 29 33  0  0  0  0  0  0  0  0999 V2000
   10.7215   -3.3326   17.6437 C   0  0  0  0  0  0  0  0  0  0  0  0
    9.9489   -3.4675   24.6487 N   0  0  0  0  0  0  0  0  0  0  0  0
   10.0172   -4.4740   17.4101 C   0  0  0  0  0  0  0  0  0  0  0  0
    6.9051   -7.9575   16.4222 C   0  0  0  0  0  0  0  0  0  0  0  0
    8.9969   -6.3552   17.9668 N   0  0  0  0  0  0  0  0  0  0  0  0
   10.6702   -3.9051   22.4070 C   0  0  0  0  0  0  0  0  0  0  0  0
   11.0625   -3.0028   18.8894 C   0  0  0  0  0  0  0  0  0  0  0  0
    5.6180   -7.9194   16.1754 O   0  0  0  0  0  0  0  0  0  0  0  0
    9.7259   -5.3080   18.4485 C   0  0  0  0  0  0  0  0  0  0  0  0
    9.4578   -5.0200   16.3036 N   0  0  0  0  0  0  0  0  0  0  0  0
    5.0287   -8.9365   16.8223 C   0  0  0  0  0  0  0  0  0  0  0  0
    8.7742   -6.1498   16.6764 C   0  0  0  0  0  0  0  0  0  0  0  0
   10.9418   -3.4032   21.2053 O   0  0  0  0  0  0  0  0  0  0  0  0
    1.4797   -8.6258   16.2950 C   0  0  0  0  0  0  0  0  0  0  0  0
    9.2861   -1.2743   25.3585 C   0  0  0  0  0  0  0  0  0  0  0  0
    1.8892  -10.3985   17.7511 N   0  0  0  0  0  0  0  0  0  0  0  0
    9.6210   -0.6952   24.0976 C   0  0  0  0  0  0  0  0  0  0  0  0
    7.0792   -9.0217   17.1429 C   0  0  0  0  0  0  0  0  0  0  0  0
    3.1713  -10.1816   17.6634 C   0  0  0  0  0  0  0  0  0  0  0  0
    2.7878   -8.3822   16.2137 C   0  0  0  0  0  0  0  0  0  0  0  0
    9.4601   -2.6590   25.6528 C   0  0  0  0  0  0  0  0  0  0  0  0
   10.1182   -1.5672   23.1165 C   0  0  0  0  0  0  0  0  0  0  0  0
    1.0552   -9.6360   17.0650 C   0  0  0  0  0  0  0  0  0  0  0  0
    3.6519   -9.1783   16.9039 C   0  0  0  0  0  0  0  0  0  0  0  0
    7.8675   -7.0096   15.9415 C   0  0  0  0  0  0  0  0  0  0  0  0
    5.9733   -9.6553   17.3832 N   0  0  0  0  0  0  0  0  0  0  0  0
   10.2411   -2.9363   23.4301 C   0  0  0  0  0  0  0  0  0  0  0  0
   10.7288   -3.8197   19.9525 C   0  0  0  0  0  0  0  0  0  0  0  0
   10.1189   -5.0054   19.6987 C   0  0  0  0  0  0  0  0  0  0  0  0
  1  3  4  0
  1  7  4  0
  2 21  4  0
  2 27  4  0
  3  9  4  0
  3 10  4  0
  4  8  4  0
  4 18  4  0
  4 25  1  0
  5  9  4  0
  5 12  4  0
  6 13  1  0
  6 27  1  0
  7 28  4  0
  8 11  4  0
  9 29  4  0
 10 12  4  0
 11 24  1  0
 11 26  4  0
 12 25  1  0
 13 28  1  0
 14 20  4  0
 14 23  4  0
 15 17  4  0
 15 21  4  0
 16 19  4  0
 16 23  4  0
 17 22  4  0
 18 26  4  0
 19 24  4  0
 20 24  4  0
 22 27  4  0
 28 29  4  0
M  END
$$$$

 Created by Python create_sdf_string function

 29 33  0  0  0  0  0  0  0  0999 V2000
   10.7215   -3.3326   17.6437 C   0  0  0  0  0  0  0  0  0  0  0  0
    9.9489   -3.4675   24.6487 N   0  0  0  0  0  0  0  0  0  0  0  0
   10.0172   -4.4740   17.4101 C   0  0  0  0  0  0  0  0  0  0  0  0
    6.9051   -7.9575   16.4222 C   0  0  0  0  0  0  0  0  0  0  0  0
    8.9969   -6.3552   17.9668 N   0  0  0  0  0  0  0  0  0  0  0  0
   10.6702   -3.9051   22.4070 C   0  0  0  0  0  0  0  0  0  0  0  0
   11.0625   -3.0028   18.8894 C   0  0  0  0  0  0  0  0  0  0  0  0
    5.6180   -7.9194   16.1754 O   0  0  0  0  0  0  0  0  0  0  0  0
    9.7259   -5.3080   18.4485 C   0  0  0  0  0  0  0  0  0  0  0  0
    9.4578   -5.0200   16.3036 N   0  0  0  0  0  0  0  0  0  0  0  0
    5.0287   -8.9365   16.8223 C   0  0  0  0  0  0  0  0  0  0  0  0
    8.7742   -6.1498   16.6764 C   0  0  0  0  0  0  0  0  0  0  0  0
   10.9418   -3.4032   21.2053 O   0  0  0  0  0  0  0  0  0  0  0  0
    1.4797   -8.6258   16.2950 C   0  0  0  0  0  0  0  0  0  0  0  0
    9.2861   -1.2743   25.3585 C   0  0  0  0  0  0  0  0  0  0  0  0
    1.8892  -10.3985   17.7511 N   0  0  0  0  0  0  0  0  0  0  0  0
    9.6210   -0.6952   24.0976 C   0  0  0  0  0  0  0  0  0  0  0  0
    7.0792   -9.0217   17.1429 C   0  0  0  0  0  0  0  0  0  0  0  0
    3.1713  -10.1816   17.6634 C   0  0  0  0  0  0  0  0  0  0  0  0
    2.7878   -8.3822   16.2137 C   0  0  0  0  0  0  0  0  0  0  0  0
    9.4601   -2.6590   25.6528 C   0  0  0  0  0  0  0  0  0  0  0  0
   10.1182   -1.5672   23.1165 C   0  0  0  0  0  0  0  0  0  0  0  0
    1.0552   -9.6360   17.0650 C   0  0  0  0  0  0  0  0  0  0  0  0
    3.6519   -9.1783   16.9039 C   0  0  0  0  0  0  0  0  0  0  0  0
    7.8675   -7.0096   15.9415 C   0  0  0  0  0  0  0  0  0  0  0  0
    5.9733   -9.6553   17.3832 N   0  0  0  0  0  0  0  0  0  0  0  0
   10.2411   -2.9363   23.4301 C   0  0  0  0  0  0  0  0  0  0  0  0
   10.7288   -3.8197   19.9525 C   0  0  0  0  0  0  0  0  0  0  0  0
   10.1189   -5.0054   19.6987 C   0  0  0  0  0  0  0  0  0  0  0  0
  1  3  4  0
  1  7  4  0
  2 21  4  0
  2 27  4  0
  3  9  4  0
  3 10  4  0
  4  8  4  0
  4 18  4  0
  4 25  1  0
  5  9  4  0
  5 12  4  0
  6 13  1  0
  6 27  1  0
  7 28  4  0
  8 11  4  0
  9 29  4  0
 10 12  4  0
 11 24  1  0
 11 26  4  0
 12 25  1  0
 13 28  1  0
 14 20  4  0
 14 23  4  0
 15 17  4  0
 15 21  4  0
 16 19  4  0
 16 23  4  0
 17 22  4  0
 18 26  4  0
 19 24  4  0
 20 24  4  0
 22 27  4  0
 28 29  4  0
M  END
$$$$

 Created by Python create_sdf_string function

 29 33  0  0  0  0  0  0  0  0999 V2000
   10.7215   -3.3326   17.6437 C   0  0  0  0  0  0  0  0  0  0  0  0
    9.9489   -3.4675   24.6487 N   0  0  0  0  0  0  0  0  0  0  0  0
   10.0172   -4.4740   17.4101 C   0  0  0  0  0  0  0  0  0  0  0  0
    6.9051   -7.9575   16.4222 C   0  0  0  0  0  0  0  0  0  0  0  0
    8.9969   -6.3552   17.9668 N   0  0  0  0  0  0  0  0  0  0  0  0
   10.6702   -3.9051   22.4070 C   0  0  0  0  0  0  0  0  0  0  0  0
   11.0625   -3.0028   18.8894 C   0  0  0  0  0  0  0  0  0  0  0  0
    5.6180   -7.9194   16.1754 O   0  0  0  0  0  0  0  0  0  0  0  0
    9.7259   -5.3080   18.4485 C   0  0  0  0  0  0  0  0  0  0  0  0
    9.4578   -5.0200   16.3036 N   0  0  0  0  0  0  0  0  0  0  0  0
    5.0287   -8.9365   16.8223 C   0  0  0  0  0  0  0  0  0  0  0  0
    8.7742   -6.1498   16.6764 C   0  0  0  0  0  0  0  0  0  0  0  0
   10.9418   -3.4032   21.2053 O   0  0  0  0  0  0  0  0  0  0  0  0
    1.4797   -8.6258   16.2950 C   0  0  0  0  0  0  0  0  0  0  0  0
    9.2861   -1.2743   25.3585 C   0  0  0  0  0  0  0  0  0  0  0  0
    1.8892  -10.3985   17.7511 N   0  0  0  0  0  0  0  0  0  0  0  0
    9.6210   -0.6952   24.0976 C   0  0  0  0  0  0  0  0  0  0  0  0
    7.0792   -9.0217   17.1429 C   0  0  0  0  0  0  0  0  0  0  0  0
    3.1713  -10.1816   17.6634 C   0  0  0  0  0  0  0  0  0  0  0  0
    2.7878   -8.3822   16.2137 C   0  0  0  0  0  0  0  0  0  0  0  0
    9.4601   -2.6590   25.6528 C   0  0  0  0  0  0  0  0  0  0  0  0
   10.1182   -1.5672   23.1165 C   0  0  0  0  0  0  0  0  0  0  0  0
    1.0552   -9.6360   17.0650 C   0  0  0  0  0  0  0  0  0  0  0  0
    3.6519   -9.1783   16.9039 C   0  0  0  0  0  0  0  0  0  0  0  0
    7.8675   -7.0096   15.9415 C   0  0  0  0  0  0  0  0  0  0  0  0
    5.9733   -9.6553   17.3832 N   0  0  0  0  0  0  0  0  0  0  0  0
   10.2411   -2.9363   23.4301 C   0  0  0  0  0  0  0  0  0  0  0  0
   10.7288   -3.8197   19.9525 C   0  0  0  0  0  0  0  0  0  0  0  0
   10.1189   -5.0054   19.6987 C   0  0  0  0  0  0  0  0  0  0  0  0
  1  3  4  0
  1  7  4  0
  2 21  4  0
  2 27  4  0
  3  9  4  0
  3 10  4  0
  4  8  4  0
  4 18  4  0
  4 25  1  0
  5  9  4  0
  5 12  4  0
  6 13  1  0
  6 27  1  0
  7 28  4  0
  8 11  4  0
  9 29  4  0
 10 12  4  0
 11 24  1  0
 11 26  4  0
 12 25  1  0
 13 28  1  0
 14 20  4  0
 14 23  4  0
 15 17  4  0
 15 21  4  0
 16 19  4  0
 16 23  4  0
 17 22  4  0
 18 26  4  0
 19 24  4  0
 20 24  4  0
 22 27  4  0
 28 29  4  0
M  END
$$$$

 Created by Python create_sdf_string function

 29 33  0  0  0  0  0  0  0  0999 V2000
   10.7215   -3.3326   17.6437 C   0  0  0  0  0  0  0  0  0  0  0  0
    9.9489   -3.4675   24.6487 N   0  0  0  0  0  0  0  0  0  0  0  0
   10.0172   -4.4740   17.4101 C   0  0  0  0  0  0  0  0  0  0  0  0
    6.9051   -7.9575   16.4222 C   0  0  0  0  0  0  0  0  0  0  0  0
    8.9969   -6.3552   17.9668 N   0  0  0  0  0  0  0  0  0  0  0  0
   10.6702   -3.9051   22.4070 C   0  0  0  0  0  0  0  0  0  0  0  0
   11.0625   -3.0028   18.8894 C   0  0  0  0  0  0  0  0  0  0  0  0
    5.6180   -7.9194   16.1754 O   0  0  0  0  0  0  0  0  0  0  0  0
    9.7259   -5.3080   18.4485 C   0  0  0  0  0  0  0  0  0  0  0  0
    9.4578   -5.0200   16.3036 N   0  0  0  0  0  0  0  0  0  0  0  0
    5.0287   -8.9365   16.8223 C   0  0  0  0  0  0  0  0  0  0  0  0
    8.7742   -6.1498   16.6764 C   0  0  0  0  0  0  0  0  0  0  0  0
   10.9418   -3.4032   21.2053 O   0  0  0  0  0  0  0  0  0  0  0  0
    1.4797   -8.6258   16.2950 C   0  0  0  0  0  0  0  0  0  0  0  0
    9.2861   -1.2743   25.3585 C   0  0  0  0  0  0  0  0  0  0  0  0
    1.8892  -10.3985   17.7511 N   0  0  0  0  0  0  0  0  0  0  0  0
    9.6210   -0.6952   24.0976 C   0  0  0  0  0  0  0  0  0  0  0  0
    7.0792   -9.0217   17.1429 C   0  0  0  0  0  0  0  0  0  0  0  0
    3.1713  -10.1816   17.6634 C   0  0  0  0  0  0  0  0  0  0  0  0
    2.7878   -8.3822   16.2137 C   0  0  0  0  0  0  0  0  0  0  0  0
    9.4601   -2.6590   25.6528 C   0  0  0  0  0  0  0  0  0  0  0  0
   10.1182   -1.5672   23.1165 C   0  0  0  0  0  0  0  0  0  0  0  0
    1.0552   -9.6360   17.0650 C   0  0  0  0  0  0  0  0  0  0  0  0
    3.6519   -9.1783   16.9039 C   0  0  0  0  0  0  0  0  0  0  0  0
    7.8675   -7.0096   15.9415 C   0  0  0  0  0  0  0  0  0  0  0  0
    5.9733   -9.6553   17.3832 N   0  0  0  0  0  0  0  0  0  0  0  0
   10.2411   -2.9363   23.4301 C   0  0  0  0  0  0  0  0  0  0  0  0
   10.7288   -3.8197   19.9525 C   0  0  0  0  0  0  0  0  0  0  0  0
   10.1189   -5.0054   19.6987 C   0  0  0  0  0  0  0  0  0  0  0  0
  1  3  4  0
  1  7  4  0
  2 21  4  0
  2 27  4  0
  3  9  4  0
  3 10  4  0
  4  8  4  0
  4 18  4  0
  4 25  1  0
  5  9  4  0
  5 12  4  0
  6 13  1  0
  6 27  1  0
  7 28  4  0
  8 11  4  0
  9 29  4  0
 10 12  4  0
 11 24  1  0
 11 26  4  0
 12 25  1  0
 13 28  1  0
 14 20  4  0
 14 23  4  0
 15 17  4  0
 15 21  4  0
 16 19  4  0
 16 23  4  0
 17 22  4  0
 18 26  4  0
 19 24  4  0
 20 24  4  0
 22 27  4  0
 28 29  4  0
M  END
$$$$

 Created by Python create_sdf_string function

 29 33  0  0  0  0  0  0  0  0999 V2000
   10.7215   -3.3326   17.6437 C   0  0  0  0  0  0  0  0  0  0  0  0
    9.9489   -3.4675   24.6487 N   0  0  0  0  0  0  0  0  0  0  0  0
   10.0172   -4.4740   17.4101 C   0  0  0  0  0  0  0  0  0  0  0  0
    6.9051   -7.9575   16.4222 C   0  0  0  0  0  0  0  0  0  0  0  0
    8.9969   -6.3552   17.9668 N   0  0  0  0  0  0  0  0  0  0  0  0
   10.6702   -3.9051   22.4070 C   0  0  0  0  0  0  0  0  0  0  0  0
   11.0625   -3.0028   18.8894 C   0  0  0  0  0  0  0  0  0  0  0  0
    5.6180   -7.9194   16.1754 O   0  0  0  0  0  0  0  0  0  0  0  0
    9.7259   -5.3080   18.4485 C   0  0  0  0  0  0  0  0  0  0  0  0
    9.4578   -5.0200   16.3036 N   0  0  0  0  0  0  0  0  0  0  0  0
    5.0287   -8.9365   16.8223 C   0  0  0  0  0  0  0  0  0  0  0  0
    8.7742   -6.1498   16.6764 C   0  0  0  0  0  0  0  0  0  0  0  0
   10.9418   -3.4032   21.2053 O   0  0  0  0  0  0  0  0  0  0  0  0
    1.4797   -8.6258   16.2950 C   0  0  0  0  0  0  0  0  0  0  0  0
    9.2861   -1.2743   25.3585 C   0  0  0  0  0  0  0  0  0  0  0  0
    1.8892  -10.3985   17.7511 N   0  0  0  0  0  0  0  0  0  0  0  0
    9.6210   -0.6952   24.0976 C   0  0  0  0  0  0  0  0  0  0  0  0
    7.0792   -9.0217   17.1429 C   0  0  0  0  0  0  0  0  0  0  0  0
    3.1713  -10.1816   17.6634 C   0  0  0  0  0  0  0  0  0  0  0  0
    2.7878   -8.3822   16.2137 C   0  0  0  0  0  0  0  0  0  0  0  0
    9.4601   -2.6590   25.6528 C   0  0  0  0  0  0  0  0  0  0  0  0
   10.1182   -1.5672   23.1165 C   0  0  0  0  0  0  0  0  0  0  0  0
    1.0552   -9.6360   17.0650 C   0  0  0  0  0  0  0  0  0  0  0  0
    3.6519   -9.1783   16.9039 C   0  0  0  0  0  0  0  0  0  0  0  0
    7.8675   -7.0096   15.9415 C   0  0  0  0  0  0  0  0  0  0  0  0
    5.9733   -9.6553   17.3832 N   0  0  0  0  0  0  0  0  0  0  0  0
   10.2411   -2.9363   23.4301 C   0  0  0  0  0  0  0  0  0  0  0  0
   10.7288   -3.8197   19.9525 C   0  0  0  0  0  0  0  0  0  0  0  0
   10.1189   -5.0054   19.6987 C   0  0  0  0  0  0  0  0  0  0  0  0
  1  3  4  0
  1  7  4  0
  2 21  4  0
  2 27  4  0
  3  9  4  0
  3 10  4  0
  4  8  4  0
  4 18  4  0
  4 25  1  0
  5  9  4  0
  5 12  4  0
  6 13  1  0
  6 27  1  0
  7 28  4  0
  8 11  4  0
  9 29  4  0
 10 12  4  0
 11 24  1  0
 11 26  4  0
 12 25  1  0
 13 28  1  0
 14 20  4  0
 14 23  4  0
 15 17  4  0
 15 21  4  0
 16 19  4  0
 16 23  4  0
 17 22  4  0
 18 26  4  0
 19 24  4  0
 20 24  4  0
 22 27  4  0
 28 29  4  0
M  END
$$$$

 Created by Python create_sdf_string function

 29 33  0  0  0  0  0  0  0  0999 V2000
   10.7215   -3.3326   17.6437 C   0  0  0  0  0  0  0  0  0  0  0  0
    9.9489   -3.4675   24.6487 N   0  0  0  0  0  0  0  0  0  0  0  0
   10.0172   -4.4740   17.4101 C   0  0  0  0  0  0  0  0  0  0  0  0
    6.9051   -7.9575   16.4222 C   0  0  0  0  0  0  0  0  0  0  0  0
    8.9969   -6.3552   17.9668 N   0  0  0  0  0  0  0  0  0  0  0  0
   10.6702   -3.9051   22.4070 C   0  0  0  0  0  0  0  0  0  0  0  0
   11.0625   -3.0028   18.8894 C   0  0  0  0  0  0  0  0  0  0  0  0
    5.6180   -7.9194   16.1754 O   0  0  0  0  0  0  0  0  0  0  0  0
    9.7259   -5.3080   18.4485 C   0  0  0  0  0  0  0  0  0  0  0  0
    9.4578   -5.0200   16.3036 N   0  0  0  0  0  0  0  0  0  0  0  0
    5.0287   -8.9365   16.8223 C   0  0  0  0  0  0  0  0  0  0  0  0
    8.7742   -6.1498   16.6764 C   0  0  0  0  0  0  0  0  0  0  0  0
   10.9418   -3.4032   21.2053 O   0  0  0  0  0  0  0  0  0  0  0  0
    1.4797   -8.6258   16.2950 C   0  0  0  0  0  0  0  0  0  0  0  0
    9.2861   -1.2743   25.3585 C   0  0  0  0  0  0  0  0  0  0  0  0
    1.8892  -10.3985   17.7511 N   0  0  0  0  0  0  0  0  0  0  0  0
    9.6210   -0.6952   24.0976 C   0  0  0  0  0  0  0  0  0  0  0  0
    7.0792   -9.0217   17.1429 C   0  0  0  0  0  0  0  0  0  0  0  0
    3.1713  -10.1816   17.6634 C   0  0  0  0  0  0  0  0  0  0  0  0
    2.7878   -8.3822   16.2137 C   0  0  0  0  0  0  0  0  0  0  0  0
    9.4601   -2.6590   25.6528 C   0  0  0  0  0  0  0  0  0  0  0  0
   10.1182   -1.5672   23.1165 C   0  0  0  0  0  0  0  0  0  0  0  0
    1.0552   -9.6360   17.0650 C   0  0  0  0  0  0  0  0  0  0  0  0
    3.6519   -9.1783   16.9039 C   0  0  0  0  0  0  0  0  0  0  0  0
    7.8675   -7.0096   15.9415 C   0  0  0  0  0  0  0  0  0  0  0  0
    5.9733   -9.6553   17.3832 N   0  0  0  0  0  0  0  0  0  0  0  0
   10.2411   -2.9363   23.4301 C   0  0  0  0  0  0  0  0  0  0  0  0
   10.7288   -3.8197   19.9525 C   0  0  0  0  0  0  0  0  0  0  0  0
   10.1189   -5.0054   19.6987 C   0  0  0  0  0  0  0  0  0  0  0  0
  1  3  4  0
  1  7  4  0
  2 21  4  0
  2 27  4  0
  3  9  4  0
  3 10  4  0
  4  8  4  0
  4 18  4  0
  4 25  1  0
  5  9  4  0
  5 12  4  0
  6 13  1  0
  6 27  1  0
  7 28  4  0
  8 11  4  0
  9 29  4  0
 10 12  4  0
 11 24  1  0
 11 26  4  0
 12 25  1  0
 13 28  1  0
 14 20  4  0
 14 23  4  0
 15 17  4  0
 15 21  4  0
 16 19  4  0
 16 23  4  0
 17 22  4  0
 18 26  4  0
 19 24  4  0
 20 24  4  0
 22 27  4  0
 28 29  4  0
M  END
$$$$

 Created by Python create_sdf_string function

 29 33  0  0  0  0  0  0  0  0999 V2000
   10.7215   -3.3326   17.6437 C   0  0  0  0  0  0  0  0  0  0  0  0
    9.9489   -3.4675   24.6487 N   0  0  0  0  0  0  0  0  0  0  0  0
   10.0172   -4.4740   17.4101 C   0  0  0  0  0  0  0  0  0  0  0  0
    6.9051   -7.9575   16.4222 C   0  0  0  0  0  0  0  0  0  0  0  0
    8.9969   -6.3552   17.9668 N   0  0  0  0  0  0  0  0  0  0  0  0
   10.6702   -3.9051   22.4070 C   0  0  0  0  0  0  0  0  0  0  0  0
   11.0625   -3.0028   18.8894 C   0  0  0  0  0  0  0  0  0  0  0  0
    5.6180   -7.9194   16.1754 O   0  0  0  0  0  0  0  0  0  0  0  0
    9.7259   -5.3080   18.4485 C   0  0  0  0  0  0  0  0  0  0  0  0
    9.4578   -5.0200   16.3036 N   0  0  0  0  0  0  0  0  0  0  0  0
    5.0287   -8.9365   16.8223 C   0  0  0  0  0  0  0  0  0  0  0  0
    8.7742   -6.1498   16.6764 C   0  0  0  0  0  0  0  0  0  0  0  0
   10.9418   -3.4032   21.2053 O   0  0  0  0  0  0  0  0  0  0  0  0
    1.4797   -8.6258   16.2950 C   0  0  0  0  0  0  0  0  0  0  0  0
    9.2861   -1.2743   25.3585 C   0  0  0  0  0  0  0  0  0  0  0  0
    1.8892  -10.3985   17.7511 N   0  0  0  0  0  0  0  0  0  0  0  0
    9.6210   -0.6952   24.0976 C   0  0  0  0  0  0  0  0  0  0  0  0
    7.0792   -9.0217   17.1429 C   0  0  0  0  0  0  0  0  0  0  0  0
    3.1713  -10.1816   17.6634 C   0  0  0  0  0  0  0  0  0  0  0  0
    2.7878   -8.3822   16.2137 C   0  0  0  0  0  0  0  0  0  0  0  0
    9.4601   -2.6590   25.6528 C   0  0  0  0  0  0  0  0  0  0  0  0
   10.1182   -1.5672   23.1165 C   0  0  0  0  0  0  0  0  0  0  0  0
    1.0552   -9.6360   17.0650 C   0  0  0  0  0  0  0  0  0  0  0  0
    3.6519   -9.1783   16.9039 C   0  0  0  0  0  0  0  0  0  0  0  0
    7.8675   -7.0096   15.9415 C   0  0  0  0  0  0  0  0  0  0  0  0
    5.9733   -9.6553   17.3832 N   0  0  0  0  0  0  0  0  0  0  0  0
   10.2411   -2.9363   23.4301 C   0  0  0  0  0  0  0  0  0  0  0  0
   10.7288   -3.8197   19.9525 C   0  0  0  0  0  0  0  0  0  0  0  0
   10.1189   -5.0054   19.6987 C   0  0  0  0  0  0  0  0  0  0  0  0
  1  3  4  0
  1  7  4  0
  2 21  4  0
  2 27  4  0
  3  9  4  0
  3 10  4  0
  4  8  4  0
  4 18  4  0
  4 25  1  0
  5  9  4  0
  5 12  4  0
  6 13  1  0
  6 27  1  0
  7 28  4  0
  8 11  4  0
  9 29  4  0
 10 12  4  0
 11 24  1  0
 11 26  4  0
 12 25  1  0
 13 28  1  0
 14 20  4  0
 14 23  4  0
 15 17  4  0
 15 21  4  0
 16 19  4  0
 16 23  4  0
 17 22  4  0
 18 26  4  0
 19 24  4  0
 20 24  4  0
 22 27  4  0
 28 29  4  0
M  END
$$$$

 Created by Python create_sdf_string function

 29 33  0  0  0  0  0  0  0  0999 V2000
   10.7215   -3.3326   17.6437 C   0  0  0  0  0  0  0  0  0  0  0  0
    9.9489   -3.4675   24.6487 N   0  0  0  0  0  0  0  0  0  0  0  0
   10.0172   -4.4740   17.4101 C   0  0  0  0  0  0  0  0  0  0  0  0
    6.9051   -7.9575   16.4222 C   0  0  0  0  0  0  0  0  0  0  0  0
    8.9969   -6.3552   17.9668 N   0  0  0  0  0  0  0  0  0  0  0  0
   10.6702   -3.9051   22.4070 C   0  0  0  0  0  0  0  0  0  0  0  0
   11.0625   -3.0028   18.8894 C   0  0  0  0  0  0  0  0  0  0  0  0
    5.6180   -7.9194   16.1754 O   0  0  0  0  0  0  0  0  0  0  0  0
    9.7259   -5.3080   18.4485 C   0  0  0  0  0  0  0  0  0  0  0  0
    9.4578   -5.0200   16.3036 N   0  0  0  0  0  0  0  0  0  0  0  0
    5.0287   -8.9365   16.8223 C   0  0  0  0  0  0  0  0  0  0  0  0
    8.7742   -6.1498   16.6764 C   0  0  0  0  0  0  0  0  0  0  0  0
   10.9418   -3.4032   21.2053 O   0  0  0  0  0  0  0  0  0  0  0  0
    1.4797   -8.6258   16.2950 C   0  0  0  0  0  0  0  0  0  0  0  0
    9.2861   -1.2743   25.3585 C   0  0  0  0  0  0  0  0  0  0  0  0
    1.8892  -10.3985   17.7511 N   0  0  0  0  0  0  0  0  0  0  0  0
    9.6210   -0.6952   24.0976 C   0  0  0  0  0  0  0  0  0  0  0  0
    7.0792   -9.0217   17.1429 C   0  0  0  0  0  0  0  0  0  0  0  0
    3.1713  -10.1816   17.6634 C   0  0  0  0  0  0  0  0  0  0  0  0
    2.7878   -8.3822   16.2137 C   0  0  0  0  0  0  0  0  0  0  0  0
    9.4601   -2.6590   25.6528 C   0  0  0  0  0  0  0  0  0  0  0  0
   10.1182   -1.5672   23.1165 C   0  0  0  0  0  0  0  0  0  0  0  0
    1.0552   -9.6360   17.0650 C   0  0  0  0  0  0  0  0  0  0  0  0
    3.6519   -9.1783   16.9039 C   0  0  0  0  0  0  0  0  0  0  0  0
    7.8675   -7.0096   15.9415 C   0  0  0  0  0  0  0  0  0  0  0  0
    5.9733   -9.6553   17.3832 N   0  0  0  0  0  0  0  0  0  0  0  0
   10.2411   -2.9363   23.4301 C   0  0  0  0  0  0  0  0  0  0  0  0
   10.7288   -3.8197   19.9525 C   0  0  0  0  0  0  0  0  0  0  0  0
   10.1189   -5.0054   19.6987 C   0  0  0  0  0  0  0  0  0  0  0  0
  1  3  4  0
  1  7  4  0
  2 21  4  0
  2 27  4  0
  3  9  4  0
  3 10  4  0
  4  8  4  0
  4 18  4  0
  4 25  1  0
  5  9  4  0
  5 12  4  0
  6 13  1  0
  6 27  1  0
  7 28  4  0
  8 11  4  0
  9 29  4  0
 10 12  4  0
 11 24  1  0
 11 26  4  0
 12 25  1  0
 13 28  1  0
 14 20  4  0
 14 23  4  0
 15 17  4  0
 15 21  4  0
 16 19  4  0
 16 23  4  0
 17 22  4  0
 18 26  4  0
 19 24  4  0
 20 24  4  0
 22 27  4  0
 28 29  4  0
M  END
$$$$

 Created by Python create_sdf_string function

 29 33  0  0  0  0  0  0  0  0999 V2000
   10.7215   -3.3326   17.6437 C   0  0  0  0  0  0  0  0  0  0  0  0
    9.9489   -3.4675   24.6487 N   0  0  0  0  0  0  0  0  0  0  0  0
   10.0172   -4.4740   17.4101 C   0  0  0  0  0  0  0  0  0  0  0  0
    6.9051   -7.9575   16.4222 C   0  0  0  0  0  0  0  0  0  0  0  0
    8.9969   -6.3552   17.9668 N   0  0  0  0  0  0  0  0  0  0  0  0
   10.6702   -3.9051   22.4070 C   0  0  0  0  0  0  0  0  0  0  0  0
   11.0625   -3.0028   18.8894 C   0  0  0  0  0  0  0  0  0  0  0  0
    5.6180   -7.9194   16.1754 O   0  0  0  0  0  0  0  0  0  0  0  0
    9.7259   -5.3080   18.4485 C   0  0  0  0  0  0  0  0  0  0  0  0
    9.4578   -5.0200   16.3036 N   0  0  0  0  0  0  0  0  0  0  0  0
    5.0287   -8.9365   16.8223 C   0  0  0  0  0  0  0  0  0  0  0  0
    8.7742   -6.1498   16.6764 C   0  0  0  0  0  0  0  0  0  0  0  0
   10.9418   -3.4032   21.2053 O   0  0  0  0  0  0  0  0  0  0  0  0
    1.4797   -8.6258   16.2950 C   0  0  0  0  0  0  0  0  0  0  0  0
    9.2861   -1.2743   25.3585 C   0  0  0  0  0  0  0  0  0  0  0  0
    1.8892  -10.3985   17.7511 N   0  0  0  0  0  0  0  0  0  0  0  0
    9.6210   -0.6952   24.0976 C   0  0  0  0  0  0  0  0  0  0  0  0
    7.0792   -9.0217   17.1429 C   0  0  0  0  0  0  0  0  0  0  0  0
    3.1713  -10.1816   17.6634 C   0  0  0  0  0  0  0  0  0  0  0  0
    2.7878   -8.3822   16.2137 C   0  0  0  0  0  0  0  0  0  0  0  0
    9.4601   -2.6590   25.6528 C   0  0  0  0  0  0  0  0  0  0  0  0
   10.1182   -1.5672   23.1165 C   0  0  0  0  0  0  0  0  0  0  0  0
    1.0552   -9.6360   17.0650 C   0  0  0  0  0  0  0  0  0  0  0  0
    3.6519   -9.1783   16.9039 C   0  0  0  0  0  0  0  0  0  0  0  0
    7.8675   -7.0096   15.9415 C   0  0  0  0  0  0  0  0  0  0  0  0
    5.9733   -9.6553   17.3832 N   0  0  0  0  0  0  0  0  0  0  0  0
   10.2411   -2.9363   23.4301 C   0  0  0  0  0  0  0  0  0  0  0  0
   10.7288   -3.8197   19.9525 C   0  0  0  0  0  0  0  0  0  0  0  0
   10.1189   -5.0054   19.6987 C   0  0  0  0  0  0  0  0  0  0  0  0
  1  3  4  0
  1  7  4  0
  2 21  4  0
  2 27  4  0
  3  9  4  0
  3 10  4  0
  4  8  4  0
  4 18  4  0
  4 25  1  0
  5  9  4  0
  5 12  4  0
  6 13  1  0
  6 27  1  0
  7 28  4  0
  8 11  4  0
  9 29  4  0
 10 12  4  0
 11 24  1  0
 11 26  4  0
 12 25  1  0
 13 28  1  0
 14 20  4  0
 14 23  4  0
 15 17  4  0
 15 21  4  0
 16 19  4  0
 16 23  4  0
 17 22  4  0
 18 26  4  0
 19 24  4  0
 20 24  4  0
 22 27  4  0
 28 29  4  0
M  END
$$$$

 Created by Python create_sdf_string function

 29 33  0  0  0  0  0  0  0  0999 V2000
   10.7215   -3.3326   17.6437 C   0  0  0  0  0  0  0  0  0  0  0  0
    9.9489   -3.4675   24.6487 N   0  0  0  0  0  0  0  0  0  0  0  0
   10.0172   -4.4740   17.4101 C   0  0  0  0  0  0  0  0  0  0  0  0
    6.9051   -7.9575   16.4222 C   0  0  0  0  0  0  0  0  0  0  0  0
    8.9969   -6.3552   17.9668 N   0  0  0  0  0  0  0  0  0  0  0  0
   10.6702   -3.9051   22.4070 C   0  0  0  0  0  0  0  0  0  0  0  0
   11.0625   -3.0028   18.8894 C   0  0  0  0  0  0  0  0  0  0  0  0
    5.6180   -7.9194   16.1754 O   0  0  0  0  0  0  0  0  0  0  0  0
    9.7259   -5.3080   18.4485 C   0  0  0  0  0  0  0  0  0  0  0  0
    9.4578   -5.0200   16.3036 N   0  0  0  0  0  0  0  0  0  0  0  0
    5.0287   -8.9365   16.8223 C   0  0  0  0  0  0  0  0  0  0  0  0
    8.7742   -6.1498   16.6764 C   0  0  0  0  0  0  0  0  0  0  0  0
   10.9418   -3.4032   21.2053 O   0  0  0  0  0  0  0  0  0  0  0  0
    1.4797   -8.6258   16.2950 C   0  0  0  0  0  0  0  0  0  0  0  0
    9.2861   -1.2743   25.3585 C   0  0  0  0  0  0  0  0  0  0  0  0
    1.8892  -10.3985   17.7511 N   0  0  0  0  0  0  0  0  0  0  0  0
    9.6210   -0.6952   24.0976 C   0  0  0  0  0  0  0  0  0  0  0  0
    7.0792   -9.0217   17.1429 C   0  0  0  0  0  0  0  0  0  0  0  0
    3.1713  -10.1816   17.6634 C   0  0  0  0  0  0  0  0  0  0  0  0
    2.7878   -8.3822   16.2137 C   0  0  0  0  0  0  0  0  0  0  0  0
    9.4601   -2.6590   25.6528 C   0  0  0  0  0  0  0  0  0  0  0  0
   10.1182   -1.5672   23.1165 C   0  0  0  0  0  0  0  0  0  0  0  0
    1.0552   -9.6360   17.0650 C   0  0  0  0  0  0  0  0  0  0  0  0
    3.6519   -9.1783   16.9039 C   0  0  0  0  0  0  0  0  0  0  0  0
    7.8675   -7.0096   15.9415 C   0  0  0  0  0  0  0  0  0  0  0  0
    5.9733   -9.6553   17.3832 N   0  0  0  0  0  0  0  0  0  0  0  0
   10.2411   -2.9363   23.4301 C   0  0  0  0  0  0  0  0  0  0  0  0
   10.7288   -3.8197   19.9525 C   0  0  0  0  0  0  0  0  0  0  0  0
   10.1189   -5.0054   19.6987 C   0  0  0  0  0  0  0  0  0  0  0  0
  1  3  4  0
  1  7  4  0
  2 21  4  0
  2 27  4  0
  3  9  4  0
  3 10  4  0
  4  8  4  0
  4 18  4  0
  4 25  1  0
  5  9  4  0
  5 12  4  0
  6 13  1  0
  6 27  1  0
  7 28  4  0
  8 11  4  0
  9 29  4  0
 10 12  4  0
 11 24  1  0
 11 26  4  0
 12 25  1  0
 13 28  1  0
 14 20  4  0
 14 23  4  0
 15 17  4  0
 15 21  4  0
 16 19  4  0
 16 23  4  0
 17 22  4  0
 18 26  4  0
 19 24  4  0
 20 24  4  0
 22 27  4  0
 28 29  4  0
M  END
$$$$

 Created by Python create_sdf_string function

 29 33  0  0  0  0  0  0  0  0999 V2000
   10.7215   -3.3326   17.6437 C   0  0  0  0  0  0  0  0  0  0  0  0
    9.9489   -3.4675   24.6487 N   0  0  0  0  0  0  0  0  0  0  0  0
   10.0172   -4.4740   17.4101 C   0  0  0  0  0  0  0  0  0  0  0  0
    6.9051   -7.9575   16.4222 C   0  0  0  0  0  0  0  0  0  0  0  0
    8.9969   -6.3552   17.9668 N   0  0  0  0  0  0  0  0  0  0  0  0
   10.6702   -3.9051   22.4070 C   0  0  0  0  0  0  0  0  0  0  0  0
   11.0625   -3.0028   18.8894 C   0  0  0  0  0  0  0  0  0  0  0  0
    5.6180   -7.9194   16.1754 O   0  0  0  0  0  0  0  0  0  0  0  0
    9.7259   -5.3080   18.4485 C   0  0  0  0  0  0  0  0  0  0  0  0
    9.4578   -5.0200   16.3036 N   0  0  0  0  0  0  0  0  0  0  0  0
    5.0287   -8.9365   16.8223 C   0  0  0  0  0  0  0  0  0  0  0  0
    8.7742   -6.1498   16.6764 C   0  0  0  0  0  0  0  0  0  0  0  0
   10.9418   -3.4032   21.2053 O   0  0  0  0  0  0  0  0  0  0  0  0
    1.4797   -8.6258   16.2950 C   0  0  0  0  0  0  0  0  0  0  0  0
    9.2861   -1.2743   25.3585 C   0  0  0  0  0  0  0  0  0  0  0  0
    1.8892  -10.3985   17.7511 N   0  0  0  0  0  0  0  0  0  0  0  0
    9.6210   -0.6952   24.0976 C   0  0  0  0  0  0  0  0  0  0  0  0
    7.0792   -9.0217   17.1429 C   0  0  0  0  0  0  0  0  0  0  0  0
    3.1713  -10.1816   17.6634 C   0  0  0  0  0  0  0  0  0  0  0  0
    2.7878   -8.3822   16.2137 C   0  0  0  0  0  0  0  0  0  0  0  0
    9.4601   -2.6590   25.6528 C   0  0  0  0  0  0  0  0  0  0  0  0
   10.1182   -1.5672   23.1165 C   0  0  0  0  0  0  0  0  0  0  0  0
    1.0552   -9.6360   17.0650 C   0  0  0  0  0  0  0  0  0  0  0  0
    3.6519   -9.1783   16.9039 C   0  0  0  0  0  0  0  0  0  0  0  0
    7.8675   -7.0096   15.9415 C   0  0  0  0  0  0  0  0  0  0  0  0
    5.9733   -9.6553   17.3832 N   0  0  0  0  0  0  0  0  0  0  0  0
   10.2411   -2.9363   23.4301 C   0  0  0  0  0  0  0  0  0  0  0  0
   10.7288   -3.8197   19.9525 C   0  0  0  0  0  0  0  0  0  0  0  0
   10.1189   -5.0054   19.6987 C   0  0  0  0  0  0  0  0  0  0  0  0
  1  3  4  0
  1  7  4  0
  2 21  4  0
  2 27  4  0
  3  9  4  0
  3 10  4  0
  4  8  4  0
  4 18  4  0
  4 25  1  0
  5  9  4  0
  5 12  4  0
  6 13  1  0
  6 27  1  0
  7 28  4  0
  8 11  4  0
  9 29  4  0
 10 12  4  0
 11 24  1  0
 11 26  4  0
 12 25  1  0
 13 28  1  0
 14 20  4  0
 14 23  4  0
 15 17  4  0
 15 21  4  0
 16 19  4  0
 16 23  4  0
 17 22  4  0
 18 26  4  0
 19 24  4  0
 20 24  4  0
 22 27  4  0
 28 29  4  0
M  END
$$$$

 Created by Python create_sdf_string function

 29 33  0  0  0  0  0  0  0  0999 V2000
   10.7215   -3.3326   17.6437 C   0  0  0  0  0  0  0  0  0  0  0  0
    9.9489   -3.4675   24.6487 N   0  0  0  0  0  0  0  0  0  0  0  0
   10.0172   -4.4740   17.4101 C   0  0  0  0  0  0  0  0  0  0  0  0
    6.9051   -7.9575   16.4222 C   0  0  0  0  0  0  0  0  0  0  0  0
    8.9969   -6.3552   17.9668 N   0  0  0  0  0  0  0  0  0  0  0  0
   10.6702   -3.9051   22.4070 C   0  0  0  0  0  0  0  0  0  0  0  0
   11.0625   -3.0028   18.8894 C   0  0  0  0  0  0  0  0  0  0  0  0
    5.6180   -7.9194   16.1754 O   0  0  0  0  0  0  0  0  0  0  0  0
    9.7259   -5.3080   18.4485 C   0  0  0  0  0  0  0  0  0  0  0  0
    9.4578   -5.0200   16.3036 N   0  0  0  0  0  0  0  0  0  0  0  0
    5.0287   -8.9365   16.8223 C   0  0  0  0  0  0  0  0  0  0  0  0
    8.7742   -6.1498   16.6764 C   0  0  0  0  0  0  0  0  0  0  0  0
   10.9418   -3.4032   21.2053 O   0  0  0  0  0  0  0  0  0  0  0  0
    1.4797   -8.6258   16.2950 C   0  0  0  0  0  0  0  0  0  0  0  0
    9.2861   -1.2743   25.3585 C   0  0  0  0  0  0  0  0  0  0  0  0
    1.8892  -10.3985   17.7511 N   0  0  0  0  0  0  0  0  0  0  0  0
    9.6210   -0.6952   24.0976 C   0  0  0  0  0  0  0  0  0  0  0  0
    7.0792   -9.0217   17.1429 C   0  0  0  0  0  0  0  0  0  0  0  0
    3.1713  -10.1816   17.6634 C   0  0  0  0  0  0  0  0  0  0  0  0
    2.7878   -8.3822   16.2137 C   0  0  0  0  0  0  0  0  0  0  0  0
    9.4601   -2.6590   25.6528 C   0  0  0  0  0  0  0  0  0  0  0  0
   10.1182   -1.5672   23.1165 C   0  0  0  0  0  0  0  0  0  0  0  0
    1.0552   -9.6360   17.0650 C   0  0  0  0  0  0  0  0  0  0  0  0
    3.6519   -9.1783   16.9039 C   0  0  0  0  0  0  0  0  0  0  0  0
    7.8675   -7.0096   15.9415 C   0  0  0  0  0  0  0  0  0  0  0  0
    5.9733   -9.6553   17.3832 N   0  0  0  0  0  0  0  0  0  0  0  0
   10.2411   -2.9363   23.4301 C   0  0  0  0  0  0  0  0  0  0  0  0
   10.7288   -3.8197   19.9525 C   0  0  0  0  0  0  0  0  0  0  0  0
   10.1189   -5.0054   19.6987 C   0  0  0  0  0  0  0  0  0  0  0  0
  1  3  4  0
  1  7  4  0
  2 21  4  0
  2 27  4  0
  3  9  4  0
  3 10  4  0
  4  8  4  0
  4 18  4  0
  4 25  1  0
  5  9  4  0
  5 12  4  0
  6 13  1  0
  6 27  1  0
  7 28  4  0
  8 11  4  0
  9 29  4  0
 10 12  4  0
 11 24  1  0
 11 26  4  0
 12 25  1  0
 13 28  1  0
 14 20  4  0
 14 23  4  0
 15 17  4  0
 15 21  4  0
 16 19  4  0
 16 23  4  0
 17 22  4  0
 18 26  4  0
 19 24  4  0
 20 24  4  0
 22 27  4  0
 28 29  4  0
M  END
$$$$

 Created by Python create_sdf_string function

 29 33  0  0  0  0  0  0  0  0999 V2000
   10.7215   -3.3326   17.6437 C   0  0  0  0  0  0  0  0  0  0  0  0
    9.9489   -3.4675   24.6487 N   0  0  0  0  0  0  0  0  0  0  0  0
   10.0172   -4.4740   17.4101 C   0  0  0  0  0  0  0  0  0  0  0  0
    6.9051   -7.9575   16.4222 C   0  0  0  0  0  0  0  0  0  0  0  0
    8.9969   -6.3552   17.9668 N   0  0  0  0  0  0  0  0  0  0  0  0
   10.6702   -3.9051   22.4070 C   0  0  0  0  0  0  0  0  0  0  0  0
   11.0625   -3.0028   18.8894 C   0  0  0  0  0  0  0  0  0  0  0  0
    5.6180   -7.9194   16.1754 O   0  0  0  0  0  0  0  0  0  0  0  0
    9.7259   -5.3080   18.4485 C   0  0  0  0  0  0  0  0  0  0  0  0
    9.4578   -5.0200   16.3036 N   0  0  0  0  0  0  0  0  0  0  0  0
    5.0287   -8.9365   16.8223 C   0  0  0  0  0  0  0  0  0  0  0  0
    8.7742   -6.1498   16.6764 C   0  0  0  0  0  0  0  0  0  0  0  0
   10.9418   -3.4032   21.2053 O   0  0  0  0  0  0  0  0  0  0  0  0
    1.4797   -8.6258   16.2950 C   0  0  0  0  0  0  0  0  0  0  0  0
    9.2861   -1.2743   25.3585 C   0  0  0  0  0  0  0  0  0  0  0  0
    1.8892  -10.3985   17.7511 N   0  0  0  0  0  0  0  0  0  0  0  0
    9.6210   -0.6952   24.0976 C   0  0  0  0  0  0  0  0  0  0  0  0
    7.0792   -9.0217   17.1429 C   0  0  0  0  0  0  0  0  0  0  0  0
    3.1713  -10.1816   17.6634 C   0  0  0  0  0  0  0  0  0  0  0  0
    2.7878   -8.3822   16.2137 C   0  0  0  0  0  0  0  0  0  0  0  0
    9.4601   -2.6590   25.6528 C   0  0  0  0  0  0  0  0  0  0  0  0
   10.1182   -1.5672   23.1165 C   0  0  0  0  0  0  0  0  0  0  0  0
    1.0552   -9.6360   17.0650 C   0  0  0  0  0  0  0  0  0  0  0  0
    3.6519   -9.1783   16.9039 C   0  0  0  0  0  0  0  0  0  0  0  0
    7.8675   -7.0096   15.9415 C   0  0  0  0  0  0  0  0  0  0  0  0
    5.9733   -9.6553   17.3832 N   0  0  0  0  0  0  0  0  0  0  0  0
   10.2411   -2.9363   23.4301 C   0  0  0  0  0  0  0  0  0  0  0  0
   10.7288   -3.8197   19.9525 C   0  0  0  0  0  0  0  0  0  0  0  0
   10.1189   -5.0054   19.6987 C   0  0  0  0  0  0  0  0  0  0  0  0
  1  3  4  0
  1  7  4  0
  2 21  4  0
  2 27  4  0
  3  9  4  0
  3 10  4  0
  4  8  4  0
  4 18  4  0
  4 25  1  0
  5  9  4  0
  5 12  4  0
  6 13  1  0
  6 27  1  0
  7 28  4  0
  8 11  4  0
  9 29  4  0
 10 12  4  0
 11 24  1  0
 11 26  4  0
 12 25  1  0
 13 28  1  0
 14 20  4  0
 14 23  4  0
 15 17  4  0
 15 21  4  0
 16 19  4  0
 16 23  4  0
 17 22  4  0
 18 26  4  0
 19 24  4  0
 20 24  4  0
 22 27  4  0
 28 29  4  0
M  END
$$$$

 Created by Python create_sdf_string function

 29 33  0  0  0  0  0  0  0  0999 V2000
   10.7215   -3.3326   17.6437 C   0  0  0  0  0  0  0  0  0  0  0  0
    9.9489   -3.4675   24.6487 N   0  0  0  0  0  0  0  0  0  0  0  0
   10.0172   -4.4740   17.4101 C   0  0  0  0  0  0  0  0  0  0  0  0
    6.9051   -7.9575   16.4222 C   0  0  0  0  0  0  0  0  0  0  0  0
    8.9969   -6.3552   17.9668 N   0  0  0  0  0  0  0  0  0  0  0  0
   10.6702   -3.9051   22.4070 C   0  0  0  0  0  0  0  0  0  0  0  0
   11.0625   -3.0028   18.8894 C   0  0  0  0  0  0  0  0  0  0  0  0
    5.6180   -7.9194   16.1754 O   0  0  0  0  0  0  0  0  0  0  0  0
    9.7259   -5.3080   18.4485 C   0  0  0  0  0  0  0  0  0  0  0  0
    9.4578   -5.0200   16.3036 N   0  0  0  0  0  0  0  0  0  0  0  0
    5.0287   -8.9365   16.8223 C   0  0  0  0  0  0  0  0  0  0  0  0
    8.7742   -6.1498   16.6764 C   0  0  0  0  0  0  0  0  0  0  0  0
   10.9418   -3.4032   21.2053 O   0  0  0  0  0  0  0  0  0  0  0  0
    1.4797   -8.6258   16.2950 C   0  0  0  0  0  0  0  0  0  0  0  0
    9.2861   -1.2743   25.3585 C   0  0  0  0  0  0  0  0  0  0  0  0
    1.8892  -10.3985   17.7511 N   0  0  0  0  0  0  0  0  0  0  0  0
    9.6210   -0.6952   24.0976 C   0  0  0  0  0  0  0  0  0  0  0  0
    7.0792   -9.0217   17.1429 C   0  0  0  0  0  0  0  0  0  0  0  0
    3.1713  -10.1816   17.6634 C   0  0  0  0  0  0  0  0  0  0  0  0
    2.7878   -8.3822   16.2137 C   0  0  0  0  0  0  0  0  0  0  0  0
    9.4601   -2.6590   25.6528 C   0  0  0  0  0  0  0  0  0  0  0  0
   10.1182   -1.5672   23.1165 C   0  0  0  0  0  0  0  0  0  0  0  0
    1.0552   -9.6360   17.0650 C   0  0  0  0  0  0  0  0  0  0  0  0
    3.6519   -9.1783   16.9039 C   0  0  0  0  0  0  0  0  0  0  0  0
    7.8675   -7.0096   15.9415 C   0  0  0  0  0  0  0  0  0  0  0  0
    5.9733   -9.6553   17.3832 N   0  0  0  0  0  0  0  0  0  0  0  0
   10.2411   -2.9363   23.4301 C   0  0  0  0  0  0  0  0  0  0  0  0
   10.7288   -3.8197   19.9525 C   0  0  0  0  0  0  0  0  0  0  0  0
   10.1189   -5.0054   19.6987 C   0  0  0  0  0  0  0  0  0  0  0  0
  1  3  4  0
  1  7  4  0
  2 21  4  0
  2 27  4  0
  3  9  4  0
  3 10  4  0
  4  8  4  0
  4 18  4  0
  4 25  1  0
  5  9  4  0
  5 12  4  0
  6 13  1  0
  6 27  1  0
  7 28  4  0
  8 11  4  0
  9 29  4  0
 10 12  4  0
 11 24  1  0
 11 26  4  0
 12 25  1  0
 13 28  1  0
 14 20  4  0
 14 23  4  0
 15 17  4  0
 15 21  4  0
 16 19  4  0
 16 23  4  0
 17 22  4  0
 18 26  4  0
 19 24  4  0
 20 24  4  0
 22 27  4  0
 28 29  4  0
M  END
$$$$

 Created by Python create_sdf_string function

 29 33  0  0  0  0  0  0  0  0999 V2000
   10.7215   -3.3326   17.6437 C   0  0  0  0  0  0  0  0  0  0  0  0
    9.9489   -3.4675   24.6487 N   0  0  0  0  0  0  0  0  0  0  0  0
   10.0172   -4.4740   17.4101 C   0  0  0  0  0  0  0  0  0  0  0  0
    6.9051   -7.9575   16.4222 C   0  0  0  0  0  0  0  0  0  0  0  0
    8.9969   -6.3552   17.9668 N   0  0  0  0  0  0  0  0  0  0  0  0
   10.6702   -3.9051   22.4070 C   0  0  0  0  0  0  0  0  0  0  0  0
   11.0625   -3.0028   18.8894 C   0  0  0  0  0  0  0  0  0  0  0  0
    5.6180   -7.9194   16.1754 O   0  0  0  0  0  0  0  0  0  0  0  0
    9.7259   -5.3080   18.4485 C   0  0  0  0  0  0  0  0  0  0  0  0
    9.4578   -5.0200   16.3036 N   0  0  0  0  0  0  0  0  0  0  0  0
    5.0287   -8.9365   16.8223 C   0  0  0  0  0  0  0  0  0  0  0  0
    8.7742   -6.1498   16.6764 C   0  0  0  0  0  0  0  0  0  0  0  0
   10.9418   -3.4032   21.2053 O   0  0  0  0  0  0  0  0  0  0  0  0
    1.4797   -8.6258   16.2950 C   0  0  0  0  0  0  0  0  0  0  0  0
    9.2861   -1.2743   25.3585 C   0  0  0  0  0  0  0  0  0  0  0  0
    1.8892  -10.3985   17.7511 N   0  0  0  0  0  0  0  0  0  0  0  0
    9.6210   -0.6952   24.0976 C   0  0  0  0  0  0  0  0  0  0  0  0
    7.0792   -9.0217   17.1429 C   0  0  0  0  0  0  0  0  0  0  0  0
    3.1713  -10.1816   17.6634 C   0  0  0  0  0  0  0  0  0  0  0  0
    2.7878   -8.3822   16.2137 C   0  0  0  0  0  0  0  0  0  0  0  0
    9.4601   -2.6590   25.6528 C   0  0  0  0  0  0  0  0  0  0  0  0
   10.1182   -1.5672   23.1165 C   0  0  0  0  0  0  0  0  0  0  0  0
    1.0552   -9.6360   17.0650 C   0  0  0  0  0  0  0  0  0  0  0  0
    3.6519   -9.1783   16.9039 C   0  0  0  0  0  0  0  0  0  0  0  0
    7.8675   -7.0096   15.9415 C   0  0  0  0  0  0  0  0  0  0  0  0
    5.9733   -9.6553   17.3832 N   0  0  0  0  0  0  0  0  0  0  0  0
   10.2411   -2.9363   23.4301 C   0  0  0  0  0  0  0  0  0  0  0  0
   10.7288   -3.8197   19.9525 C   0  0  0  0  0  0  0  0  0  0  0  0
   10.1189   -5.0054   19.6987 C   0  0  0  0  0  0  0  0  0  0  0  0
  1  3  4  0
  1  7  4  0
  2 21  4  0
  2 27  4  0
  3  9  4  0
  3 10  4  0
  4  8  4  0
  4 18  4  0
  4 25  1  0
  5  9  4  0
  5 12  4  0
  6 13  1  0
  6 27  1  0
  7 28  4  0
  8 11  4  0
  9 29  4  0
 10 12  4  0
 11 24  1  0
 11 26  4  0
 12 25  1  0
 13 28  1  0
 14 20  4  0
 14 23  4  0
 15 17  4  0
 15 21  4  0
 16 19  4  0
 16 23  4  0
 17 22  4  0
 18 26  4  0
 19 24  4  0
 20 24  4  0
 22 27  4  0
 28 29  4  0
M  END
$$$$

 Created by Python create_sdf_string function

 29 33  0  0  0  0  0  0  0  0999 V2000
   10.7215   -3.3326   17.6437 C   0  0  0  0  0  0  0  0  0  0  0  0
    9.9489   -3.4675   24.6487 N   0  0  0  0  0  0  0  0  0  0  0  0
   10.0172   -4.4740   17.4101 C   0  0  0  0  0  0  0  0  0  0  0  0
    6.9051   -7.9575   16.4222 C   0  0  0  0  0  0  0  0  0  0  0  0
    8.9969   -6.3552   17.9668 N   0  0  0  0  0  0  0  0  0  0  0  0
   10.6702   -3.9051   22.4070 C   0  0  0  0  0  0  0  0  0  0  0  0
   11.0625   -3.0028   18.8894 C   0  0  0  0  0  0  0  0  0  0  0  0
    5.6180   -7.9194   16.1754 O   0  0  0  0  0  0  0  0  0  0  0  0
    9.7259   -5.3080   18.4485 C   0  0  0  0  0  0  0  0  0  0  0  0
    9.4578   -5.0200   16.3036 N   0  0  0  0  0  0  0  0  0  0  0  0
    5.0287   -8.9365   16.8223 C   0  0  0  0  0  0  0  0  0  0  0  0
    8.7742   -6.1498   16.6764 C   0  0  0  0  0  0  0  0  0  0  0  0
   10.9418   -3.4032   21.2053 O   0  0  0  0  0  0  0  0  0  0  0  0
    1.4797   -8.6258   16.2950 C   0  0  0  0  0  0  0  0  0  0  0  0
    9.2861   -1.2743   25.3585 C   0  0  0  0  0  0  0  0  0  0  0  0
    1.8892  -10.3985   17.7511 N   0  0  0  0  0  0  0  0  0  0  0  0
    9.6210   -0.6952   24.0976 C   0  0  0  0  0  0  0  0  0  0  0  0
    7.0792   -9.0217   17.1429 C   0  0  0  0  0  0  0  0  0  0  0  0
    3.1713  -10.1816   17.6634 C   0  0  0  0  0  0  0  0  0  0  0  0
    2.7878   -8.3822   16.2137 C   0  0  0  0  0  0  0  0  0  0  0  0
    9.4601   -2.6590   25.6528 C   0  0  0  0  0  0  0  0  0  0  0  0
   10.1182   -1.5672   23.1165 C   0  0  0  0  0  0  0  0  0  0  0  0
    1.0552   -9.6360   17.0650 C   0  0  0  0  0  0  0  0  0  0  0  0
    3.6519   -9.1783   16.9039 C   0  0  0  0  0  0  0  0  0  0  0  0
    7.8675   -7.0096   15.9415 C   0  0  0  0  0  0  0  0  0  0  0  0
    5.9733   -9.6553   17.3832 N   0  0  0  0  0  0  0  0  0  0  0  0
   10.2411   -2.9363   23.4301 C   0  0  0  0  0  0  0  0  0  0  0  0
   10.7288   -3.8197   19.9525 C   0  0  0  0  0  0  0  0  0  0  0  0
   10.1189   -5.0054   19.6987 C   0  0  0  0  0  0  0  0  0  0  0  0
  1  3  4  0
  1  7  4  0
  2 21  4  0
  2 27  4  0
  3  9  4  0
  3 10  4  0
  4  8  4  0
  4 18  4  0
  4 25  1  0
  5  9  4  0
  5 12  4  0
  6 13  1  0
  6 27  1  0
  7 28  4  0
  8 11  4  0
  9 29  4  0
 10 12  4  0
 11 24  1  0
 11 26  4  0
 12 25  1  0
 13 28  1  0
 14 20  4  0
 14 23  4  0
 15 17  4  0
 15 21  4  0
 16 19  4  0
 16 23  4  0
 17 22  4  0
 18 26  4  0
 19 24  4  0
 20 24  4  0
 22 27  4  0
 28 29  4  0
M  END
$$$$

 Created by Python create_sdf_string function

 29 33  0  0  0  0  0  0  0  0999 V2000
   10.7215   -3.3326   17.6437 C   0  0  0  0  0  0  0  0  0  0  0  0
    9.9489   -3.4675   24.6487 N   0  0  0  0  0  0  0  0  0  0  0  0
   10.0172   -4.4740   17.4101 C   0  0  0  0  0  0  0  0  0  0  0  0
    6.9051   -7.9575   16.4222 C   0  0  0  0  0  0  0  0  0  0  0  0
    8.9969   -6.3552   17.9668 N   0  0  0  0  0  0  0  0  0  0  0  0
   10.6702   -3.9051   22.4070 C   0  0  0  0  0  0  0  0  0  0  0  0
   11.0625   -3.0028   18.8894 C   0  0  0  0  0  0  0  0  0  0  0  0
    5.6180   -7.9194   16.1754 O   0  0  0  0  0  0  0  0  0  0  0  0
    9.7259   -5.3080   18.4485 C   0  0  0  0  0  0  0  0  0  0  0  0
    9.4578   -5.0200   16.3036 N   0  0  0  0  0  0  0  0  0  0  0  0
    5.0287   -8.9365   16.8223 C   0  0  0  0  0  0  0  0  0  0  0  0
    8.7742   -6.1498   16.6764 C   0  0  0  0  0  0  0  0  0  0  0  0
   10.9418   -3.4032   21.2053 O   0  0  0  0  0  0  0  0  0  0  0  0
    1.4797   -8.6258   16.2950 C   0  0  0  0  0  0  0  0  0  0  0  0
    9.2861   -1.2743   25.3585 C   0  0  0  0  0  0  0  0  0  0  0  0
    1.8892  -10.3985   17.7511 N   0  0  0  0  0  0  0  0  0  0  0  0
    9.6210   -0.6952   24.0976 C   0  0  0  0  0  0  0  0  0  0  0  0
    7.0792   -9.0217   17.1429 C   0  0  0  0  0  0  0  0  0  0  0  0
    3.1713  -10.1816   17.6634 C   0  0  0  0  0  0  0  0  0  0  0  0
    2.7878   -8.3822   16.2137 C   0  0  0  0  0  0  0  0  0  0  0  0
    9.4601   -2.6590   25.6528 C   0  0  0  0  0  0  0  0  0  0  0  0
   10.1182   -1.5672   23.1165 C   0  0  0  0  0  0  0  0  0  0  0  0
    1.0552   -9.6360   17.0650 C   0  0  0  0  0  0  0  0  0  0  0  0
    3.6519   -9.1783   16.9039 C   0  0  0  0  0  0  0  0  0  0  0  0
    7.8675   -7.0096   15.9415 C   0  0  0  0  0  0  0  0  0  0  0  0
    5.9733   -9.6553   17.3832 N   0  0  0  0  0  0  0  0  0  0  0  0
   10.2411   -2.9363   23.4301 C   0  0  0  0  0  0  0  0  0  0  0  0
   10.7288   -3.8197   19.9525 C   0  0  0  0  0  0  0  0  0  0  0  0
   10.1189   -5.0054   19.6987 C   0  0  0  0  0  0  0  0  0  0  0  0
  1  3  4  0
  1  7  4  0
  2 21  4  0
  2 27  4  0
  3  9  4  0
  3 10  4  0
  4  8  4  0
  4 18  4  0
  4 25  1  0
  5  9  4  0
  5 12  4  0
  6 13  1  0
  6 27  1  0
  7 28  4  0
  8 11  4  0
  9 29  4  0
 10 12  4  0
 11 24  1  0
 11 26  4  0
 12 25  1  0
 13 28  1  0
 14 20  4  0
 14 23  4  0
 15 17  4  0
 15 21  4  0
 16 19  4  0
 16 23  4  0
 17 22  4  0
 18 26  4  0
 19 24  4  0
 20 24  4  0
 22 27  4  0
 28 29  4  0
M  END
$$$$

 Created by Python create_sdf_string function

 29 33  0  0  0  0  0  0  0  0999 V2000
   10.7215   -3.3326   17.6437 C   0  0  0  0  0  0  0  0  0  0  0  0
    9.9489   -3.4675   24.6487 N   0  0  0  0  0  0  0  0  0  0  0  0
   10.0172   -4.4740   17.4101 C   0  0  0  0  0  0  0  0  0  0  0  0
    6.9051   -7.9575   16.4222 C   0  0  0  0  0  0  0  0  0  0  0  0
    8.9969   -6.3552   17.9668 N   0  0  0  0  0  0  0  0  0  0  0  0
   10.6702   -3.9051   22.4070 C   0  0  0  0  0  0  0  0  0  0  0  0
   11.0625   -3.0028   18.8894 C   0  0  0  0  0  0  0  0  0  0  0  0
    5.6180   -7.9194   16.1754 O   0  0  0  0  0  0  0  0  0  0  0  0
    9.7259   -5.3080   18.4485 C   0  0  0  0  0  0  0  0  0  0  0  0
    9.4578   -5.0200   16.3036 N   0  0  0  0  0  0  0  0  0  0  0  0
    5.0287   -8.9365   16.8223 C   0  0  0  0  0  0  0  0  0  0  0  0
    8.7742   -6.1498   16.6764 C   0  0  0  0  0  0  0  0  0  0  0  0
   10.9418   -3.4032   21.2053 O   0  0  0  0  0  0  0  0  0  0  0  0
    1.4797   -8.6258   16.2950 C   0  0  0  0  0  0  0  0  0  0  0  0
    9.2861   -1.2743   25.3585 C   0  0  0  0  0  0  0  0  0  0  0  0
    1.8892  -10.3985   17.7511 N   0  0  0  0  0  0  0  0  0  0  0  0
    9.6210   -0.6952   24.0976 C   0  0  0  0  0  0  0  0  0  0  0  0
    7.0792   -9.0217   17.1429 C   0  0  0  0  0  0  0  0  0  0  0  0
    3.1713  -10.1816   17.6634 C   0  0  0  0  0  0  0  0  0  0  0  0
    2.7878   -8.3822   16.2137 C   0  0  0  0  0  0  0  0  0  0  0  0
    9.4601   -2.6590   25.6528 C   0  0  0  0  0  0  0  0  0  0  0  0
   10.1182   -1.5672   23.1165 C   0  0  0  0  0  0  0  0  0  0  0  0
    1.0552   -9.6360   17.0650 C   0  0  0  0  0  0  0  0  0  0  0  0
    3.6519   -9.1783   16.9039 C   0  0  0  0  0  0  0  0  0  0  0  0
    7.8675   -7.0096   15.9415 C   0  0  0  0  0  0  0  0  0  0  0  0
    5.9733   -9.6553   17.3832 N   0  0  0  0  0  0  0  0  0  0  0  0
   10.2411   -2.9363   23.4301 C   0  0  0  0  0  0  0  0  0  0  0  0
   10.7288   -3.8197   19.9525 C   0  0  0  0  0  0  0  0  0  0  0  0
   10.1189   -5.0054   19.6987 C   0  0  0  0  0  0  0  0  0  0  0  0
  1  3  4  0
  1  7  4  0
  2 21  4  0
  2 27  4  0
  3  9  4  0
  3 10  4  0
  4  8  4  0
  4 18  4  0
  4 25  1  0
  5  9  4  0
  5 12  4  0
  6 13  1  0
  6 27  1  0
  7 28  4  0
  8 11  4  0
  9 29  4  0
 10 12  4  0
 11 24  1  0
 11 26  4  0
 12 25  1  0
 13 28  1  0
 14 20  4  0
 14 23  4  0
 15 17  4  0
 15 21  4  0
 16 19  4  0
 16 23  4  0
 17 22  4  0
 18 26  4  0
 19 24  4  0
 20 24  4  0
 22 27  4  0
 28 29  4  0
M  END
$$$$

 Created by Python create_sdf_string function

 29 33  0  0  0  0  0  0  0  0999 V2000
   10.7215   -3.3326   17.6437 C   0  0  0  0  0  0  0  0  0  0  0  0
    9.9489   -3.4675   24.6487 N   0  0  0  0  0  0  0  0  0  0  0  0
   10.0172   -4.4740   17.4101 C   0  0  0  0  0  0  0  0  0  0  0  0
    6.9051   -7.9575   16.4222 C   0  0  0  0  0  0  0  0  0  0  0  0
    8.9969   -6.3552   17.9668 N   0  0  0  0  0  0  0  0  0  0  0  0
   10.6702   -3.9051   22.4070 C   0  0  0  0  0  0  0  0  0  0  0  0
   11.0625   -3.0028   18.8894 C   0  0  0  0  0  0  0  0  0  0  0  0
    5.6180   -7.9194   16.1754 O   0  0  0  0  0  0  0  0  0  0  0  0
    9.7259   -5.3080   18.4485 C   0  0  0  0  0  0  0  0  0  0  0  0
    9.4578   -5.0200   16.3036 N   0  0  0  0  0  0  0  0  0  0  0  0
    5.0287   -8.9365   16.8223 C   0  0  0  0  0  0  0  0  0  0  0  0
    8.7742   -6.1498   16.6764 C   0  0  0  0  0  0  0  0  0  0  0  0
   10.9418   -3.4032   21.2053 O   0  0  0  0  0  0  0  0  0  0  0  0
    1.4797   -8.6258   16.2950 C   0  0  0  0  0  0  0  0  0  0  0  0
    9.2861   -1.2743   25.3585 C   0  0  0  0  0  0  0  0  0  0  0  0
    1.8892  -10.3985   17.7511 N   0  0  0  0  0  0  0  0  0  0  0  0
    9.6210   -0.6952   24.0976 C   0  0  0  0  0  0  0  0  0  0  0  0
    7.0792   -9.0217   17.1429 C   0  0  0  0  0  0  0  0  0  0  0  0
    3.1713  -10.1816   17.6634 C   0  0  0  0  0  0  0  0  0  0  0  0
    2.7878   -8.3822   16.2137 C   0  0  0  0  0  0  0  0  0  0  0  0
    9.4601   -2.6590   25.6528 C   0  0  0  0  0  0  0  0  0  0  0  0
   10.1182   -1.5672   23.1165 C   0  0  0  0  0  0  0  0  0  0  0  0
    1.0552   -9.6360   17.0650 C   0  0  0  0  0  0  0  0  0  0  0  0
    3.6519   -9.1783   16.9039 C   0  0  0  0  0  0  0  0  0  0  0  0
    7.8675   -7.0096   15.9415 C   0  0  0  0  0  0  0  0  0  0  0  0
    5.9733   -9.6553   17.3832 N   0  0  0  0  0  0  0  0  0  0  0  0
   10.2411   -2.9363   23.4301 C   0  0  0  0  0  0  0  0  0  0  0  0
   10.7288   -3.8197   19.9525 C   0  0  0  0  0  0  0  0  0  0  0  0
   10.1189   -5.0054   19.6987 C   0  0  0  0  0  0  0  0  0  0  0  0
  1  3  4  0
  1  7  4  0
  2 21  4  0
  2 27  4  0
  3  9  4  0
  3 10  4  0
  4  8  4  0
  4 18  4  0
  4 25  1  0
  5  9  4  0
  5 12  4  0
  6 13  1  0
  6 27  1  0
  7 28  4  0
  8 11  4  0
  9 29  4  0
 10 12  4  0
 11 24  1  0
 11 26  4  0
 12 25  1  0
 13 28  1  0
 14 20  4  0
 14 23  4  0
 15 17  4  0
 15 21  4  0
 16 19  4  0
 16 23  4  0
 17 22  4  0
 18 26  4  0
 19 24  4  0
 20 24  4  0
 22 27  4  0
 28 29  4  0
M  END
$$$$

 Created by Python create_sdf_string function

 29 33  0  0  0  0  0  0  0  0999 V2000
   10.7215   -3.3326   17.6437 C   0  0  0  0  0  0  0  0  0  0  0  0
    9.9489   -3.4675   24.6487 N   0  0  0  0  0  0  0  0  0  0  0  0
   10.0172   -4.4740   17.4101 C   0  0  0  0  0  0  0  0  0  0  0  0
    6.9051   -7.9575   16.4222 C   0  0  0  0  0  0  0  0  0  0  0  0
    8.9969   -6.3552   17.9668 N   0  0  0  0  0  0  0  0  0  0  0  0
   10.6702   -3.9051   22.4070 C   0  0  0  0  0  0  0  0  0  0  0  0
   11.0625   -3.0028   18.8894 C   0  0  0  0  0  0  0  0  0  0  0  0
    5.6180   -7.9194   16.1754 O   0  0  0  0  0  0  0  0  0  0  0  0
    9.7259   -5.3080   18.4485 C   0  0  0  0  0  0  0  0  0  0  0  0
    9.4578   -5.0200   16.3036 N   0  0  0  0  0  0  0  0  0  0  0  0
    5.0287   -8.9365   16.8223 C   0  0  0  0  0  0  0  0  0  0  0  0
    8.7742   -6.1498   16.6764 C   0  0  0  0  0  0  0  0  0  0  0  0
   10.9418   -3.4032   21.2053 O   0  0  0  0  0  0  0  0  0  0  0  0
    1.4797   -8.6258   16.2950 C   0  0  0  0  0  0  0  0  0  0  0  0
    9.2861   -1.2743   25.3585 C   0  0  0  0  0  0  0  0  0  0  0  0
    1.8892  -10.3985   17.7511 N   0  0  0  0  0  0  0  0  0  0  0  0
    9.6210   -0.6952   24.0976 C   0  0  0  0  0  0  0  0  0  0  0  0
    7.0792   -9.0217   17.1429 C   0  0  0  0  0  0  0  0  0  0  0  0
    3.1713  -10.1816   17.6634 C   0  0  0  0  0  0  0  0  0  0  0  0
    2.7878   -8.3822   16.2137 C   0  0  0  0  0  0  0  0  0  0  0  0
    9.4601   -2.6590   25.6528 C   0  0  0  0  0  0  0  0  0  0  0  0
   10.1182   -1.5672   23.1165 C   0  0  0  0  0  0  0  0  0  0  0  0
    1.0552   -9.6360   17.0650 C   0  0  0  0  0  0  0  0  0  0  0  0
    3.6519   -9.1783   16.9039 C   0  0  0  0  0  0  0  0  0  0  0  0
    7.8675   -7.0096   15.9415 C   0  0  0  0  0  0  0  0  0  0  0  0
    5.9733   -9.6553   17.3832 N   0  0  0  0  0  0  0  0  0  0  0  0
   10.2411   -2.9363   23.4301 C   0  0  0  0  0  0  0  0  0  0  0  0
   10.7288   -3.8197   19.9525 C   0  0  0  0  0  0  0  0  0  0  0  0
   10.1189   -5.0054   19.6987 C   0  0  0  0  0  0  0  0  0  0  0  0
  1  3  4  0
  1  7  4  0
  2 21  4  0
  2 27  4  0
  3  9  4  0
  3 10  4  0
  4  8  4  0
  4 18  4  0
  4 25  1  0
  5  9  4  0
  5 12  4  0
  6 13  1  0
  6 27  1  0
  7 28  4  0
  8 11  4  0
  9 29  4  0
 10 12  4  0
 11 24  1  0
 11 26  4  0
 12 25  1  0
 13 28  1  0
 14 20  4  0
 14 23  4  0
 15 17  4  0
 15 21  4  0
 16 19  4  0
 16 23  4  0
 17 22  4  0
 18 26  4  0
 19 24  4  0
 20 24  4  0
 22 27  4  0
 28 29  4  0
M  END
$$$$

 Created by Python create_sdf_string function

 29 33  0  0  0  0  0  0  0  0999 V2000
   10.7215   -3.3326   17.6437 C   0  0  0  0  0  0  0  0  0  0  0  0
    9.9489   -3.4675   24.6487 N   0  0  0  0  0  0  0  0  0  0  0  0
   10.0172   -4.4740   17.4101 C   0  0  0  0  0  0  0  0  0  0  0  0
    6.9051   -7.9575   16.4222 C   0  0  0  0  0  0  0  0  0  0  0  0
    8.9969   -6.3552   17.9668 N   0  0  0  0  0  0  0  0  0  0  0  0
   10.6702   -3.9051   22.4070 C   0  0  0  0  0  0  0  0  0  0  0  0
   11.0625   -3.0028   18.8894 C   0  0  0  0  0  0  0  0  0  0  0  0
    5.6180   -7.9194   16.1754 O   0  0  0  0  0  0  0  0  0  0  0  0
    9.7259   -5.3080   18.4485 C   0  0  0  0  0  0  0  0  0  0  0  0
    9.4578   -5.0200   16.3036 N   0  0  0  0  0  0  0  0  0  0  0  0
    5.0287   -8.9365   16.8223 C   0  0  0  0  0  0  0  0  0  0  0  0
    8.7742   -6.1498   16.6764 C   0  0  0  0  0  0  0  0  0  0  0  0
   10.9418   -3.4032   21.2053 O   0  0  0  0  0  0  0  0  0  0  0  0
    1.4797   -8.6258   16.2950 C   0  0  0  0  0  0  0  0  0  0  0  0
    9.2861   -1.2743   25.3585 C   0  0  0  0  0  0  0  0  0  0  0  0
    1.8892  -10.3985   17.7511 N   0  0  0  0  0  0  0  0  0  0  0  0
    9.6210   -0.6952   24.0976 C   0  0  0  0  0  0  0  0  0  0  0  0
    7.0792   -9.0217   17.1429 C   0  0  0  0  0  0  0  0  0  0  0  0
    3.1713  -10.1816   17.6634 C   0  0  0  0  0  0  0  0  0  0  0  0
    2.7878   -8.3822   16.2137 C   0  0  0  0  0  0  0  0  0  0  0  0
    9.4601   -2.6590   25.6528 C   0  0  0  0  0  0  0  0  0  0  0  0
   10.1182   -1.5672   23.1165 C   0  0  0  0  0  0  0  0  0  0  0  0
    1.0552   -9.6360   17.0650 C   0  0  0  0  0  0  0  0  0  0  0  0
    3.6519   -9.1783   16.9039 C   0  0  0  0  0  0  0  0  0  0  0  0
    7.8675   -7.0096   15.9415 C   0  0  0  0  0  0  0  0  0  0  0  0
    5.9733   -9.6553   17.3832 N   0  0  0  0  0  0  0  0  0  0  0  0
   10.2411   -2.9363   23.4301 C   0  0  0  0  0  0  0  0  0  0  0  0
   10.7288   -3.8197   19.9525 C   0  0  0  0  0  0  0  0  0  0  0  0
   10.1189   -5.0054   19.6987 C   0  0  0  0  0  0  0  0  0  0  0  0
  1  3  4  0
  1  7  4  0
  2 21  4  0
  2 27  4  0
  3  9  4  0
  3 10  4  0
  4  8  4  0
  4 18  4  0
  4 25  1  0
  5  9  4  0
  5 12  4  0
  6 13  1  0
  6 27  1  0
  7 28  4  0
  8 11  4  0
  9 29  4  0
 10 12  4  0
 11 24  1  0
 11 26  4  0
 12 25  1  0
 13 28  1  0
 14 20  4  0
 14 23  4  0
 15 17  4  0
 15 21  4  0
 16 19  4  0
 16 23  4  0
 17 22  4  0
 18 26  4  0
 19 24  4  0
 20 24  4  0
 22 27  4  0
 28 29  4  0
M  END
$$$$

 Created by Python create_sdf_string function

 29 33  0  0  0  0  0  0  0  0999 V2000
   10.7215   -3.3326   17.6437 C   0  0  0  0  0  0  0  0  0  0  0  0
    9.9489   -3.4675   24.6487 N   0  0  0  0  0  0  0  0  0  0  0  0
   10.0172   -4.4740   17.4101 C   0  0  0  0  0  0  0  0  0  0  0  0
    6.9051   -7.9575   16.4222 C   0  0  0  0  0  0  0  0  0  0  0  0
    8.9969   -6.3552   17.9668 N   0  0  0  0  0  0  0  0  0  0  0  0
   10.6702   -3.9051   22.4070 C   0  0  0  0  0  0  0  0  0  0  0  0
   11.0625   -3.0028   18.8894 C   0  0  0  0  0  0  0  0  0  0  0  0
    5.6180   -7.9194   16.1754 O   0  0  0  0  0  0  0  0  0  0  0  0
    9.7259   -5.3080   18.4485 C   0  0  0  0  0  0  0  0  0  0  0  0
    9.4578   -5.0200   16.3036 N   0  0  0  0  0  0  0  0  0  0  0  0
    5.0287   -8.9365   16.8223 C   0  0  0  0  0  0  0  0  0  0  0  0
    8.7742   -6.1498   16.6764 C   0  0  0  0  0  0  0  0  0  0  0  0
   10.9418   -3.4032   21.2053 O   0  0  0  0  0  0  0  0  0  0  0  0
    1.4797   -8.6258   16.2950 C   0  0  0  0  0  0  0  0  0  0  0  0
    9.2861   -1.2743   25.3585 C   0  0  0  0  0  0  0  0  0  0  0  0
    1.8892  -10.3985   17.7511 N   0  0  0  0  0  0  0  0  0  0  0  0
    9.6210   -0.6952   24.0976 C   0  0  0  0  0  0  0  0  0  0  0  0
    7.0792   -9.0217   17.1429 C   0  0  0  0  0  0  0  0  0  0  0  0
    3.1713  -10.1816   17.6634 C   0  0  0  0  0  0  0  0  0  0  0  0
    2.7878   -8.3822   16.2137 C   0  0  0  0  0  0  0  0  0  0  0  0
    9.4601   -2.6590   25.6528 C   0  0  0  0  0  0  0  0  0  0  0  0
   10.1182   -1.5672   23.1165 C   0  0  0  0  0  0  0  0  0  0  0  0
    1.0552   -9.6360   17.0650 C   0  0  0  0  0  0  0  0  0  0  0  0
    3.6519   -9.1783   16.9039 C   0  0  0  0  0  0  0  0  0  0  0  0
    7.8675   -7.0096   15.9415 C   0  0  0  0  0  0  0  0  0  0  0  0
    5.9733   -9.6553   17.3832 N   0  0  0  0  0  0  0  0  0  0  0  0
   10.2411   -2.9363   23.4301 C   0  0  0  0  0  0  0  0  0  0  0  0
   10.7288   -3.8197   19.9525 C   0  0  0  0  0  0  0  0  0  0  0  0
   10.1189   -5.0054   19.6987 C   0  0  0  0  0  0  0  0  0  0  0  0
  1  3  4  0
  1  7  4  0
  2 21  4  0
  2 27  4  0
  3  9  4  0
  3 10  4  0
  4  8  4  0
  4 18  4  0
  4 25  1  0
  5  9  4  0
  5 12  4  0
  6 13  1  0
  6 27  1  0
  7 28  4  0
  8 11  4  0
  9 29  4  0
 10 12  4  0
 11 24  1  0
 11 26  4  0
 12 25  1  0
 13 28  1  0
 14 20  4  0
 14 23  4  0
 15 17  4  0
 15 21  4  0
 16 19  4  0
 16 23  4  0
 17 22  4  0
 18 26  4  0
 19 24  4  0
 20 24  4  0
 22 27  4  0
 28 29  4  0
M  END
$$$$

 Created by Python create_sdf_string function

 29 33  0  0  0  0  0  0  0  0999 V2000
   10.7215   -3.3326   17.6437 C   0  0  0  0  0  0  0  0  0  0  0  0
    9.9489   -3.4675   24.6487 N   0  0  0  0  0  0  0  0  0  0  0  0
   10.0172   -4.4740   17.4101 C   0  0  0  0  0  0  0  0  0  0  0  0
    6.9051   -7.9575   16.4222 C   0  0  0  0  0  0  0  0  0  0  0  0
    8.9969   -6.3552   17.9668 N   0  0  0  0  0  0  0  0  0  0  0  0
   10.6702   -3.9051   22.4070 C   0  0  0  0  0  0  0  0  0  0  0  0
   11.0625   -3.0028   18.8894 C   0  0  0  0  0  0  0  0  0  0  0  0
    5.6180   -7.9194   16.1754 O   0  0  0  0  0  0  0  0  0  0  0  0
    9.7259   -5.3080   18.4485 C   0  0  0  0  0  0  0  0  0  0  0  0
    9.4578   -5.0200   16.3036 N   0  0  0  0  0  0  0  0  0  0  0  0
    5.0287   -8.9365   16.8223 C   0  0  0  0  0  0  0  0  0  0  0  0
    8.7742   -6.1498   16.6764 C   0  0  0  0  0  0  0  0  0  0  0  0
   10.9418   -3.4032   21.2053 O   0  0  0  0  0  0  0  0  0  0  0  0
    1.4797   -8.6258   16.2950 C   0  0  0  0  0  0  0  0  0  0  0  0
    9.2861   -1.2743   25.3585 C   0  0  0  0  0  0  0  0  0  0  0  0
    1.8892  -10.3985   17.7511 N   0  0  0  0  0  0  0  0  0  0  0  0
    9.6210   -0.6952   24.0976 C   0  0  0  0  0  0  0  0  0  0  0  0
    7.0792   -9.0217   17.1429 C   0  0  0  0  0  0  0  0  0  0  0  0
    3.1713  -10.1816   17.6634 C   0  0  0  0  0  0  0  0  0  0  0  0
    2.7878   -8.3822   16.2137 C   0  0  0  0  0  0  0  0  0  0  0  0
    9.4601   -2.6590   25.6528 C   0  0  0  0  0  0  0  0  0  0  0  0
   10.1182   -1.5672   23.1165 C   0  0  0  0  0  0  0  0  0  0  0  0
    1.0552   -9.6360   17.0650 C   0  0  0  0  0  0  0  0  0  0  0  0
    3.6519   -9.1783   16.9039 C   0  0  0  0  0  0  0  0  0  0  0  0
    7.8675   -7.0096   15.9415 C   0  0  0  0  0  0  0  0  0  0  0  0
    5.9733   -9.6553   17.3832 N   0  0  0  0  0  0  0  0  0  0  0  0
   10.2411   -2.9363   23.4301 C   0  0  0  0  0  0  0  0  0  0  0  0
   10.7288   -3.8197   19.9525 C   0  0  0  0  0  0  0  0  0  0  0  0
   10.1189   -5.0054   19.6987 C   0  0  0  0  0  0  0  0  0  0  0  0
  1  3  4  0
  1  7  4  0
  2 21  4  0
  2 27  4  0
  3  9  4  0
  3 10  4  0
  4  8  4  0
  4 18  4  0
  4 25  1  0
  5  9  4  0
  5 12  4  0
  6 13  1  0
  6 27  1  0
  7 28  4  0
  8 11  4  0
  9 29  4  0
 10 12  4  0
 11 24  1  0
 11 26  4  0
 12 25  1  0
 13 28  1  0
 14 20  4  0
 14 23  4  0
 15 17  4  0
 15 21  4  0
 16 19  4  0
 16 23  4  0
 17 22  4  0
 18 26  4  0
 19 24  4  0
 20 24  4  0
 22 27  4  0
 28 29  4  0
M  END
$$$$

 Created by Python create_sdf_string function

 29 33  0  0  0  0  0  0  0  0999 V2000
   10.7215   -3.3326   17.6437 C   0  0  0  0  0  0  0  0  0  0  0  0
    9.9489   -3.4675   24.6487 N   0  0  0  0  0  0  0  0  0  0  0  0
   10.0172   -4.4740   17.4101 C   0  0  0  0  0  0  0  0  0  0  0  0
    6.9051   -7.9575   16.4222 C   0  0  0  0  0  0  0  0  0  0  0  0
    8.9969   -6.3552   17.9668 N   0  0  0  0  0  0  0  0  0  0  0  0
   10.6702   -3.9051   22.4070 C   0  0  0  0  0  0  0  0  0  0  0  0
   11.0625   -3.0028   18.8894 C   0  0  0  0  0  0  0  0  0  0  0  0
    5.6180   -7.9194   16.1754 O   0  0  0  0  0  0  0  0  0  0  0  0
    9.7259   -5.3080   18.4485 C   0  0  0  0  0  0  0  0  0  0  0  0
    9.4578   -5.0200   16.3036 N   0  0  0  0  0  0  0  0  0  0  0  0
    5.0287   -8.9365   16.8223 C   0  0  0  0  0  0  0  0  0  0  0  0
    8.7742   -6.1498   16.6764 C   0  0  0  0  0  0  0  0  0  0  0  0
   10.9418   -3.4032   21.2053 O   0  0  0  0  0  0  0  0  0  0  0  0
    1.4797   -8.6258   16.2950 C   0  0  0  0  0  0  0  0  0  0  0  0
    9.2861   -1.2743   25.3585 C   0  0  0  0  0  0  0  0  0  0  0  0
    1.8892  -10.3985   17.7511 N   0  0  0  0  0  0  0  0  0  0  0  0
    9.6210   -0.6952   24.0976 C   0  0  0  0  0  0  0  0  0  0  0  0
    7.0792   -9.0217   17.1429 C   0  0  0  0  0  0  0  0  0  0  0  0
    3.1713  -10.1816   17.6634 C   0  0  0  0  0  0  0  0  0  0  0  0
    2.7878   -8.3822   16.2137 C   0  0  0  0  0  0  0  0  0  0  0  0
    9.4601   -2.6590   25.6528 C   0  0  0  0  0  0  0  0  0  0  0  0
   10.1182   -1.5672   23.1165 C   0  0  0  0  0  0  0  0  0  0  0  0
    1.0552   -9.6360   17.0650 C   0  0  0  0  0  0  0  0  0  0  0  0
    3.6519   -9.1783   16.9039 C   0  0  0  0  0  0  0  0  0  0  0  0
    7.8675   -7.0096   15.9415 C   0  0  0  0  0  0  0  0  0  0  0  0
    5.9733   -9.6553   17.3832 N   0  0  0  0  0  0  0  0  0  0  0  0
   10.2411   -2.9363   23.4301 C   0  0  0  0  0  0  0  0  0  0  0  0
   10.7288   -3.8197   19.9525 C   0  0  0  0  0  0  0  0  0  0  0  0
   10.1189   -5.0054   19.6987 C   0  0  0  0  0  0  0  0  0  0  0  0
  1  3  4  0
  1  7  4  0
  2 21  4  0
  2 27  4  0
  3  9  4  0
  3 10  4  0
  4  8  4  0
  4 18  4  0
  4 25  1  0
  5  9  4  0
  5 12  4  0
  6 13  1  0
  6 27  1  0
  7 28  4  0
  8 11  4  0
  9 29  4  0
 10 12  4  0
 11 24  1  0
 11 26  4  0
 12 25  1  0
 13 28  1  0
 14 20  4  0
 14 23  4  0
 15 17  4  0
 15 21  4  0
 16 19  4  0
 16 23  4  0
 17 22  4  0
 18 26  4  0
 19 24  4  0
 20 24  4  0
 22 27  4  0
 28 29  4  0
M  END
$$$$

 Created by Python create_sdf_string function

 29 33  0  0  0  0  0  0  0  0999 V2000
   10.7215   -3.3326   17.6437 C   0  0  0  0  0  0  0  0  0  0  0  0
    9.9489   -3.4675   24.6487 N   0  0  0  0  0  0  0  0  0  0  0  0
   10.0172   -4.4740   17.4101 C   0  0  0  0  0  0  0  0  0  0  0  0
    6.9051   -7.9575   16.4222 C   0  0  0  0  0  0  0  0  0  0  0  0
    8.9969   -6.3552   17.9668 N   0  0  0  0  0  0  0  0  0  0  0  0
   10.6702   -3.9051   22.4070 C   0  0  0  0  0  0  0  0  0  0  0  0
   11.0625   -3.0028   18.8894 C   0  0  0  0  0  0  0  0  0  0  0  0
    5.6180   -7.9194   16.1754 O   0  0  0  0  0  0  0  0  0  0  0  0
    9.7259   -5.3080   18.4485 C   0  0  0  0  0  0  0  0  0  0  0  0
    9.4578   -5.0200   16.3036 N   0  0  0  0  0  0  0  0  0  0  0  0
    5.0287   -8.9365   16.8223 C   0  0  0  0  0  0  0  0  0  0  0  0
    8.7742   -6.1498   16.6764 C   0  0  0  0  0  0  0  0  0  0  0  0
   10.9418   -3.4032   21.2053 O   0  0  0  0  0  0  0  0  0  0  0  0
    1.4797   -8.6258   16.2950 C   0  0  0  0  0  0  0  0  0  0  0  0
    9.2861   -1.2743   25.3585 C   0  0  0  0  0  0  0  0  0  0  0  0
    1.8892  -10.3985   17.7511 N   0  0  0  0  0  0  0  0  0  0  0  0
    9.6210   -0.6952   24.0976 C   0  0  0  0  0  0  0  0  0  0  0  0
    7.0792   -9.0217   17.1429 C   0  0  0  0  0  0  0  0  0  0  0  0
    3.1713  -10.1816   17.6634 C   0  0  0  0  0  0  0  0  0  0  0  0
    2.7878   -8.3822   16.2137 C   0  0  0  0  0  0  0  0  0  0  0  0
    9.4601   -2.6590   25.6528 C   0  0  0  0  0  0  0  0  0  0  0  0
   10.1182   -1.5672   23.1165 C   0  0  0  0  0  0  0  0  0  0  0  0
    1.0552   -9.6360   17.0650 C   0  0  0  0  0  0  0  0  0  0  0  0
    3.6519   -9.1783   16.9039 C   0  0  0  0  0  0  0  0  0  0  0  0
    7.8675   -7.0096   15.9415 C   0  0  0  0  0  0  0  0  0  0  0  0
    5.9733   -9.6553   17.3832 N   0  0  0  0  0  0  0  0  0  0  0  0
   10.2411   -2.9363   23.4301 C   0  0  0  0  0  0  0  0  0  0  0  0
   10.7288   -3.8197   19.9525 C   0  0  0  0  0  0  0  0  0  0  0  0
   10.1189   -5.0054   19.6987 C   0  0  0  0  0  0  0  0  0  0  0  0
  1  3  4  0
  1  7  4  0
  2 21  4  0
  2 27  4  0
  3  9  4  0
  3 10  4  0
  4  8  4  0
  4 18  4  0
  4 25  1  0
  5  9  4  0
  5 12  4  0
  6 13  1  0
  6 27  1  0
  7 28  4  0
  8 11  4  0
  9 29  4  0
 10 12  4  0
 11 24  1  0
 11 26  4  0
 12 25  1  0
 13 28  1  0
 14 20  4  0
 14 23  4  0
 15 17  4  0
 15 21  4  0
 16 19  4  0
 16 23  4  0
 17 22  4  0
 18 26  4  0
 19 24  4  0
 20 24  4  0
 22 27  4  0
 28 29  4  0
M  END
$$$$

 Created by Python create_sdf_string function

 29 33  0  0  0  0  0  0  0  0999 V2000
   10.7215   -3.3326   17.6437 C   0  0  0  0  0  0  0  0  0  0  0  0
    9.9489   -3.4675   24.6487 N   0  0  0  0  0  0  0  0  0  0  0  0
   10.0172   -4.4740   17.4101 C   0  0  0  0  0  0  0  0  0  0  0  0
    6.9051   -7.9575   16.4222 C   0  0  0  0  0  0  0  0  0  0  0  0
    8.9969   -6.3552   17.9668 N   0  0  0  0  0  0  0  0  0  0  0  0
   10.6702   -3.9051   22.4070 C   0  0  0  0  0  0  0  0  0  0  0  0
   11.0625   -3.0028   18.8894 C   0  0  0  0  0  0  0  0  0  0  0  0
    5.6180   -7.9194   16.1754 O   0  0  0  0  0  0  0  0  0  0  0  0
    9.7259   -5.3080   18.4485 C   0  0  0  0  0  0  0  0  0  0  0  0
    9.4578   -5.0200   16.3036 N   0  0  0  0  0  0  0  0  0  0  0  0
    5.0287   -8.9365   16.8223 C   0  0  0  0  0  0  0  0  0  0  0  0
    8.7742   -6.1498   16.6764 C   0  0  0  0  0  0  0  0  0  0  0  0
   10.9418   -3.4032   21.2053 O   0  0  0  0  0  0  0  0  0  0  0  0
    1.4797   -8.6258   16.2950 C   0  0  0  0  0  0  0  0  0  0  0  0
    9.2861   -1.2743   25.3585 C   0  0  0  0  0  0  0  0  0  0  0  0
    1.8892  -10.3985   17.7511 N   0  0  0  0  0  0  0  0  0  0  0  0
    9.6210   -0.6952   24.0976 C   0  0  0  0  0  0  0  0  0  0  0  0
    7.0792   -9.0217   17.1429 C   0  0  0  0  0  0  0  0  0  0  0  0
    3.1713  -10.1816   17.6634 C   0  0  0  0  0  0  0  0  0  0  0  0
    2.7878   -8.3822   16.2137 C   0  0  0  0  0  0  0  0  0  0  0  0
    9.4601   -2.6590   25.6528 C   0  0  0  0  0  0  0  0  0  0  0  0
   10.1182   -1.5672   23.1165 C   0  0  0  0  0  0  0  0  0  0  0  0
    1.0552   -9.6360   17.0650 C   0  0  0  0  0  0  0  0  0  0  0  0
    3.6519   -9.1783   16.9039 C   0  0  0  0  0  0  0  0  0  0  0  0
    7.8675   -7.0096   15.9415 C   0  0  0  0  0  0  0  0  0  0  0  0
    5.9733   -9.6553   17.3832 N   0  0  0  0  0  0  0  0  0  0  0  0
   10.2411   -2.9363   23.4301 C   0  0  0  0  0  0  0  0  0  0  0  0
   10.7288   -3.8197   19.9525 C   0  0  0  0  0  0  0  0  0  0  0  0
   10.1189   -5.0054   19.6987 C   0  0  0  0  0  0  0  0  0  0  0  0
  1  3  4  0
  1  7  4  0
  2 21  4  0
  2 27  4  0
  3  9  4  0
  3 10  4  0
  4  8  4  0
  4 18  4  0
  4 25  1  0
  5  9  4  0
  5 12  4  0
  6 13  1  0
  6 27  1  0
  7 28  4  0
  8 11  4  0
  9 29  4  0
 10 12  4  0
 11 24  1  0
 11 26  4  0
 12 25  1  0
 13 28  1  0
 14 20  4  0
 14 23  4  0
 15 17  4  0
 15 21  4  0
 16 19  4  0
 16 23  4  0
 17 22  4  0
 18 26  4  0
 19 24  4  0
 20 24  4  0
 22 27  4  0
 28 29  4  0
M  END
$$$$

 Created by Python create_sdf_string function

 29 33  0  0  0  0  0  0  0  0999 V2000
   10.7215   -3.3326   17.6437 C   0  0  0  0  0  0  0  0  0  0  0  0
    9.9489   -3.4675   24.6487 N   0  0  0  0  0  0  0  0  0  0  0  0
   10.0172   -4.4740   17.4101 C   0  0  0  0  0  0  0  0  0  0  0  0
    6.9051   -7.9575   16.4222 C   0  0  0  0  0  0  0  0  0  0  0  0
    8.9969   -6.3552   17.9668 N   0  0  0  0  0  0  0  0  0  0  0  0
   10.6702   -3.9051   22.4070 C   0  0  0  0  0  0  0  0  0  0  0  0
   11.0625   -3.0028   18.8894 C   0  0  0  0  0  0  0  0  0  0  0  0
    5.6180   -7.9194   16.1754 O   0  0  0  0  0  0  0  0  0  0  0  0
    9.7259   -5.3080   18.4485 C   0  0  0  0  0  0  0  0  0  0  0  0
    9.4578   -5.0200   16.3036 N   0  0  0  0  0  0  0  0  0  0  0  0
    5.0287   -8.9365   16.8223 C   0  0  0  0  0  0  0  0  0  0  0  0
    8.7742   -6.1498   16.6764 C   0  0  0  0  0  0  0  0  0  0  0  0
   10.9418   -3.4032   21.2053 O   0  0  0  0  0  0  0  0  0  0  0  0
    1.4797   -8.6258   16.2950 C   0  0  0  0  0  0  0  0  0  0  0  0
    9.2861   -1.2743   25.3585 C   0  0  0  0  0  0  0  0  0  0  0  0
    1.8892  -10.3985   17.7511 N   0  0  0  0  0  0  0  0  0  0  0  0
    9.6210   -0.6952   24.0976 C   0  0  0  0  0  0  0  0  0  0  0  0
    7.0792   -9.0217   17.1429 C   0  0  0  0  0  0  0  0  0  0  0  0
    3.1713  -10.1816   17.6634 C   0  0  0  0  0  0  0  0  0  0  0  0
    2.7878   -8.3822   16.2137 C   0  0  0  0  0  0  0  0  0  0  0  0
    9.4601   -2.6590   25.6528 C   0  0  0  0  0  0  0  0  0  0  0  0
   10.1182   -1.5672   23.1165 C   0  0  0  0  0  0  0  0  0  0  0  0
    1.0552   -9.6360   17.0650 C   0  0  0  0  0  0  0  0  0  0  0  0
    3.6519   -9.1783   16.9039 C   0  0  0  0  0  0  0  0  0  0  0  0
    7.8675   -7.0096   15.9415 C   0  0  0  0  0  0  0  0  0  0  0  0
    5.9733   -9.6553   17.3832 N   0  0  0  0  0  0  0  0  0  0  0  0
   10.2411   -2.9363   23.4301 C   0  0  0  0  0  0  0  0  0  0  0  0
   10.7288   -3.8197   19.9525 C   0  0  0  0  0  0  0  0  0  0  0  0
   10.1189   -5.0054   19.6987 C   0  0  0  0  0  0  0  0  0  0  0  0
  1  3  4  0
  1  7  4  0
  2 21  4  0
  2 27  4  0
  3  9  4  0
  3 10  4  0
  4  8  4  0
  4 18  4  0
  4 25  1  0
  5  9  4  0
  5 12  4  0
  6 13  1  0
  6 27  1  0
  7 28  4  0
  8 11  4  0
  9 29  4  0
 10 12  4  0
 11 24  1  0
 11 26  4  0
 12 25  1  0
 13 28  1  0
 14 20  4  0
 14 23  4  0
 15 17  4  0
 15 21  4  0
 16 19  4  0
 16 23  4  0
 17 22  4  0
 18 26  4  0
 19 24  4  0
 20 24  4  0
 22 27  4  0
 28 29  4  0
M  END
$$$$

 Created by Python create_sdf_string function

 29 33  0  0  0  0  0  0  0  0999 V2000
   10.7215   -3.3326   17.6437 C   0  0  0  0  0  0  0  0  0  0  0  0
    9.9489   -3.4675   24.6487 N   0  0  0  0  0  0  0  0  0  0  0  0
   10.0172   -4.4740   17.4101 C   0  0  0  0  0  0  0  0  0  0  0  0
    6.9051   -7.9575   16.4222 C   0  0  0  0  0  0  0  0  0  0  0  0
    8.9969   -6.3552   17.9668 N   0  0  0  0  0  0  0  0  0  0  0  0
   10.6702   -3.9051   22.4070 C   0  0  0  0  0  0  0  0  0  0  0  0
   11.0625   -3.0028   18.8894 C   0  0  0  0  0  0  0  0  0  0  0  0
    5.6180   -7.9194   16.1754 O   0  0  0  0  0  0  0  0  0  0  0  0
    9.7259   -5.3080   18.4485 C   0  0  0  0  0  0  0  0  0  0  0  0
    9.4578   -5.0200   16.3036 N   0  0  0  0  0  0  0  0  0  0  0  0
    5.0287   -8.9365   16.8223 C   0  0  0  0  0  0  0  0  0  0  0  0
    8.7742   -6.1498   16.6764 C   0  0  0  0  0  0  0  0  0  0  0  0
   10.9418   -3.4032   21.2053 O   0  0  0  0  0  0  0  0  0  0  0  0
    1.4797   -8.6258   16.2950 C   0  0  0  0  0  0  0  0  0  0  0  0
    9.2861   -1.2743   25.3585 C   0  0  0  0  0  0  0  0  0  0  0  0
    1.8892  -10.3985   17.7511 N   0  0  0  0  0  0  0  0  0  0  0  0
    9.6210   -0.6952   24.0976 C   0  0  0  0  0  0  0  0  0  0  0  0
    7.0792   -9.0217   17.1429 C   0  0  0  0  0  0  0  0  0  0  0  0
    3.1713  -10.1816   17.6634 C   0  0  0  0  0  0  0  0  0  0  0  0
    2.7878   -8.3822   16.2137 C   0  0  0  0  0  0  0  0  0  0  0  0
    9.4601   -2.6590   25.6528 C   0  0  0  0  0  0  0  0  0  0  0  0
   10.1182   -1.5672   23.1165 C   0  0  0  0  0  0  0  0  0  0  0  0
    1.0552   -9.6360   17.0650 C   0  0  0  0  0  0  0  0  0  0  0  0
    3.6519   -9.1783   16.9039 C   0  0  0  0  0  0  0  0  0  0  0  0
    7.8675   -7.0096   15.9415 C   0  0  0  0  0  0  0  0  0  0  0  0
    5.9733   -9.6553   17.3832 N   0  0  0  0  0  0  0  0  0  0  0  0
   10.2411   -2.9363   23.4301 C   0  0  0  0  0  0  0  0  0  0  0  0
   10.7288   -3.8197   19.9525 C   0  0  0  0  0  0  0  0  0  0  0  0
   10.1189   -5.0054   19.6987 C   0  0  0  0  0  0  0  0  0  0  0  0
  1  3  4  0
  1  7  4  0
  2 21  4  0
  2 27  4  0
  3  9  4  0
  3 10  4  0
  4  8  4  0
  4 18  4  0
  4 25  1  0
  5  9  4  0
  5 12  4  0
  6 13  1  0
  6 27  1  0
  7 28  4  0
  8 11  4  0
  9 29  4  0
 10 12  4  0
 11 24  1  0
 11 26  4  0
 12 25  1  0
 13 28  1  0
 14 20  4  0
 14 23  4  0
 15 17  4  0
 15 21  4  0
 16 19  4  0
 16 23  4  0
 17 22  4  0
 18 26  4  0
 19 24  4  0
 20 24  4  0
 22 27  4  0
 28 29  4  0
M  END
$$$$

 Created by Python create_sdf_string function

 29 33  0  0  0  0  0  0  0  0999 V2000
   10.7215   -3.3326   17.6437 C   0  0  0  0  0  0  0  0  0  0  0  0
    9.9489   -3.4675   24.6487 N   0  0  0  0  0  0  0  0  0  0  0  0
   10.0172   -4.4740   17.4101 C   0  0  0  0  0  0  0  0  0  0  0  0
    6.9051   -7.9575   16.4222 C   0  0  0  0  0  0  0  0  0  0  0  0
    8.9969   -6.3552   17.9668 N   0  0  0  0  0  0  0  0  0  0  0  0
   10.6702   -3.9051   22.4070 C   0  0  0  0  0  0  0  0  0  0  0  0
   11.0625   -3.0028   18.8894 C   0  0  0  0  0  0  0  0  0  0  0  0
    5.6180   -7.9194   16.1754 O   0  0  0  0  0  0  0  0  0  0  0  0
    9.7259   -5.3080   18.4485 C   0  0  0  0  0  0  0  0  0  0  0  0
    9.4578   -5.0200   16.3036 N   0  0  0  0  0  0  0  0  0  0  0  0
    5.0287   -8.9365   16.8223 C   0  0  0  0  0  0  0  0  0  0  0  0
    8.7742   -6.1498   16.6764 C   0  0  0  0  0  0  0  0  0  0  0  0
   10.9418   -3.4032   21.2053 O   0  0  0  0  0  0  0  0  0  0  0  0
    1.4797   -8.6258   16.2950 C   0  0  0  0  0  0  0  0  0  0  0  0
    9.2861   -1.2743   25.3585 C   0  0  0  0  0  0  0  0  0  0  0  0
    1.8892  -10.3985   17.7511 N   0  0  0  0  0  0  0  0  0  0  0  0
    9.6210   -0.6952   24.0976 C   0  0  0  0  0  0  0  0  0  0  0  0
    7.0792   -9.0217   17.1429 C   0  0  0  0  0  0  0  0  0  0  0  0
    3.1713  -10.1816   17.6634 C   0  0  0  0  0  0  0  0  0  0  0  0
    2.7878   -8.3822   16.2137 C   0  0  0  0  0  0  0  0  0  0  0  0
    9.4601   -2.6590   25.6528 C   0  0  0  0  0  0  0  0  0  0  0  0
   10.1182   -1.5672   23.1165 C   0  0  0  0  0  0  0  0  0  0  0  0
    1.0552   -9.6360   17.0650 C   0  0  0  0  0  0  0  0  0  0  0  0
    3.6519   -9.1783   16.9039 C   0  0  0  0  0  0  0  0  0  0  0  0
    7.8675   -7.0096   15.9415 C   0  0  0  0  0  0  0  0  0  0  0  0
    5.9733   -9.6553   17.3832 N   0  0  0  0  0  0  0  0  0  0  0  0
   10.2411   -2.9363   23.4301 C   0  0  0  0  0  0  0  0  0  0  0  0
   10.7288   -3.8197   19.9525 C   0  0  0  0  0  0  0  0  0  0  0  0
   10.1189   -5.0054   19.6987 C   0  0  0  0  0  0  0  0  0  0  0  0
  1  3  4  0
  1  7  4  0
  2 21  4  0
  2 27  4  0
  3  9  4  0
  3 10  4  0
  4  8  4  0
  4 18  4  0
  4 25  1  0
  5  9  4  0
  5 12  4  0
  6 13  1  0
  6 27  1  0
  7 28  4  0
  8 11  4  0
  9 29  4  0
 10 12  4  0
 11 24  1  0
 11 26  4  0
 12 25  1  0
 13 28  1  0
 14 20  4  0
 14 23  4  0
 15 17  4  0
 15 21  4  0
 16 19  4  0
 16 23  4  0
 17 22  4  0
 18 26  4  0
 19 24  4  0
 20 24  4  0
 22 27  4  0
 28 29  4  0
M  END
$$$$

 Created by Python create_sdf_string function

 29 33  0  0  0  0  0  0  0  0999 V2000
   10.7215   -3.3326   17.6437 C   0  0  0  0  0  0  0  0  0  0  0  0
    9.9489   -3.4675   24.6487 N   0  0  0  0  0  0  0  0  0  0  0  0
   10.0172   -4.4740   17.4101 C   0  0  0  0  0  0  0  0  0  0  0  0
    6.9051   -7.9575   16.4222 C   0  0  0  0  0  0  0  0  0  0  0  0
    8.9969   -6.3552   17.9668 N   0  0  0  0  0  0  0  0  0  0  0  0
   10.6702   -3.9051   22.4070 C   0  0  0  0  0  0  0  0  0  0  0  0
   11.0625   -3.0028   18.8894 C   0  0  0  0  0  0  0  0  0  0  0  0
    5.6180   -7.9194   16.1754 O   0  0  0  0  0  0  0  0  0  0  0  0
    9.7259   -5.3080   18.4485 C   0  0  0  0  0  0  0  0  0  0  0  0
    9.4578   -5.0200   16.3036 N   0  0  0  0  0  0  0  0  0  0  0  0
    5.0287   -8.9365   16.8223 C   0  0  0  0  0  0  0  0  0  0  0  0
    8.7742   -6.1498   16.6764 C   0  0  0  0  0  0  0  0  0  0  0  0
   10.9418   -3.4032   21.2053 O   0  0  0  0  0  0  0  0  0  0  0  0
    1.4797   -8.6258   16.2950 C   0  0  0  0  0  0  0  0  0  0  0  0
    9.2861   -1.2743   25.3585 C   0  0  0  0  0  0  0  0  0  0  0  0
    1.8892  -10.3985   17.7511 N   0  0  0  0  0  0  0  0  0  0  0  0
    9.6210   -0.6952   24.0976 C   0  0  0  0  0  0  0  0  0  0  0  0
    7.0792   -9.0217   17.1429 C   0  0  0  0  0  0  0  0  0  0  0  0
    3.1713  -10.1816   17.6634 C   0  0  0  0  0  0  0  0  0  0  0  0
    2.7878   -8.3822   16.2137 C   0  0  0  0  0  0  0  0  0  0  0  0
    9.4601   -2.6590   25.6528 C   0  0  0  0  0  0  0  0  0  0  0  0
   10.1182   -1.5672   23.1165 C   0  0  0  0  0  0  0  0  0  0  0  0
    1.0552   -9.6360   17.0650 C   0  0  0  0  0  0  0  0  0  0  0  0
    3.6519   -9.1783   16.9039 C   0  0  0  0  0  0  0  0  0  0  0  0
    7.8675   -7.0096   15.9415 C   0  0  0  0  0  0  0  0  0  0  0  0
    5.9733   -9.6553   17.3832 N   0  0  0  0  0  0  0  0  0  0  0  0
   10.2411   -2.9363   23.4301 C   0  0  0  0  0  0  0  0  0  0  0  0
   10.7288   -3.8197   19.9525 C   0  0  0  0  0  0  0  0  0  0  0  0
   10.1189   -5.0054   19.6987 C   0  0  0  0  0  0  0  0  0  0  0  0
  1  3  4  0
  1  7  4  0
  2 21  4  0
  2 27  4  0
  3  9  4  0
  3 10  4  0
  4  8  4  0
  4 18  4  0
  4 25  1  0
  5  9  4  0
  5 12  4  0
  6 13  1  0
  6 27  1  0
  7 28  4  0
  8 11  4  0
  9 29  4  0
 10 12  4  0
 11 24  1  0
 11 26  4  0
 12 25  1  0
 13 28  1  0
 14 20  4  0
 14 23  4  0
 15 17  4  0
 15 21  4  0
 16 19  4  0
 16 23  4  0
 17 22  4  0
 18 26  4  0
 19 24  4  0
 20 24  4  0
 22 27  4  0
 28 29  4  0
M  END
$$$$

 Created by Python create_sdf_string function

 29 33  0  0  0  0  0  0  0  0999 V2000
   10.7215   -3.3326   17.6437 C   0  0  0  0  0  0  0  0  0  0  0  0
    9.9489   -3.4675   24.6487 N   0  0  0  0  0  0  0  0  0  0  0  0
   10.0172   -4.4740   17.4101 C   0  0  0  0  0  0  0  0  0  0  0  0
    6.9051   -7.9575   16.4222 C   0  0  0  0  0  0  0  0  0  0  0  0
    8.9969   -6.3552   17.9668 N   0  0  0  0  0  0  0  0  0  0  0  0
   10.6702   -3.9051   22.4070 C   0  0  0  0  0  0  0  0  0  0  0  0
   11.0625   -3.0028   18.8894 C   0  0  0  0  0  0  0  0  0  0  0  0
    5.6180   -7.9194   16.1754 O   0  0  0  0  0  0  0  0  0  0  0  0
    9.7259   -5.3080   18.4485 C   0  0  0  0  0  0  0  0  0  0  0  0
    9.4578   -5.0200   16.3036 N   0  0  0  0  0  0  0  0  0  0  0  0
    5.0287   -8.9365   16.8223 C   0  0  0  0  0  0  0  0  0  0  0  0
    8.7742   -6.1498   16.6764 C   0  0  0  0  0  0  0  0  0  0  0  0
   10.9418   -3.4032   21.2053 O   0  0  0  0  0  0  0  0  0  0  0  0
    1.4797   -8.6258   16.2950 C   0  0  0  0  0  0  0  0  0  0  0  0
    9.2861   -1.2743   25.3585 C   0  0  0  0  0  0  0  0  0  0  0  0
    1.8892  -10.3985   17.7511 N   0  0  0  0  0  0  0  0  0  0  0  0
    9.6210   -0.6952   24.0976 C   0  0  0  0  0  0  0  0  0  0  0  0
    7.0792   -9.0217   17.1429 C   0  0  0  0  0  0  0  0  0  0  0  0
    3.1713  -10.1816   17.6634 C   0  0  0  0  0  0  0  0  0  0  0  0
    2.7878   -8.3822   16.2137 C   0  0  0  0  0  0  0  0  0  0  0  0
    9.4601   -2.6590   25.6528 C   0  0  0  0  0  0  0  0  0  0  0  0
   10.1182   -1.5672   23.1165 C   0  0  0  0  0  0  0  0  0  0  0  0
    1.0552   -9.6360   17.0650 C   0  0  0  0  0  0  0  0  0  0  0  0
    3.6519   -9.1783   16.9039 C   0  0  0  0  0  0  0  0  0  0  0  0
    7.8675   -7.0096   15.9415 C   0  0  0  0  0  0  0  0  0  0  0  0
    5.9733   -9.6553   17.3832 N   0  0  0  0  0  0  0  0  0  0  0  0
   10.2411   -2.9363   23.4301 C   0  0  0  0  0  0  0  0  0  0  0  0
   10.7288   -3.8197   19.9525 C   0  0  0  0  0  0  0  0  0  0  0  0
   10.1189   -5.0054   19.6987 C   0  0  0  0  0  0  0  0  0  0  0  0
  1  3  4  0
  1  7  4  0
  2 21  4  0
  2 27  4  0
  3  9  4  0
  3 10  4  0
  4  8  4  0
  4 18  4  0
  4 25  1  0
  5  9  4  0
  5 12  4  0
  6 13  1  0
  6 27  1  0
  7 28  4  0
  8 11  4  0
  9 29  4  0
 10 12  4  0
 11 24  1  0
 11 26  4  0
 12 25  1  0
 13 28  1  0
 14 20  4  0
 14 23  4  0
 15 17  4  0
 15 21  4  0
 16 19  4  0
 16 23  4  0
 17 22  4  0
 18 26  4  0
 19 24  4  0
 20 24  4  0
 22 27  4  0
 28 29  4  0
M  END
$$$$

 Created by Python create_sdf_string function

 29 33  0  0  0  0  0  0  0  0999 V2000
   10.7215   -3.3326   17.6437 C   0  0  0  0  0  0  0  0  0  0  0  0
    9.9489   -3.4675   24.6487 N   0  0  0  0  0  0  0  0  0  0  0  0
   10.0172   -4.4740   17.4101 C   0  0  0  0  0  0  0  0  0  0  0  0
    6.9051   -7.9575   16.4222 C   0  0  0  0  0  0  0  0  0  0  0  0
    8.9969   -6.3552   17.9668 N   0  0  0  0  0  0  0  0  0  0  0  0
   10.6702   -3.9051   22.4070 C   0  0  0  0  0  0  0  0  0  0  0  0
   11.0625   -3.0028   18.8894 C   0  0  0  0  0  0  0  0  0  0  0  0
    5.6180   -7.9194   16.1754 O   0  0  0  0  0  0  0  0  0  0  0  0
    9.7259   -5.3080   18.4485 C   0  0  0  0  0  0  0  0  0  0  0  0
    9.4578   -5.0200   16.3036 N   0  0  0  0  0  0  0  0  0  0  0  0
    5.0287   -8.9365   16.8223 C   0  0  0  0  0  0  0  0  0  0  0  0
    8.7742   -6.1498   16.6764 C   0  0  0  0  0  0  0  0  0  0  0  0
   10.9418   -3.4032   21.2053 O   0  0  0  0  0  0  0  0  0  0  0  0
    1.4797   -8.6258   16.2950 C   0  0  0  0  0  0  0  0  0  0  0  0
    9.2861   -1.2743   25.3585 C   0  0  0  0  0  0  0  0  0  0  0  0
    1.8892  -10.3985   17.7511 N   0  0  0  0  0  0  0  0  0  0  0  0
    9.6210   -0.6952   24.0976 C   0  0  0  0  0  0  0  0  0  0  0  0
    7.0792   -9.0217   17.1429 C   0  0  0  0  0  0  0  0  0  0  0  0
    3.1713  -10.1816   17.6634 C   0  0  0  0  0  0  0  0  0  0  0  0
    2.7878   -8.3822   16.2137 C   0  0  0  0  0  0  0  0  0  0  0  0
    9.4601   -2.6590   25.6528 C   0  0  0  0  0  0  0  0  0  0  0  0
   10.1182   -1.5672   23.1165 C   0  0  0  0  0  0  0  0  0  0  0  0
    1.0552   -9.6360   17.0650 C   0  0  0  0  0  0  0  0  0  0  0  0
    3.6519   -9.1783   16.9039 C   0  0  0  0  0  0  0  0  0  0  0  0
    7.8675   -7.0096   15.9415 C   0  0  0  0  0  0  0  0  0  0  0  0
    5.9733   -9.6553   17.3832 N   0  0  0  0  0  0  0  0  0  0  0  0
   10.2411   -2.9363   23.4301 C   0  0  0  0  0  0  0  0  0  0  0  0
   10.7288   -3.8197   19.9525 C   0  0  0  0  0  0  0  0  0  0  0  0
   10.1189   -5.0054   19.6987 C   0  0  0  0  0  0  0  0  0  0  0  0
  1  3  4  0
  1  7  4  0
  2 21  4  0
  2 27  4  0
  3  9  4  0
  3 10  4  0
  4  8  4  0
  4 18  4  0
  4 25  1  0
  5  9  4  0
  5 12  4  0
  6 13  1  0
  6 27  1  0
  7 28  4  0
  8 11  4  0
  9 29  4  0
 10 12  4  0
 11 24  1  0
 11 26  4  0
 12 25  1  0
 13 28  1  0
 14 20  4  0
 14 23  4  0
 15 17  4  0
 15 21  4  0
 16 19  4  0
 16 23  4  0
 17 22  4  0
 18 26  4  0
 19 24  4  0
 20 24  4  0
 22 27  4  0
 28 29  4  0
M  END
$$$$

 Created by Python create_sdf_string function

 29 33  0  0  0  0  0  0  0  0999 V2000
   10.7215   -3.3326   17.6437 C   0  0  0  0  0  0  0  0  0  0  0  0
    9.9489   -3.4675   24.6487 N   0  0  0  0  0  0  0  0  0  0  0  0
   10.0172   -4.4740   17.4101 C   0  0  0  0  0  0  0  0  0  0  0  0
    6.9051   -7.9575   16.4222 C   0  0  0  0  0  0  0  0  0  0  0  0
    8.9969   -6.3552   17.9668 N   0  0  0  0  0  0  0  0  0  0  0  0
   10.6702   -3.9051   22.4070 C   0  0  0  0  0  0  0  0  0  0  0  0
   11.0625   -3.0028   18.8894 C   0  0  0  0  0  0  0  0  0  0  0  0
    5.6180   -7.9194   16.1754 O   0  0  0  0  0  0  0  0  0  0  0  0
    9.7259   -5.3080   18.4485 C   0  0  0  0  0  0  0  0  0  0  0  0
    9.4578   -5.0200   16.3036 N   0  0  0  0  0  0  0  0  0  0  0  0
    5.0287   -8.9365   16.8223 C   0  0  0  0  0  0  0  0  0  0  0  0
    8.7742   -6.1498   16.6764 C   0  0  0  0  0  0  0  0  0  0  0  0
   10.9418   -3.4032   21.2053 O   0  0  0  0  0  0  0  0  0  0  0  0
    1.4797   -8.6258   16.2950 C   0  0  0  0  0  0  0  0  0  0  0  0
    9.2861   -1.2743   25.3585 C   0  0  0  0  0  0  0  0  0  0  0  0
    1.8892  -10.3985   17.7511 N   0  0  0  0  0  0  0  0  0  0  0  0
    9.6210   -0.6952   24.0976 C   0  0  0  0  0  0  0  0  0  0  0  0
    7.0792   -9.0217   17.1429 C   0  0  0  0  0  0  0  0  0  0  0  0
    3.1713  -10.1816   17.6634 C   0  0  0  0  0  0  0  0  0  0  0  0
    2.7878   -8.3822   16.2137 C   0  0  0  0  0  0  0  0  0  0  0  0
    9.4601   -2.6590   25.6528 C   0  0  0  0  0  0  0  0  0  0  0  0
   10.1182   -1.5672   23.1165 C   0  0  0  0  0  0  0  0  0  0  0  0
    1.0552   -9.6360   17.0650 C   0  0  0  0  0  0  0  0  0  0  0  0
    3.6519   -9.1783   16.9039 C   0  0  0  0  0  0  0  0  0  0  0  0
    7.8675   -7.0096   15.9415 C   0  0  0  0  0  0  0  0  0  0  0  0
    5.9733   -9.6553   17.3832 N   0  0  0  0  0  0  0  0  0  0  0  0
   10.2411   -2.9363   23.4301 C   0  0  0  0  0  0  0  0  0  0  0  0
   10.7288   -3.8197   19.9525 C   0  0  0  0  0  0  0  0  0  0  0  0
   10.1189   -5.0054   19.6987 C   0  0  0  0  0  0  0  0  0  0  0  0
  1  3  4  0
  1  7  4  0
  2 21  4  0
  2 27  4  0
  3  9  4  0
  3 10  4  0
  4  8  4  0
  4 18  4  0
  4 25  1  0
  5  9  4  0
  5 12  4  0
  6 13  1  0
  6 27  1  0
  7 28  4  0
  8 11  4  0
  9 29  4  0
 10 12  4  0
 11 24  1  0
 11 26  4  0
 12 25  1  0
 13 28  1  0
 14 20  4  0
 14 23  4  0
 15 17  4  0
 15 21  4  0
 16 19  4  0
 16 23  4  0
 17 22  4  0
 18 26  4  0
 19 24  4  0
 20 24  4  0
 22 27  4  0
 28 29  4  0
M  END
$$$$

 Created by Python create_sdf_string function

 29 33  0  0  0  0  0  0  0  0999 V2000
   10.7215   -3.3326   17.6437 C   0  0  0  0  0  0  0  0  0  0  0  0
    9.9489   -3.4675   24.6487 N   0  0  0  0  0  0  0  0  0  0  0  0
   10.0172   -4.4740   17.4101 C   0  0  0  0  0  0  0  0  0  0  0  0
    6.9051   -7.9575   16.4222 C   0  0  0  0  0  0  0  0  0  0  0  0
    8.9969   -6.3552   17.9668 N   0  0  0  0  0  0  0  0  0  0  0  0
   10.6702   -3.9051   22.4070 C   0  0  0  0  0  0  0  0  0  0  0  0
   11.0625   -3.0028   18.8894 C   0  0  0  0  0  0  0  0  0  0  0  0
    5.6180   -7.9194   16.1754 O   0  0  0  0  0  0  0  0  0  0  0  0
    9.7259   -5.3080   18.4485 C   0  0  0  0  0  0  0  0  0  0  0  0
    9.4578   -5.0200   16.3036 N   0  0  0  0  0  0  0  0  0  0  0  0
    5.0287   -8.9365   16.8223 C   0  0  0  0  0  0  0  0  0  0  0  0
    8.7742   -6.1498   16.6764 C   0  0  0  0  0  0  0  0  0  0  0  0
   10.9418   -3.4032   21.2053 O   0  0  0  0  0  0  0  0  0  0  0  0
    1.4797   -8.6258   16.2950 C   0  0  0  0  0  0  0  0  0  0  0  0
    9.2861   -1.2743   25.3585 C   0  0  0  0  0  0  0  0  0  0  0  0
    1.8892  -10.3985   17.7511 N   0  0  0  0  0  0  0  0  0  0  0  0
    9.6210   -0.6952   24.0976 C   0  0  0  0  0  0  0  0  0  0  0  0
    7.0792   -9.0217   17.1429 C   0  0  0  0  0  0  0  0  0  0  0  0
    3.1713  -10.1816   17.6634 C   0  0  0  0  0  0  0  0  0  0  0  0
    2.7878   -8.3822   16.2137 C   0  0  0  0  0  0  0  0  0  0  0  0
    9.4601   -2.6590   25.6528 C   0  0  0  0  0  0  0  0  0  0  0  0
   10.1182   -1.5672   23.1165 C   0  0  0  0  0  0  0  0  0  0  0  0
    1.0552   -9.6360   17.0650 C   0  0  0  0  0  0  0  0  0  0  0  0
    3.6519   -9.1783   16.9039 C   0  0  0  0  0  0  0  0  0  0  0  0
    7.8675   -7.0096   15.9415 C   0  0  0  0  0  0  0  0  0  0  0  0
    5.9733   -9.6553   17.3832 N   0  0  0  0  0  0  0  0  0  0  0  0
   10.2411   -2.9363   23.4301 C   0  0  0  0  0  0  0  0  0  0  0  0
   10.7288   -3.8197   19.9525 C   0  0  0  0  0  0  0  0  0  0  0  0
   10.1189   -5.0054   19.6987 C   0  0  0  0  0  0  0  0  0  0  0  0
  1  3  4  0
  1  7  4  0
  2 21  4  0
  2 27  4  0
  3  9  4  0
  3 10  4  0
  4  8  4  0
  4 18  4  0
  4 25  1  0
  5  9  4  0
  5 12  4  0
  6 13  1  0
  6 27  1  0
  7 28  4  0
  8 11  4  0
  9 29  4  0
 10 12  4  0
 11 24  1  0
 11 26  4  0
 12 25  1  0
 13 28  1  0
 14 20  4  0
 14 23  4  0
 15 17  4  0
 15 21  4  0
 16 19  4  0
 16 23  4  0
 17 22  4  0
 18 26  4  0
 19 24  4  0
 20 24  4  0
 22 27  4  0
 28 29  4  0
M  END
$$$$

 Created by Python create_sdf_string function

 29 33  0  0  0  0  0  0  0  0999 V2000
   10.7215   -3.3326   17.6437 C   0  0  0  0  0  0  0  0  0  0  0  0
    9.9489   -3.4675   24.6487 N   0  0  0  0  0  0  0  0  0  0  0  0
   10.0172   -4.4740   17.4101 C   0  0  0  0  0  0  0  0  0  0  0  0
    6.9051   -7.9575   16.4222 C   0  0  0  0  0  0  0  0  0  0  0  0
    8.9969   -6.3552   17.9668 N   0  0  0  0  0  0  0  0  0  0  0  0
   10.6702   -3.9051   22.4070 C   0  0  0  0  0  0  0  0  0  0  0  0
   11.0625   -3.0028   18.8894 C   0  0  0  0  0  0  0  0  0  0  0  0
    5.6180   -7.9194   16.1754 O   0  0  0  0  0  0  0  0  0  0  0  0
    9.7259   -5.3080   18.4485 C   0  0  0  0  0  0  0  0  0  0  0  0
    9.4578   -5.0200   16.3036 N   0  0  0  0  0  0  0  0  0  0  0  0
    5.0287   -8.9365   16.8223 C   0  0  0  0  0  0  0  0  0  0  0  0
    8.7742   -6.1498   16.6764 C   0  0  0  0  0  0  0  0  0  0  0  0
   10.9418   -3.4032   21.2053 O   0  0  0  0  0  0  0  0  0  0  0  0
    1.4797   -8.6258   16.2950 C   0  0  0  0  0  0  0  0  0  0  0  0
    9.2861   -1.2743   25.3585 C   0  0  0  0  0  0  0  0  0  0  0  0
    1.8892  -10.3985   17.7511 N   0  0  0  0  0  0  0  0  0  0  0  0
    9.6210   -0.6952   24.0976 C   0  0  0  0  0  0  0  0  0  0  0  0
    7.0792   -9.0217   17.1429 C   0  0  0  0  0  0  0  0  0  0  0  0
    3.1713  -10.1816   17.6634 C   0  0  0  0  0  0  0  0  0  0  0  0
    2.7878   -8.3822   16.2137 C   0  0  0  0  0  0  0  0  0  0  0  0
    9.4601   -2.6590   25.6528 C   0  0  0  0  0  0  0  0  0  0  0  0
   10.1182   -1.5672   23.1165 C   0  0  0  0  0  0  0  0  0  0  0  0
    1.0552   -9.6360   17.0650 C   0  0  0  0  0  0  0  0  0  0  0  0
    3.6519   -9.1783   16.9039 C   0  0  0  0  0  0  0  0  0  0  0  0
    7.8675   -7.0096   15.9415 C   0  0  0  0  0  0  0  0  0  0  0  0
    5.9733   -9.6553   17.3832 N   0  0  0  0  0  0  0  0  0  0  0  0
   10.2411   -2.9363   23.4301 C   0  0  0  0  0  0  0  0  0  0  0  0
   10.7288   -3.8197   19.9525 C   0  0  0  0  0  0  0  0  0  0  0  0
   10.1189   -5.0054   19.6987 C   0  0  0  0  0  0  0  0  0  0  0  0
  1  3  4  0
  1  7  4  0
  2 21  4  0
  2 27  4  0
  3  9  4  0
  3 10  4  0
  4  8  4  0
  4 18  4  0
  4 25  1  0
  5  9  4  0
  5 12  4  0
  6 13  1  0
  6 27  1  0
  7 28  4  0
  8 11  4  0
  9 29  4  0
 10 12  4  0
 11 24  1  0
 11 26  4  0
 12 25  1  0
 13 28  1  0
 14 20  4  0
 14 23  4  0
 15 17  4  0
 15 21  4  0
 16 19  4  0
 16 23  4  0
 17 22  4  0
 18 26  4  0
 19 24  4  0
 20 24  4  0
 22 27  4  0
 28 29  4  0
M  END
$$$$

 Created by Python create_sdf_string function

 29 33  0  0  0  0  0  0  0  0999 V2000
   10.7215   -3.3326   17.6437 C   0  0  0  0  0  0  0  0  0  0  0  0
    9.9489   -3.4675   24.6487 N   0  0  0  0  0  0  0  0  0  0  0  0
   10.0172   -4.4740   17.4101 C   0  0  0  0  0  0  0  0  0  0  0  0
    6.9051   -7.9575   16.4222 C   0  0  0  0  0  0  0  0  0  0  0  0
    8.9969   -6.3552   17.9668 N   0  0  0  0  0  0  0  0  0  0  0  0
   10.6702   -3.9051   22.4070 C   0  0  0  0  0  0  0  0  0  0  0  0
   11.0625   -3.0028   18.8894 C   0  0  0  0  0  0  0  0  0  0  0  0
    5.6180   -7.9194   16.1754 O   0  0  0  0  0  0  0  0  0  0  0  0
    9.7259   -5.3080   18.4485 C   0  0  0  0  0  0  0  0  0  0  0  0
    9.4578   -5.0200   16.3036 N   0  0  0  0  0  0  0  0  0  0  0  0
    5.0287   -8.9365   16.8223 C   0  0  0  0  0  0  0  0  0  0  0  0
    8.7742   -6.1498   16.6764 C   0  0  0  0  0  0  0  0  0  0  0  0
   10.9418   -3.4032   21.2053 O   0  0  0  0  0  0  0  0  0  0  0  0
    1.4797   -8.6258   16.2950 C   0  0  0  0  0  0  0  0  0  0  0  0
    9.2861   -1.2743   25.3585 C   0  0  0  0  0  0  0  0  0  0  0  0
    1.8892  -10.3985   17.7511 N   0  0  0  0  0  0  0  0  0  0  0  0
    9.6210   -0.6952   24.0976 C   0  0  0  0  0  0  0  0  0  0  0  0
    7.0792   -9.0217   17.1429 C   0  0  0  0  0  0  0  0  0  0  0  0
    3.1713  -10.1816   17.6634 C   0  0  0  0  0  0  0  0  0  0  0  0
    2.7878   -8.3822   16.2137 C   0  0  0  0  0  0  0  0  0  0  0  0
    9.4601   -2.6590   25.6528 C   0  0  0  0  0  0  0  0  0  0  0  0
   10.1182   -1.5672   23.1165 C   0  0  0  0  0  0  0  0  0  0  0  0
    1.0552   -9.6360   17.0650 C   0  0  0  0  0  0  0  0  0  0  0  0
    3.6519   -9.1783   16.9039 C   0  0  0  0  0  0  0  0  0  0  0  0
    7.8675   -7.0096   15.9415 C   0  0  0  0  0  0  0  0  0  0  0  0
    5.9733   -9.6553   17.3832 N   0  0  0  0  0  0  0  0  0  0  0  0
   10.2411   -2.9363   23.4301 C   0  0  0  0  0  0  0  0  0  0  0  0
   10.7288   -3.8197   19.9525 C   0  0  0  0  0  0  0  0  0  0  0  0
   10.1189   -5.0054   19.6987 C   0  0  0  0  0  0  0  0  0  0  0  0
  1  3  4  0
  1  7  4  0
  2 21  4  0
  2 27  4  0
  3  9  4  0
  3 10  4  0
  4  8  4  0
  4 18  4  0
  4 25  1  0
  5  9  4  0
  5 12  4  0
  6 13  1  0
  6 27  1  0
  7 28  4  0
  8 11  4  0
  9 29  4  0
 10 12  4  0
 11 24  1  0
 11 26  4  0
 12 25  1  0
 13 28  1  0
 14 20  4  0
 14 23  4  0
 15 17  4  0
 15 21  4  0
 16 19  4  0
 16 23  4  0
 17 22  4  0
 18 26  4  0
 19 24  4  0
 20 24  4  0
 22 27  4  0
 28 29  4  0
M  END
$$$$

 Created by Python create_sdf_string function

 29 33  0  0  0  0  0  0  0  0999 V2000
   10.7215   -3.3326   17.6437 C   0  0  0  0  0  0  0  0  0  0  0  0
    9.9489   -3.4675   24.6487 N   0  0  0  0  0  0  0  0  0  0  0  0
   10.0172   -4.4740   17.4101 C   0  0  0  0  0  0  0  0  0  0  0  0
    6.9051   -7.9575   16.4222 C   0  0  0  0  0  0  0  0  0  0  0  0
    8.9969   -6.3552   17.9668 N   0  0  0  0  0  0  0  0  0  0  0  0
   10.6702   -3.9051   22.4070 C   0  0  0  0  0  0  0  0  0  0  0  0
   11.0625   -3.0028   18.8894 C   0  0  0  0  0  0  0  0  0  0  0  0
    5.6180   -7.9194   16.1754 O   0  0  0  0  0  0  0  0  0  0  0  0
    9.7259   -5.3080   18.4485 C   0  0  0  0  0  0  0  0  0  0  0  0
    9.4578   -5.0200   16.3036 N   0  0  0  0  0  0  0  0  0  0  0  0
    5.0287   -8.9365   16.8223 C   0  0  0  0  0  0  0  0  0  0  0  0
    8.7742   -6.1498   16.6764 C   0  0  0  0  0  0  0  0  0  0  0  0
   10.9418   -3.4032   21.2053 O   0  0  0  0  0  0  0  0  0  0  0  0
    1.4797   -8.6258   16.2950 C   0  0  0  0  0  0  0  0  0  0  0  0
    9.2861   -1.2743   25.3585 C   0  0  0  0  0  0  0  0  0  0  0  0
    1.8892  -10.3985   17.7511 N   0  0  0  0  0  0  0  0  0  0  0  0
    9.6210   -0.6952   24.0976 C   0  0  0  0  0  0  0  0  0  0  0  0
    7.0792   -9.0217   17.1429 C   0  0  0  0  0  0  0  0  0  0  0  0
    3.1713  -10.1816   17.6634 C   0  0  0  0  0  0  0  0  0  0  0  0
    2.7878   -8.3822   16.2137 C   0  0  0  0  0  0  0  0  0  0  0  0
    9.4601   -2.6590   25.6528 C   0  0  0  0  0  0  0  0  0  0  0  0
   10.1182   -1.5672   23.1165 C   0  0  0  0  0  0  0  0  0  0  0  0
    1.0552   -9.6360   17.0650 C   0  0  0  0  0  0  0  0  0  0  0  0
    3.6519   -9.1783   16.9039 C   0  0  0  0  0  0  0  0  0  0  0  0
    7.8675   -7.0096   15.9415 C   0  0  0  0  0  0  0  0  0  0  0  0
    5.9733   -9.6553   17.3832 N   0  0  0  0  0  0  0  0  0  0  0  0
   10.2411   -2.9363   23.4301 C   0  0  0  0  0  0  0  0  0  0  0  0
   10.7288   -3.8197   19.9525 C   0  0  0  0  0  0  0  0  0  0  0  0
   10.1189   -5.0054   19.6987 C   0  0  0  0  0  0  0  0  0  0  0  0
  1  3  4  0
  1  7  4  0
  2 21  4  0
  2 27  4  0
  3  9  4  0
  3 10  4  0
  4  8  4  0
  4 18  4  0
  4 25  1  0
  5  9  4  0
  5 12  4  0
  6 13  1  0
  6 27  1  0
  7 28  4  0
  8 11  4  0
  9 29  4  0
 10 12  4  0
 11 24  1  0
 11 26  4  0
 12 25  1  0
 13 28  1  0
 14 20  4  0
 14 23  4  0
 15 17  4  0
 15 21  4  0
 16 19  4  0
 16 23  4  0
 17 22  4  0
 18 26  4  0
 19 24  4  0
 20 24  4  0
 22 27  4  0
 28 29  4  0
M  END
$$$$

 Created by Python create_sdf_string function

 29 33  0  0  0  0  0  0  0  0999 V2000
   10.7215   -3.3326   17.6437 C   0  0  0  0  0  0  0  0  0  0  0  0
    9.9489   -3.4675   24.6487 N   0  0  0  0  0  0  0  0  0  0  0  0
   10.0172   -4.4740   17.4101 C   0  0  0  0  0  0  0  0  0  0  0  0
    6.9051   -7.9575   16.4222 C   0  0  0  0  0  0  0  0  0  0  0  0
    8.9969   -6.3552   17.9668 N   0  0  0  0  0  0  0  0  0  0  0  0
   10.6702   -3.9051   22.4070 C   0  0  0  0  0  0  0  0  0  0  0  0
   11.0625   -3.0028   18.8894 C   0  0  0  0  0  0  0  0  0  0  0  0
    5.6180   -7.9194   16.1754 O   0  0  0  0  0  0  0  0  0  0  0  0
    9.7259   -5.3080   18.4485 C   0  0  0  0  0  0  0  0  0  0  0  0
    9.4578   -5.0200   16.3036 N   0  0  0  0  0  0  0  0  0  0  0  0
    5.0287   -8.9365   16.8223 C   0  0  0  0  0  0  0  0  0  0  0  0
    8.7742   -6.1498   16.6764 C   0  0  0  0  0  0  0  0  0  0  0  0
   10.9418   -3.4032   21.2053 O   0  0  0  0  0  0  0  0  0  0  0  0
    1.4797   -8.6258   16.2950 C   0  0  0  0  0  0  0  0  0  0  0  0
    9.2861   -1.2743   25.3585 C   0  0  0  0  0  0  0  0  0  0  0  0
    1.8892  -10.3985   17.7511 N   0  0  0  0  0  0  0  0  0  0  0  0
    9.6210   -0.6952   24.0976 C   0  0  0  0  0  0  0  0  0  0  0  0
    7.0792   -9.0217   17.1429 C   0  0  0  0  0  0  0  0  0  0  0  0
    3.1713  -10.1816   17.6634 C   0  0  0  0  0  0  0  0  0  0  0  0
    2.7878   -8.3822   16.2137 C   0  0  0  0  0  0  0  0  0  0  0  0
    9.4601   -2.6590   25.6528 C   0  0  0  0  0  0  0  0  0  0  0  0
   10.1182   -1.5672   23.1165 C   0  0  0  0  0  0  0  0  0  0  0  0
    1.0552   -9.6360   17.0650 C   0  0  0  0  0  0  0  0  0  0  0  0
    3.6519   -9.1783   16.9039 C   0  0  0  0  0  0  0  0  0  0  0  0
    7.8675   -7.0096   15.9415 C   0  0  0  0  0  0  0  0  0  0  0  0
    5.9733   -9.6553   17.3832 N   0  0  0  0  0  0  0  0  0  0  0  0
   10.2411   -2.9363   23.4301 C   0  0  0  0  0  0  0  0  0  0  0  0
   10.7288   -3.8197   19.9525 C   0  0  0  0  0  0  0  0  0  0  0  0
   10.1189   -5.0054   19.6987 C   0  0  0  0  0  0  0  0  0  0  0  0
  1  3  4  0
  1  7  4  0
  2 21  4  0
  2 27  4  0
  3  9  4  0
  3 10  4  0
  4  8  4  0
  4 18  4  0
  4 25  1  0
  5  9  4  0
  5 12  4  0
  6 13  1  0
  6 27  1  0
  7 28  4  0
  8 11  4  0
  9 29  4  0
 10 12  4  0
 11 24  1  0
 11 26  4  0
 12 25  1  0
 13 28  1  0
 14 20  4  0
 14 23  4  0
 15 17  4  0
 15 21  4  0
 16 19  4  0
 16 23  4  0
 17 22  4  0
 18 26  4  0
 19 24  4  0
 20 24  4  0
 22 27  4  0
 28 29  4  0
M  END
$$$$

 Created by Python create_sdf_string function

 29 33  0  0  0  0  0  0  0  0999 V2000
   10.7215   -3.3326   17.6437 C   0  0  0  0  0  0  0  0  0  0  0  0
    9.9489   -3.4675   24.6487 N   0  0  0  0  0  0  0  0  0  0  0  0
   10.0172   -4.4740   17.4101 C   0  0  0  0  0  0  0  0  0  0  0  0
    6.9051   -7.9575   16.4222 C   0  0  0  0  0  0  0  0  0  0  0  0
    8.9969   -6.3552   17.9668 N   0  0  0  0  0  0  0  0  0  0  0  0
   10.6702   -3.9051   22.4070 C   0  0  0  0  0  0  0  0  0  0  0  0
   11.0625   -3.0028   18.8894 C   0  0  0  0  0  0  0  0  0  0  0  0
    5.6180   -7.9194   16.1754 O   0  0  0  0  0  0  0  0  0  0  0  0
    9.7259   -5.3080   18.4485 C   0  0  0  0  0  0  0  0  0  0  0  0
    9.4578   -5.0200   16.3036 N   0  0  0  0  0  0  0  0  0  0  0  0
    5.0287   -8.9365   16.8223 C   0  0  0  0  0  0  0  0  0  0  0  0
    8.7742   -6.1498   16.6764 C   0  0  0  0  0  0  0  0  0  0  0  0
   10.9418   -3.4032   21.2053 O   0  0  0  0  0  0  0  0  0  0  0  0
    1.4797   -8.6258   16.2950 C   0  0  0  0  0  0  0  0  0  0  0  0
    9.2861   -1.2743   25.3585 C   0  0  0  0  0  0  0  0  0  0  0  0
    1.8892  -10.3985   17.7511 N   0  0  0  0  0  0  0  0  0  0  0  0
    9.6210   -0.6952   24.0976 C   0  0  0  0  0  0  0  0  0  0  0  0
    7.0792   -9.0217   17.1429 C   0  0  0  0  0  0  0  0  0  0  0  0
    3.1713  -10.1816   17.6634 C   0  0  0  0  0  0  0  0  0  0  0  0
    2.7878   -8.3822   16.2137 C   0  0  0  0  0  0  0  0  0  0  0  0
    9.4601   -2.6590   25.6528 C   0  0  0  0  0  0  0  0  0  0  0  0
   10.1182   -1.5672   23.1165 C   0  0  0  0  0  0  0  0  0  0  0  0
    1.0552   -9.6360   17.0650 C   0  0  0  0  0  0  0  0  0  0  0  0
    3.6519   -9.1783   16.9039 C   0  0  0  0  0  0  0  0  0  0  0  0
    7.8675   -7.0096   15.9415 C   0  0  0  0  0  0  0  0  0  0  0  0
    5.9733   -9.6553   17.3832 N   0  0  0  0  0  0  0  0  0  0  0  0
   10.2411   -2.9363   23.4301 C   0  0  0  0  0  0  0  0  0  0  0  0
   10.7288   -3.8197   19.9525 C   0  0  0  0  0  0  0  0  0  0  0  0
   10.1189   -5.0054   19.6987 C   0  0  0  0  0  0  0  0  0  0  0  0
  1  3  4  0
  1  7  4  0
  2 21  4  0
  2 27  4  0
  3  9  4  0
  3 10  4  0
  4  8  4  0
  4 18  4  0
  4 25  1  0
  5  9  4  0
  5 12  4  0
  6 13  1  0
  6 27  1  0
  7 28  4  0
  8 11  4  0
  9 29  4  0
 10 12  4  0
 11 24  1  0
 11 26  4  0
 12 25  1  0
 13 28  1  0
 14 20  4  0
 14 23  4  0
 15 17  4  0
 15 21  4  0
 16 19  4  0
 16 23  4  0
 17 22  4  0
 18 26  4  0
 19 24  4  0
 20 24  4  0
 22 27  4  0
 28 29  4  0
M  END
$$$$

 Created by Python create_sdf_string function

 29 33  0  0  0  0  0  0  0  0999 V2000
   10.7215   -3.3326   17.6437 C   0  0  0  0  0  0  0  0  0  0  0  0
    9.9489   -3.4675   24.6487 N   0  0  0  0  0  0  0  0  0  0  0  0
   10.0172   -4.4740   17.4101 C   0  0  0  0  0  0  0  0  0  0  0  0
    6.9051   -7.9575   16.4222 C   0  0  0  0  0  0  0  0  0  0  0  0
    8.9969   -6.3552   17.9668 N   0  0  0  0  0  0  0  0  0  0  0  0
   10.6702   -3.9051   22.4070 C   0  0  0  0  0  0  0  0  0  0  0  0
   11.0625   -3.0028   18.8894 C   0  0  0  0  0  0  0  0  0  0  0  0
    5.6180   -7.9194   16.1754 O   0  0  0  0  0  0  0  0  0  0  0  0
    9.7259   -5.3080   18.4485 C   0  0  0  0  0  0  0  0  0  0  0  0
    9.4578   -5.0200   16.3036 N   0  0  0  0  0  0  0  0  0  0  0  0
    5.0287   -8.9365   16.8223 C   0  0  0  0  0  0  0  0  0  0  0  0
    8.7742   -6.1498   16.6764 C   0  0  0  0  0  0  0  0  0  0  0  0
   10.9418   -3.4032   21.2053 O   0  0  0  0  0  0  0  0  0  0  0  0
    1.4797   -8.6258   16.2950 C   0  0  0  0  0  0  0  0  0  0  0  0
    9.2861   -1.2743   25.3585 C   0  0  0  0  0  0  0  0  0  0  0  0
    1.8892  -10.3985   17.7511 N   0  0  0  0  0  0  0  0  0  0  0  0
    9.6210   -0.6952   24.0976 C   0  0  0  0  0  0  0  0  0  0  0  0
    7.0792   -9.0217   17.1429 C   0  0  0  0  0  0  0  0  0  0  0  0
    3.1713  -10.1816   17.6634 C   0  0  0  0  0  0  0  0  0  0  0  0
    2.7878   -8.3822   16.2137 C   0  0  0  0  0  0  0  0  0  0  0  0
    9.4601   -2.6590   25.6528 C   0  0  0  0  0  0  0  0  0  0  0  0
   10.1182   -1.5672   23.1165 C   0  0  0  0  0  0  0  0  0  0  0  0
    1.0552   -9.6360   17.0650 C   0  0  0  0  0  0  0  0  0  0  0  0
    3.6519   -9.1783   16.9039 C   0  0  0  0  0  0  0  0  0  0  0  0
    7.8675   -7.0096   15.9415 C   0  0  0  0  0  0  0  0  0  0  0  0
    5.9733   -9.6553   17.3832 N   0  0  0  0  0  0  0  0  0  0  0  0
   10.2411   -2.9363   23.4301 C   0  0  0  0  0  0  0  0  0  0  0  0
   10.7288   -3.8197   19.9525 C   0  0  0  0  0  0  0  0  0  0  0  0
   10.1189   -5.0054   19.6987 C   0  0  0  0  0  0  0  0  0  0  0  0
  1  3  4  0
  1  7  4  0
  2 21  4  0
  2 27  4  0
  3  9  4  0
  3 10  4  0
  4  8  4  0
  4 18  4  0
  4 25  1  0
  5  9  4  0
  5 12  4  0
  6 13  1  0
  6 27  1  0
  7 28  4  0
  8 11  4  0
  9 29  4  0
 10 12  4  0
 11 24  1  0
 11 26  4  0
 12 25  1  0
 13 28  1  0
 14 20  4  0
 14 23  4  0
 15 17  4  0
 15 21  4  0
 16 19  4  0
 16 23  4  0
 17 22  4  0
 18 26  4  0
 19 24  4  0
 20 24  4  0
 22 27  4  0
 28 29  4  0
M  END
$$$$

 Created by Python create_sdf_string function

 29 33  0  0  0  0  0  0  0  0999 V2000
   10.7215   -3.3326   17.6437 C   0  0  0  0  0  0  0  0  0  0  0  0
    9.9489   -3.4675   24.6487 N   0  0  0  0  0  0  0  0  0  0  0  0
   10.0172   -4.4740   17.4101 C   0  0  0  0  0  0  0  0  0  0  0  0
    6.9051   -7.9575   16.4222 C   0  0  0  0  0  0  0  0  0  0  0  0
    8.9969   -6.3552   17.9668 N   0  0  0  0  0  0  0  0  0  0  0  0
   10.6702   -3.9051   22.4070 C   0  0  0  0  0  0  0  0  0  0  0  0
   11.0625   -3.0028   18.8894 C   0  0  0  0  0  0  0  0  0  0  0  0
    5.6180   -7.9194   16.1754 O   0  0  0  0  0  0  0  0  0  0  0  0
    9.7259   -5.3080   18.4485 C   0  0  0  0  0  0  0  0  0  0  0  0
    9.4578   -5.0200   16.3036 N   0  0  0  0  0  0  0  0  0  0  0  0
    5.0287   -8.9365   16.8223 C   0  0  0  0  0  0  0  0  0  0  0  0
    8.7742   -6.1498   16.6764 C   0  0  0  0  0  0  0  0  0  0  0  0
   10.9418   -3.4032   21.2053 O   0  0  0  0  0  0  0  0  0  0  0  0
    1.4797   -8.6258   16.2950 C   0  0  0  0  0  0  0  0  0  0  0  0
    9.2861   -1.2743   25.3585 C   0  0  0  0  0  0  0  0  0  0  0  0
    1.8892  -10.3985   17.7511 N   0  0  0  0  0  0  0  0  0  0  0  0
    9.6210   -0.6952   24.0976 C   0  0  0  0  0  0  0  0  0  0  0  0
    7.0792   -9.0217   17.1429 C   0  0  0  0  0  0  0  0  0  0  0  0
    3.1713  -10.1816   17.6634 C   0  0  0  0  0  0  0  0  0  0  0  0
    2.7878   -8.3822   16.2137 C   0  0  0  0  0  0  0  0  0  0  0  0
    9.4601   -2.6590   25.6528 C   0  0  0  0  0  0  0  0  0  0  0  0
   10.1182   -1.5672   23.1165 C   0  0  0  0  0  0  0  0  0  0  0  0
    1.0552   -9.6360   17.0650 C   0  0  0  0  0  0  0  0  0  0  0  0
    3.6519   -9.1783   16.9039 C   0  0  0  0  0  0  0  0  0  0  0  0
    7.8675   -7.0096   15.9415 C   0  0  0  0  0  0  0  0  0  0  0  0
    5.9733   -9.6553   17.3832 N   0  0  0  0  0  0  0  0  0  0  0  0
   10.2411   -2.9363   23.4301 C   0  0  0  0  0  0  0  0  0  0  0  0
   10.7288   -3.8197   19.9525 C   0  0  0  0  0  0  0  0  0  0  0  0
   10.1189   -5.0054   19.6987 C   0  0  0  0  0  0  0  0  0  0  0  0
  1  3  4  0
  1  7  4  0
  2 21  4  0
  2 27  4  0
  3  9  4  0
  3 10  4  0
  4  8  4  0
  4 18  4  0
  4 25  1  0
  5  9  4  0
  5 12  4  0
  6 13  1  0
  6 27  1  0
  7 28  4  0
  8 11  4  0
  9 29  4  0
 10 12  4  0
 11 24  1  0
 11 26  4  0
 12 25  1  0
 13 28  1  0
 14 20  4  0
 14 23  4  0
 15 17  4  0
 15 21  4  0
 16 19  4  0
 16 23  4  0
 17 22  4  0
 18 26  4  0
 19 24  4  0
 20 24  4  0
 22 27  4  0
 28 29  4  0
M  END
$$$$

 Created by Python create_sdf_string function

 29 33  0  0  0  0  0  0  0  0999 V2000
   10.7215   -3.3326   17.6437 C   0  0  0  0  0  0  0  0  0  0  0  0
    9.9489   -3.4675   24.6487 N   0  0  0  0  0  0  0  0  0  0  0  0
   10.0172   -4.4740   17.4101 C   0  0  0  0  0  0  0  0  0  0  0  0
    6.9051   -7.9575   16.4222 C   0  0  0  0  0  0  0  0  0  0  0  0
    8.9969   -6.3552   17.9668 N   0  0  0  0  0  0  0  0  0  0  0  0
   10.6702   -3.9051   22.4070 C   0  0  0  0  0  0  0  0  0  0  0  0
   11.0625   -3.0028   18.8894 C   0  0  0  0  0  0  0  0  0  0  0  0
    5.6180   -7.9194   16.1754 O   0  0  0  0  0  0  0  0  0  0  0  0
    9.7259   -5.3080   18.4485 C   0  0  0  0  0  0  0  0  0  0  0  0
    9.4578   -5.0200   16.3036 N   0  0  0  0  0  0  0  0  0  0  0  0
    5.0287   -8.9365   16.8223 C   0  0  0  0  0  0  0  0  0  0  0  0
    8.7742   -6.1498   16.6764 C   0  0  0  0  0  0  0  0  0  0  0  0
   10.9418   -3.4032   21.2053 O   0  0  0  0  0  0  0  0  0  0  0  0
    1.4797   -8.6258   16.2950 C   0  0  0  0  0  0  0  0  0  0  0  0
    9.2861   -1.2743   25.3585 C   0  0  0  0  0  0  0  0  0  0  0  0
    1.8892  -10.3985   17.7511 N   0  0  0  0  0  0  0  0  0  0  0  0
    9.6210   -0.6952   24.0976 C   0  0  0  0  0  0  0  0  0  0  0  0
    7.0792   -9.0217   17.1429 C   0  0  0  0  0  0  0  0  0  0  0  0
    3.1713  -10.1816   17.6634 C   0  0  0  0  0  0  0  0  0  0  0  0
    2.7878   -8.3822   16.2137 C   0  0  0  0  0  0  0  0  0  0  0  0
    9.4601   -2.6590   25.6528 C   0  0  0  0  0  0  0  0  0  0  0  0
   10.1182   -1.5672   23.1165 C   0  0  0  0  0  0  0  0  0  0  0  0
    1.0552   -9.6360   17.0650 C   0  0  0  0  0  0  0  0  0  0  0  0
    3.6519   -9.1783   16.9039 C   0  0  0  0  0  0  0  0  0  0  0  0
    7.8675   -7.0096   15.9415 C   0  0  0  0  0  0  0  0  0  0  0  0
    5.9733   -9.6553   17.3832 N   0  0  0  0  0  0  0  0  0  0  0  0
   10.2411   -2.9363   23.4301 C   0  0  0  0  0  0  0  0  0  0  0  0
   10.7288   -3.8197   19.9525 C   0  0  0  0  0  0  0  0  0  0  0  0
   10.1189   -5.0054   19.6987 C   0  0  0  0  0  0  0  0  0  0  0  0
  1  3  4  0
  1  7  4  0
  2 21  4  0
  2 27  4  0
  3  9  4  0
  3 10  4  0
  4  8  4  0
  4 18  4  0
  4 25  1  0
  5  9  4  0
  5 12  4  0
  6 13  1  0
  6 27  1  0
  7 28  4  0
  8 11  4  0
  9 29  4  0
 10 12  4  0
 11 24  1  0
 11 26  4  0
 12 25  1  0
 13 28  1  0
 14 20  4  0
 14 23  4  0
 15 17  4  0
 15 21  4  0
 16 19  4  0
 16 23  4  0
 17 22  4  0
 18 26  4  0
 19 24  4  0
 20 24  4  0
 22 27  4  0
 28 29  4  0
M  END
$$$$

 Created by Python create_sdf_string function

 29 33  0  0  0  0  0  0  0  0999 V2000
   10.7215   -3.3326   17.6437 C   0  0  0  0  0  0  0  0  0  0  0  0
    9.9489   -3.4675   24.6487 N   0  0  0  0  0  0  0  0  0  0  0  0
   10.0172   -4.4740   17.4101 C   0  0  0  0  0  0  0  0  0  0  0  0
    6.9051   -7.9575   16.4222 C   0  0  0  0  0  0  0  0  0  0  0  0
    8.9969   -6.3552   17.9668 N   0  0  0  0  0  0  0  0  0  0  0  0
   10.6702   -3.9051   22.4070 C   0  0  0  0  0  0  0  0  0  0  0  0
   11.0625   -3.0028   18.8894 C   0  0  0  0  0  0  0  0  0  0  0  0
    5.6180   -7.9194   16.1754 O   0  0  0  0  0  0  0  0  0  0  0  0
    9.7259   -5.3080   18.4485 C   0  0  0  0  0  0  0  0  0  0  0  0
    9.4578   -5.0200   16.3036 N   0  0  0  0  0  0  0  0  0  0  0  0
    5.0287   -8.9365   16.8223 C   0  0  0  0  0  0  0  0  0  0  0  0
    8.7742   -6.1498   16.6764 C   0  0  0  0  0  0  0  0  0  0  0  0
   10.9418   -3.4032   21.2053 O   0  0  0  0  0  0  0  0  0  0  0  0
    1.4797   -8.6258   16.2950 C   0  0  0  0  0  0  0  0  0  0  0  0
    9.2861   -1.2743   25.3585 C   0  0  0  0  0  0  0  0  0  0  0  0
    1.8892  -10.3985   17.7511 N   0  0  0  0  0  0  0  0  0  0  0  0
    9.6210   -0.6952   24.0976 C   0  0  0  0  0  0  0  0  0  0  0  0
    7.0792   -9.0217   17.1429 C   0  0  0  0  0  0  0  0  0  0  0  0
    3.1713  -10.1816   17.6634 C   0  0  0  0  0  0  0  0  0  0  0  0
    2.7878   -8.3822   16.2137 C   0  0  0  0  0  0  0  0  0  0  0  0
    9.4601   -2.6590   25.6528 C   0  0  0  0  0  0  0  0  0  0  0  0
   10.1182   -1.5672   23.1165 C   0  0  0  0  0  0  0  0  0  0  0  0
    1.0552   -9.6360   17.0650 C   0  0  0  0  0  0  0  0  0  0  0  0
    3.6519   -9.1783   16.9039 C   0  0  0  0  0  0  0  0  0  0  0  0
    7.8675   -7.0096   15.9415 C   0  0  0  0  0  0  0  0  0  0  0  0
    5.9733   -9.6553   17.3832 N   0  0  0  0  0  0  0  0  0  0  0  0
   10.2411   -2.9363   23.4301 C   0  0  0  0  0  0  0  0  0  0  0  0
   10.7288   -3.8197   19.9525 C   0  0  0  0  0  0  0  0  0  0  0  0
   10.1189   -5.0054   19.6987 C   0  0  0  0  0  0  0  0  0  0  0  0
  1  3  4  0
  1  7  4  0
  2 21  4  0
  2 27  4  0
  3  9  4  0
  3 10  4  0
  4  8  4  0
  4 18  4  0
  4 25  1  0
  5  9  4  0
  5 12  4  0
  6 13  1  0
  6 27  1  0
  7 28  4  0
  8 11  4  0
  9 29  4  0
 10 12  4  0
 11 24  1  0
 11 26  4  0
 12 25  1  0
 13 28  1  0
 14 20  4  0
 14 23  4  0
 15 17  4  0
 15 21  4  0
 16 19  4  0
 16 23  4  0
 17 22  4  0
 18 26  4  0
 19 24  4  0
 20 24  4  0
 22 27  4  0
 28 29  4  0
M  END
$$$$

 Created by Python create_sdf_string function

 29 33  0  0  0  0  0  0  0  0999 V2000
   10.7215   -3.3326   17.6437 C   0  0  0  0  0  0  0  0  0  0  0  0
    9.9489   -3.4675   24.6487 N   0  0  0  0  0  0  0  0  0  0  0  0
   10.0172   -4.4740   17.4101 C   0  0  0  0  0  0  0  0  0  0  0  0
    6.9051   -7.9575   16.4222 C   0  0  0  0  0  0  0  0  0  0  0  0
    8.9969   -6.3552   17.9668 N   0  0  0  0  0  0  0  0  0  0  0  0
   10.6702   -3.9051   22.4070 C   0  0  0  0  0  0  0  0  0  0  0  0
   11.0625   -3.0028   18.8894 C   0  0  0  0  0  0  0  0  0  0  0  0
    5.6180   -7.9194   16.1754 O   0  0  0  0  0  0  0  0  0  0  0  0
    9.7259   -5.3080   18.4485 C   0  0  0  0  0  0  0  0  0  0  0  0
    9.4578   -5.0200   16.3036 N   0  0  0  0  0  0  0  0  0  0  0  0
    5.0287   -8.9365   16.8223 C   0  0  0  0  0  0  0  0  0  0  0  0
    8.7742   -6.1498   16.6764 C   0  0  0  0  0  0  0  0  0  0  0  0
   10.9418   -3.4032   21.2053 O   0  0  0  0  0  0  0  0  0  0  0  0
    1.4797   -8.6258   16.2950 C   0  0  0  0  0  0  0  0  0  0  0  0
    9.2861   -1.2743   25.3585 C   0  0  0  0  0  0  0  0  0  0  0  0
    1.8892  -10.3985   17.7511 N   0  0  0  0  0  0  0  0  0  0  0  0
    9.6210   -0.6952   24.0976 C   0  0  0  0  0  0  0  0  0  0  0  0
    7.0792   -9.0217   17.1429 C   0  0  0  0  0  0  0  0  0  0  0  0
    3.1713  -10.1816   17.6634 C   0  0  0  0  0  0  0  0  0  0  0  0
    2.7878   -8.3822   16.2137 C   0  0  0  0  0  0  0  0  0  0  0  0
    9.4601   -2.6590   25.6528 C   0  0  0  0  0  0  0  0  0  0  0  0
   10.1182   -1.5672   23.1165 C   0  0  0  0  0  0  0  0  0  0  0  0
    1.0552   -9.6360   17.0650 C   0  0  0  0  0  0  0  0  0  0  0  0
    3.6519   -9.1783   16.9039 C   0  0  0  0  0  0  0  0  0  0  0  0
    7.8675   -7.0096   15.9415 C   0  0  0  0  0  0  0  0  0  0  0  0
    5.9733   -9.6553   17.3832 N   0  0  0  0  0  0  0  0  0  0  0  0
   10.2411   -2.9363   23.4301 C   0  0  0  0  0  0  0  0  0  0  0  0
   10.7288   -3.8197   19.9525 C   0  0  0  0  0  0  0  0  0  0  0  0
   10.1189   -5.0054   19.6987 C   0  0  0  0  0  0  0  0  0  0  0  0
  1  3  4  0
  1  7  4  0
  2 21  4  0
  2 27  4  0
  3  9  4  0
  3 10  4  0
  4  8  4  0
  4 18  4  0
  4 25  1  0
  5  9  4  0
  5 12  4  0
  6 13  1  0
  6 27  1  0
  7 28  4  0
  8 11  4  0
  9 29  4  0
 10 12  4  0
 11 24  1  0
 11 26  4  0
 12 25  1  0
 13 28  1  0
 14 20  4  0
 14 23  4  0
 15 17  4  0
 15 21  4  0
 16 19  4  0
 16 23  4  0
 17 22  4  0
 18 26  4  0
 19 24  4  0
 20 24  4  0
 22 27  4  0
 28 29  4  0
M  END
$$$$

 Created by Python create_sdf_string function

 29 33  0  0  0  0  0  0  0  0999 V2000
   10.7215   -3.3326   17.6437 C   0  0  0  0  0  0  0  0  0  0  0  0
    9.9489   -3.4675   24.6487 N   0  0  0  0  0  0  0  0  0  0  0  0
   10.0172   -4.4740   17.4101 C   0  0  0  0  0  0  0  0  0  0  0  0
    6.9051   -7.9575   16.4222 C   0  0  0  0  0  0  0  0  0  0  0  0
    8.9969   -6.3552   17.9668 N   0  0  0  0  0  0  0  0  0  0  0  0
   10.6702   -3.9051   22.4070 C   0  0  0  0  0  0  0  0  0  0  0  0
   11.0625   -3.0028   18.8894 C   0  0  0  0  0  0  0  0  0  0  0  0
    5.6180   -7.9194   16.1754 O   0  0  0  0  0  0  0  0  0  0  0  0
    9.7259   -5.3080   18.4485 C   0  0  0  0  0  0  0  0  0  0  0  0
    9.4578   -5.0200   16.3036 N   0  0  0  0  0  0  0  0  0  0  0  0
    5.0287   -8.9365   16.8223 C   0  0  0  0  0  0  0  0  0  0  0  0
    8.7742   -6.1498   16.6764 C   0  0  0  0  0  0  0  0  0  0  0  0
   10.9418   -3.4032   21.2053 O   0  0  0  0  0  0  0  0  0  0  0  0
    1.4797   -8.6258   16.2950 C   0  0  0  0  0  0  0  0  0  0  0  0
    9.2861   -1.2743   25.3585 C   0  0  0  0  0  0  0  0  0  0  0  0
    1.8892  -10.3985   17.7511 N   0  0  0  0  0  0  0  0  0  0  0  0
    9.6210   -0.6952   24.0976 C   0  0  0  0  0  0  0  0  0  0  0  0
    7.0792   -9.0217   17.1429 C   0  0  0  0  0  0  0  0  0  0  0  0
    3.1713  -10.1816   17.6634 C   0  0  0  0  0  0  0  0  0  0  0  0
    2.7878   -8.3822   16.2137 C   0  0  0  0  0  0  0  0  0  0  0  0
    9.4601   -2.6590   25.6528 C   0  0  0  0  0  0  0  0  0  0  0  0
   10.1182   -1.5672   23.1165 C   0  0  0  0  0  0  0  0  0  0  0  0
    1.0552   -9.6360   17.0650 C   0  0  0  0  0  0  0  0  0  0  0  0
    3.6519   -9.1783   16.9039 C   0  0  0  0  0  0  0  0  0  0  0  0
    7.8675   -7.0096   15.9415 C   0  0  0  0  0  0  0  0  0  0  0  0
    5.9733   -9.6553   17.3832 N   0  0  0  0  0  0  0  0  0  0  0  0
   10.2411   -2.9363   23.4301 C   0  0  0  0  0  0  0  0  0  0  0  0
   10.7288   -3.8197   19.9525 C   0  0  0  0  0  0  0  0  0  0  0  0
   10.1189   -5.0054   19.6987 C   0  0  0  0  0  0  0  0  0  0  0  0
  1  3  4  0
  1  7  4  0
  2 21  4  0
  2 27  4  0
  3  9  4  0
  3 10  4  0
  4  8  4  0
  4 18  4  0
  4 25  1  0
  5  9  4  0
  5 12  4  0
  6 13  1  0
  6 27  1  0
  7 28  4  0
  8 11  4  0
  9 29  4  0
 10 12  4  0
 11 24  1  0
 11 26  4  0
 12 25  1  0
 13 28  1  0
 14 20  4  0
 14 23  4  0
 15 17  4  0
 15 21  4  0
 16 19  4  0
 16 23  4  0
 17 22  4  0
 18 26  4  0
 19 24  4  0
 20 24  4  0
 22 27  4  0
 28 29  4  0
M  END
$$$$

 Created by Python create_sdf_string function

 29 33  0  0  0  0  0  0  0  0999 V2000
   10.7215   -3.3326   17.6437 C   0  0  0  0  0  0  0  0  0  0  0  0
    9.9489   -3.4675   24.6487 N   0  0  0  0  0  0  0  0  0  0  0  0
   10.0172   -4.4740   17.4101 C   0  0  0  0  0  0  0  0  0  0  0  0
    6.9051   -7.9575   16.4222 C   0  0  0  0  0  0  0  0  0  0  0  0
    8.9969   -6.3552   17.9668 N   0  0  0  0  0  0  0  0  0  0  0  0
   10.6702   -3.9051   22.4070 C   0  0  0  0  0  0  0  0  0  0  0  0
   11.0625   -3.0028   18.8894 C   0  0  0  0  0  0  0  0  0  0  0  0
    5.6180   -7.9194   16.1754 O   0  0  0  0  0  0  0  0  0  0  0  0
    9.7259   -5.3080   18.4485 C   0  0  0  0  0  0  0  0  0  0  0  0
    9.4578   -5.0200   16.3036 N   0  0  0  0  0  0  0  0  0  0  0  0
    5.0287   -8.9365   16.8223 C   0  0  0  0  0  0  0  0  0  0  0  0
    8.7742   -6.1498   16.6764 C   0  0  0  0  0  0  0  0  0  0  0  0
   10.9418   -3.4032   21.2053 O   0  0  0  0  0  0  0  0  0  0  0  0
    1.4797   -8.6258   16.2950 C   0  0  0  0  0  0  0  0  0  0  0  0
    9.2861   -1.2743   25.3585 C   0  0  0  0  0  0  0  0  0  0  0  0
    1.8892  -10.3985   17.7511 N   0  0  0  0  0  0  0  0  0  0  0  0
    9.6210   -0.6952   24.0976 C   0  0  0  0  0  0  0  0  0  0  0  0
    7.0792   -9.0217   17.1429 C   0  0  0  0  0  0  0  0  0  0  0  0
    3.1713  -10.1816   17.6634 C   0  0  0  0  0  0  0  0  0  0  0  0
    2.7878   -8.3822   16.2137 C   0  0  0  0  0  0  0  0  0  0  0  0
    9.4601   -2.6590   25.6528 C   0  0  0  0  0  0  0  0  0  0  0  0
   10.1182   -1.5672   23.1165 C   0  0  0  0  0  0  0  0  0  0  0  0
    1.0552   -9.6360   17.0650 C   0  0  0  0  0  0  0  0  0  0  0  0
    3.6519   -9.1783   16.9039 C   0  0  0  0  0  0  0  0  0  0  0  0
    7.8675   -7.0096   15.9415 C   0  0  0  0  0  0  0  0  0  0  0  0
    5.9733   -9.6553   17.3832 N   0  0  0  0  0  0  0  0  0  0  0  0
   10.2411   -2.9363   23.4301 C   0  0  0  0  0  0  0  0  0  0  0  0
   10.7288   -3.8197   19.9525 C   0  0  0  0  0  0  0  0  0  0  0  0
   10.1189   -5.0054   19.6987 C   0  0  0  0  0  0  0  0  0  0  0  0
  1  3  4  0
  1  7  4  0
  2 21  4  0
  2 27  4  0
  3  9  4  0
  3 10  4  0
  4  8  4  0
  4 18  4  0
  4 25  1  0
  5  9  4  0
  5 12  4  0
  6 13  1  0
  6 27  1  0
  7 28  4  0
  8 11  4  0
  9 29  4  0
 10 12  4  0
 11 24  1  0
 11 26  4  0
 12 25  1  0
 13 28  1  0
 14 20  4  0
 14 23  4  0
 15 17  4  0
 15 21  4  0
 16 19  4  0
 16 23  4  0
 17 22  4  0
 18 26  4  0
 19 24  4  0
 20 24  4  0
 22 27  4  0
 28 29  4  0
M  END
$$$$

 Created by Python create_sdf_string function

 29 33  0  0  0  0  0  0  0  0999 V2000
   10.7215   -3.3326   17.6437 C   0  0  0  0  0  0  0  0  0  0  0  0
    9.9489   -3.4675   24.6487 N   0  0  0  0  0  0  0  0  0  0  0  0
   10.0172   -4.4740   17.4101 C   0  0  0  0  0  0  0  0  0  0  0  0
    6.9051   -7.9575   16.4222 C   0  0  0  0  0  0  0  0  0  0  0  0
    8.9969   -6.3552   17.9668 N   0  0  0  0  0  0  0  0  0  0  0  0
   10.6702   -3.9051   22.4070 C   0  0  0  0  0  0  0  0  0  0  0  0
   11.0625   -3.0028   18.8894 C   0  0  0  0  0  0  0  0  0  0  0  0
    5.6180   -7.9194   16.1754 O   0  0  0  0  0  0  0  0  0  0  0  0
    9.7259   -5.3080   18.4485 C   0  0  0  0  0  0  0  0  0  0  0  0
    9.4578   -5.0200   16.3036 N   0  0  0  0  0  0  0  0  0  0  0  0
    5.0287   -8.9365   16.8223 C   0  0  0  0  0  0  0  0  0  0  0  0
    8.7742   -6.1498   16.6764 C   0  0  0  0  0  0  0  0  0  0  0  0
   10.9418   -3.4032   21.2053 O   0  0  0  0  0  0  0  0  0  0  0  0
    1.4797   -8.6258   16.2950 C   0  0  0  0  0  0  0  0  0  0  0  0
    9.2861   -1.2743   25.3585 C   0  0  0  0  0  0  0  0  0  0  0  0
    1.8892  -10.3985   17.7511 N   0  0  0  0  0  0  0  0  0  0  0  0
    9.6210   -0.6952   24.0976 C   0  0  0  0  0  0  0  0  0  0  0  0
    7.0792   -9.0217   17.1429 C   0  0  0  0  0  0  0  0  0  0  0  0
    3.1713  -10.1816   17.6634 C   0  0  0  0  0  0  0  0  0  0  0  0
    2.7878   -8.3822   16.2137 C   0  0  0  0  0  0  0  0  0  0  0  0
    9.4601   -2.6590   25.6528 C   0  0  0  0  0  0  0  0  0  0  0  0
   10.1182   -1.5672   23.1165 C   0  0  0  0  0  0  0  0  0  0  0  0
    1.0552   -9.6360   17.0650 C   0  0  0  0  0  0  0  0  0  0  0  0
    3.6519   -9.1783   16.9039 C   0  0  0  0  0  0  0  0  0  0  0  0
    7.8675   -7.0096   15.9415 C   0  0  0  0  0  0  0  0  0  0  0  0
    5.9733   -9.6553   17.3832 N   0  0  0  0  0  0  0  0  0  0  0  0
   10.2411   -2.9363   23.4301 C   0  0  0  0  0  0  0  0  0  0  0  0
   10.7288   -3.8197   19.9525 C   0  0  0  0  0  0  0  0  0  0  0  0
   10.1189   -5.0054   19.6987 C   0  0  0  0  0  0  0  0  0  0  0  0
  1  3  4  0
  1  7  4  0
  2 21  4  0
  2 27  4  0
  3  9  4  0
  3 10  4  0
  4  8  4  0
  4 18  4  0
  4 25  1  0
  5  9  4  0
  5 12  4  0
  6 13  1  0
  6 27  1  0
  7 28  4  0
  8 11  4  0
  9 29  4  0
 10 12  4  0
 11 24  1  0
 11 26  4  0
 12 25  1  0
 13 28  1  0
 14 20  4  0
 14 23  4  0
 15 17  4  0
 15 21  4  0
 16 19  4  0
 16 23  4  0
 17 22  4  0
 18 26  4  0
 19 24  4  0
 20 24  4  0
 22 27  4  0
 28 29  4  0
M  END
$$$$

 Created by Python create_sdf_string function

 29 33  0  0  0  0  0  0  0  0999 V2000
   10.7215   -3.3326   17.6437 C   0  0  0  0  0  0  0  0  0  0  0  0
    9.9489   -3.4675   24.6487 N   0  0  0  0  0  0  0  0  0  0  0  0
   10.0172   -4.4740   17.4101 C   0  0  0  0  0  0  0  0  0  0  0  0
    6.9051   -7.9575   16.4222 C   0  0  0  0  0  0  0  0  0  0  0  0
    8.9969   -6.3552   17.9668 N   0  0  0  0  0  0  0  0  0  0  0  0
   10.6702   -3.9051   22.4070 C   0  0  0  0  0  0  0  0  0  0  0  0
   11.0625   -3.0028   18.8894 C   0  0  0  0  0  0  0  0  0  0  0  0
    5.6180   -7.9194   16.1754 O   0  0  0  0  0  0  0  0  0  0  0  0
    9.7259   -5.3080   18.4485 C   0  0  0  0  0  0  0  0  0  0  0  0
    9.4578   -5.0200   16.3036 N   0  0  0  0  0  0  0  0  0  0  0  0
    5.0287   -8.9365   16.8223 C   0  0  0  0  0  0  0  0  0  0  0  0
    8.7742   -6.1498   16.6764 C   0  0  0  0  0  0  0  0  0  0  0  0
   10.9418   -3.4032   21.2053 O   0  0  0  0  0  0  0  0  0  0  0  0
    1.4797   -8.6258   16.2950 C   0  0  0  0  0  0  0  0  0  0  0  0
    9.2861   -1.2743   25.3585 C   0  0  0  0  0  0  0  0  0  0  0  0
    1.8892  -10.3985   17.7511 N   0  0  0  0  0  0  0  0  0  0  0  0
    9.6210   -0.6952   24.0976 C   0  0  0  0  0  0  0  0  0  0  0  0
    7.0792   -9.0217   17.1429 C   0  0  0  0  0  0  0  0  0  0  0  0
    3.1713  -10.1816   17.6634 C   0  0  0  0  0  0  0  0  0  0  0  0
    2.7878   -8.3822   16.2137 C   0  0  0  0  0  0  0  0  0  0  0  0
    9.4601   -2.6590   25.6528 C   0  0  0  0  0  0  0  0  0  0  0  0
   10.1182   -1.5672   23.1165 C   0  0  0  0  0  0  0  0  0  0  0  0
    1.0552   -9.6360   17.0650 C   0  0  0  0  0  0  0  0  0  0  0  0
    3.6519   -9.1783   16.9039 C   0  0  0  0  0  0  0  0  0  0  0  0
    7.8675   -7.0096   15.9415 C   0  0  0  0  0  0  0  0  0  0  0  0
    5.9733   -9.6553   17.3832 N   0  0  0  0  0  0  0  0  0  0  0  0
   10.2411   -2.9363   23.4301 C   0  0  0  0  0  0  0  0  0  0  0  0
   10.7288   -3.8197   19.9525 C   0  0  0  0  0  0  0  0  0  0  0  0
   10.1189   -5.0054   19.6987 C   0  0  0  0  0  0  0  0  0  0  0  0
  1  3  4  0
  1  7  4  0
  2 21  4  0
  2 27  4  0
  3  9  4  0
  3 10  4  0
  4  8  4  0
  4 18  4  0
  4 25  1  0
  5  9  4  0
  5 12  4  0
  6 13  1  0
  6 27  1  0
  7 28  4  0
  8 11  4  0
  9 29  4  0
 10 12  4  0
 11 24  1  0
 11 26  4  0
 12 25  1  0
 13 28  1  0
 14 20  4  0
 14 23  4  0
 15 17  4  0
 15 21  4  0
 16 19  4  0
 16 23  4  0
 17 22  4  0
 18 26  4  0
 19 24  4  0
 20 24  4  0
 22 27  4  0
 28 29  4  0
M  END
$$$$

 Created by Python create_sdf_string function

 29 33  0  0  0  0  0  0  0  0999 V2000
   10.7215   -3.3326   17.6437 C   0  0  0  0  0  0  0  0  0  0  0  0
    9.9489   -3.4675   24.6487 N   0  0  0  0  0  0  0  0  0  0  0  0
   10.0172   -4.4740   17.4101 C   0  0  0  0  0  0  0  0  0  0  0  0
    6.9051   -7.9575   16.4222 C   0  0  0  0  0  0  0  0  0  0  0  0
    8.9969   -6.3552   17.9668 N   0  0  0  0  0  0  0  0  0  0  0  0
   10.6702   -3.9051   22.4070 C   0  0  0  0  0  0  0  0  0  0  0  0
   11.0625   -3.0028   18.8894 C   0  0  0  0  0  0  0  0  0  0  0  0
    5.6180   -7.9194   16.1754 O   0  0  0  0  0  0  0  0  0  0  0  0
    9.7259   -5.3080   18.4485 C   0  0  0  0  0  0  0  0  0  0  0  0
    9.4578   -5.0200   16.3036 N   0  0  0  0  0  0  0  0  0  0  0  0
    5.0287   -8.9365   16.8223 C   0  0  0  0  0  0  0  0  0  0  0  0
    8.7742   -6.1498   16.6764 C   0  0  0  0  0  0  0  0  0  0  0  0
   10.9418   -3.4032   21.2053 O   0  0  0  0  0  0  0  0  0  0  0  0
    1.4797   -8.6258   16.2950 C   0  0  0  0  0  0  0  0  0  0  0  0
    9.2861   -1.2743   25.3585 C   0  0  0  0  0  0  0  0  0  0  0  0
    1.8892  -10.3985   17.7511 N   0  0  0  0  0  0  0  0  0  0  0  0
    9.6210   -0.6952   24.0976 C   0  0  0  0  0  0  0  0  0  0  0  0
    7.0792   -9.0217   17.1429 C   0  0  0  0  0  0  0  0  0  0  0  0
    3.1713  -10.1816   17.6634 C   0  0  0  0  0  0  0  0  0  0  0  0
    2.7878   -8.3822   16.2137 C   0  0  0  0  0  0  0  0  0  0  0  0
    9.4601   -2.6590   25.6528 C   0  0  0  0  0  0  0  0  0  0  0  0
   10.1182   -1.5672   23.1165 C   0  0  0  0  0  0  0  0  0  0  0  0
    1.0552   -9.6360   17.0650 C   0  0  0  0  0  0  0  0  0  0  0  0
    3.6519   -9.1783   16.9039 C   0  0  0  0  0  0  0  0  0  0  0  0
    7.8675   -7.0096   15.9415 C   0  0  0  0  0  0  0  0  0  0  0  0
    5.9733   -9.6553   17.3832 N   0  0  0  0  0  0  0  0  0  0  0  0
   10.2411   -2.9363   23.4301 C   0  0  0  0  0  0  0  0  0  0  0  0
   10.7288   -3.8197   19.9525 C   0  0  0  0  0  0  0  0  0  0  0  0
   10.1189   -5.0054   19.6987 C   0  0  0  0  0  0  0  0  0  0  0  0
  1  3  4  0
  1  7  4  0
  2 21  4  0
  2 27  4  0
  3  9  4  0
  3 10  4  0
  4  8  4  0
  4 18  4  0
  4 25  1  0
  5  9  4  0
  5 12  4  0
  6 13  1  0
  6 27  1  0
  7 28  4  0
  8 11  4  0
  9 29  4  0
 10 12  4  0
 11 24  1  0
 11 26  4  0
 12 25  1  0
 13 28  1  0
 14 20  4  0
 14 23  4  0
 15 17  4  0
 15 21  4  0
 16 19  4  0
 16 23  4  0
 17 22  4  0
 18 26  4  0
 19 24  4  0
 20 24  4  0
 22 27  4  0
 28 29  4  0
M  END
$$$$

 Created by Python create_sdf_string function

 29 33  0  0  0  0  0  0  0  0999 V2000
   10.7215   -3.3326   17.6437 C   0  0  0  0  0  0  0  0  0  0  0  0
    9.9489   -3.4675   24.6487 N   0  0  0  0  0  0  0  0  0  0  0  0
   10.0172   -4.4740   17.4101 C   0  0  0  0  0  0  0  0  0  0  0  0
    6.9051   -7.9575   16.4222 C   0  0  0  0  0  0  0  0  0  0  0  0
    8.9969   -6.3552   17.9668 N   0  0  0  0  0  0  0  0  0  0  0  0
   10.6702   -3.9051   22.4070 C   0  0  0  0  0  0  0  0  0  0  0  0
   11.0625   -3.0028   18.8894 C   0  0  0  0  0  0  0  0  0  0  0  0
    5.6180   -7.9194   16.1754 O   0  0  0  0  0  0  0  0  0  0  0  0
    9.7259   -5.3080   18.4485 C   0  0  0  0  0  0  0  0  0  0  0  0
    9.4578   -5.0200   16.3036 N   0  0  0  0  0  0  0  0  0  0  0  0
    5.0287   -8.9365   16.8223 C   0  0  0  0  0  0  0  0  0  0  0  0
    8.7742   -6.1498   16.6764 C   0  0  0  0  0  0  0  0  0  0  0  0
   10.9418   -3.4032   21.2053 O   0  0  0  0  0  0  0  0  0  0  0  0
    1.4797   -8.6258   16.2950 C   0  0  0  0  0  0  0  0  0  0  0  0
    9.2861   -1.2743   25.3585 C   0  0  0  0  0  0  0  0  0  0  0  0
    1.8892  -10.3985   17.7511 N   0  0  0  0  0  0  0  0  0  0  0  0
    9.6210   -0.6952   24.0976 C   0  0  0  0  0  0  0  0  0  0  0  0
    7.0792   -9.0217   17.1429 C   0  0  0  0  0  0  0  0  0  0  0  0
    3.1713  -10.1816   17.6634 C   0  0  0  0  0  0  0  0  0  0  0  0
    2.7878   -8.3822   16.2137 C   0  0  0  0  0  0  0  0  0  0  0  0
    9.4601   -2.6590   25.6528 C   0  0  0  0  0  0  0  0  0  0  0  0
   10.1182   -1.5672   23.1165 C   0  0  0  0  0  0  0  0  0  0  0  0
    1.0552   -9.6360   17.0650 C   0  0  0  0  0  0  0  0  0  0  0  0
    3.6519   -9.1783   16.9039 C   0  0  0  0  0  0  0  0  0  0  0  0
    7.8675   -7.0096   15.9415 C   0  0  0  0  0  0  0  0  0  0  0  0
    5.9733   -9.6553   17.3832 N   0  0  0  0  0  0  0  0  0  0  0  0
   10.2411   -2.9363   23.4301 C   0  0  0  0  0  0  0  0  0  0  0  0
   10.7288   -3.8197   19.9525 C   0  0  0  0  0  0  0  0  0  0  0  0
   10.1189   -5.0054   19.6987 C   0  0  0  0  0  0  0  0  0  0  0  0
  1  3  4  0
  1  7  4  0
  2 21  4  0
  2 27  4  0
  3  9  4  0
  3 10  4  0
  4  8  4  0
  4 18  4  0
  4 25  1  0
  5  9  4  0
  5 12  4  0
  6 13  1  0
  6 27  1  0
  7 28  4  0
  8 11  4  0
  9 29  4  0
 10 12  4  0
 11 24  1  0
 11 26  4  0
 12 25  1  0
 13 28  1  0
 14 20  4  0
 14 23  4  0
 15 17  4  0
 15 21  4  0
 16 19  4  0
 16 23  4  0
 17 22  4  0
 18 26  4  0
 19 24  4  0
 20 24  4  0
 22 27  4  0
 28 29  4  0
M  END
$$$$

 Created by Python create_sdf_string function

 29 33  0  0  0  0  0  0  0  0999 V2000
   10.7215   -3.3326   17.6437 C   0  0  0  0  0  0  0  0  0  0  0  0
    9.9489   -3.4675   24.6487 N   0  0  0  0  0  0  0  0  0  0  0  0
   10.0172   -4.4740   17.4101 C   0  0  0  0  0  0  0  0  0  0  0  0
    6.9051   -7.9575   16.4222 C   0  0  0  0  0  0  0  0  0  0  0  0
    8.9969   -6.3552   17.9668 N   0  0  0  0  0  0  0  0  0  0  0  0
   10.6702   -3.9051   22.4070 C   0  0  0  0  0  0  0  0  0  0  0  0
   11.0625   -3.0028   18.8894 C   0  0  0  0  0  0  0  0  0  0  0  0
    5.6180   -7.9194   16.1754 O   0  0  0  0  0  0  0  0  0  0  0  0
    9.7259   -5.3080   18.4485 C   0  0  0  0  0  0  0  0  0  0  0  0
    9.4578   -5.0200   16.3036 N   0  0  0  0  0  0  0  0  0  0  0  0
    5.0287   -8.9365   16.8223 C   0  0  0  0  0  0  0  0  0  0  0  0
    8.7742   -6.1498   16.6764 C   0  0  0  0  0  0  0  0  0  0  0  0
   10.9418   -3.4032   21.2053 O   0  0  0  0  0  0  0  0  0  0  0  0
    1.4797   -8.6258   16.2950 C   0  0  0  0  0  0  0  0  0  0  0  0
    9.2861   -1.2743   25.3585 C   0  0  0  0  0  0  0  0  0  0  0  0
    1.8892  -10.3985   17.7511 N   0  0  0  0  0  0  0  0  0  0  0  0
    9.6210   -0.6952   24.0976 C   0  0  0  0  0  0  0  0  0  0  0  0
    7.0792   -9.0217   17.1429 C   0  0  0  0  0  0  0  0  0  0  0  0
    3.1713  -10.1816   17.6634 C   0  0  0  0  0  0  0  0  0  0  0  0
    2.7878   -8.3822   16.2137 C   0  0  0  0  0  0  0  0  0  0  0  0
    9.4601   -2.6590   25.6528 C   0  0  0  0  0  0  0  0  0  0  0  0
   10.1182   -1.5672   23.1165 C   0  0  0  0  0  0  0  0  0  0  0  0
    1.0552   -9.6360   17.0650 C   0  0  0  0  0  0  0  0  0  0  0  0
    3.6519   -9.1783   16.9039 C   0  0  0  0  0  0  0  0  0  0  0  0
    7.8675   -7.0096   15.9415 C   0  0  0  0  0  0  0  0  0  0  0  0
    5.9733   -9.6553   17.3832 N   0  0  0  0  0  0  0  0  0  0  0  0
   10.2411   -2.9363   23.4301 C   0  0  0  0  0  0  0  0  0  0  0  0
   10.7288   -3.8197   19.9525 C   0  0  0  0  0  0  0  0  0  0  0  0
   10.1189   -5.0054   19.6987 C   0  0  0  0  0  0  0  0  0  0  0  0
  1  3  4  0
  1  7  4  0
  2 21  4  0
  2 27  4  0
  3  9  4  0
  3 10  4  0
  4  8  4  0
  4 18  4  0
  4 25  1  0
  5  9  4  0
  5 12  4  0
  6 13  1  0
  6 27  1  0
  7 28  4  0
  8 11  4  0
  9 29  4  0
 10 12  4  0
 11 24  1  0
 11 26  4  0
 12 25  1  0
 13 28  1  0
 14 20  4  0
 14 23  4  0
 15 17  4  0
 15 21  4  0
 16 19  4  0
 16 23  4  0
 17 22  4  0
 18 26  4  0
 19 24  4  0
 20 24  4  0
 22 27  4  0
 28 29  4  0
M  END
$$$$

 Created by Python create_sdf_string function

 29 33  0  0  0  0  0  0  0  0999 V2000
   10.7215   -3.3326   17.6437 C   0  0  0  0  0  0  0  0  0  0  0  0
    9.9489   -3.4675   24.6487 N   0  0  0  0  0  0  0  0  0  0  0  0
   10.0172   -4.4740   17.4101 C   0  0  0  0  0  0  0  0  0  0  0  0
    6.9051   -7.9575   16.4222 C   0  0  0  0  0  0  0  0  0  0  0  0
    8.9969   -6.3552   17.9668 N   0  0  0  0  0  0  0  0  0  0  0  0
   10.6702   -3.9051   22.4070 C   0  0  0  0  0  0  0  0  0  0  0  0
   11.0625   -3.0028   18.8894 C   0  0  0  0  0  0  0  0  0  0  0  0
    5.6180   -7.9194   16.1754 O   0  0  0  0  0  0  0  0  0  0  0  0
    9.7259   -5.3080   18.4485 C   0  0  0  0  0  0  0  0  0  0  0  0
    9.4578   -5.0200   16.3036 N   0  0  0  0  0  0  0  0  0  0  0  0
    5.0287   -8.9365   16.8223 C   0  0  0  0  0  0  0  0  0  0  0  0
    8.7742   -6.1498   16.6764 C   0  0  0  0  0  0  0  0  0  0  0  0
   10.9418   -3.4032   21.2053 O   0  0  0  0  0  0  0  0  0  0  0  0
    1.4797   -8.6258   16.2950 C   0  0  0  0  0  0  0  0  0  0  0  0
    9.2861   -1.2743   25.3585 C   0  0  0  0  0  0  0  0  0  0  0  0
    1.8892  -10.3985   17.7511 N   0  0  0  0  0  0  0  0  0  0  0  0
    9.6210   -0.6952   24.0976 C   0  0  0  0  0  0  0  0  0  0  0  0
    7.0792   -9.0217   17.1429 C   0  0  0  0  0  0  0  0  0  0  0  0
    3.1713  -10.1816   17.6634 C   0  0  0  0  0  0  0  0  0  0  0  0
    2.7878   -8.3822   16.2137 C   0  0  0  0  0  0  0  0  0  0  0  0
    9.4601   -2.6590   25.6528 C   0  0  0  0  0  0  0  0  0  0  0  0
   10.1182   -1.5672   23.1165 C   0  0  0  0  0  0  0  0  0  0  0  0
    1.0552   -9.6360   17.0650 C   0  0  0  0  0  0  0  0  0  0  0  0
    3.6519   -9.1783   16.9039 C   0  0  0  0  0  0  0  0  0  0  0  0
    7.8675   -7.0096   15.9415 C   0  0  0  0  0  0  0  0  0  0  0  0
    5.9733   -9.6553   17.3832 N   0  0  0  0  0  0  0  0  0  0  0  0
   10.2411   -2.9363   23.4301 C   0  0  0  0  0  0  0  0  0  0  0  0
   10.7288   -3.8197   19.9525 C   0  0  0  0  0  0  0  0  0  0  0  0
   10.1189   -5.0054   19.6987 C   0  0  0  0  0  0  0  0  0  0  0  0
  1  3  4  0
  1  7  4  0
  2 21  4  0
  2 27  4  0
  3  9  4  0
  3 10  4  0
  4  8  4  0
  4 18  4  0
  4 25  1  0
  5  9  4  0
  5 12  4  0
  6 13  1  0
  6 27  1  0
  7 28  4  0
  8 11  4  0
  9 29  4  0
 10 12  4  0
 11 24  1  0
 11 26  4  0
 12 25  1  0
 13 28  1  0
 14 20  4  0
 14 23  4  0
 15 17  4  0
 15 21  4  0
 16 19  4  0
 16 23  4  0
 17 22  4  0
 18 26  4  0
 19 24  4  0
 20 24  4  0
 22 27  4  0
 28 29  4  0
M  END
$$$$

 Created by Python create_sdf_string function

 29 33  0  0  0  0  0  0  0  0999 V2000
   10.7215   -3.3326   17.6437 C   0  0  0  0  0  0  0  0  0  0  0  0
    9.9489   -3.4675   24.6487 N   0  0  0  0  0  0  0  0  0  0  0  0
   10.0172   -4.4740   17.4101 C   0  0  0  0  0  0  0  0  0  0  0  0
    6.9051   -7.9575   16.4222 C   0  0  0  0  0  0  0  0  0  0  0  0
    8.9969   -6.3552   17.9668 N   0  0  0  0  0  0  0  0  0  0  0  0
   10.6702   -3.9051   22.4070 C   0  0  0  0  0  0  0  0  0  0  0  0
   11.0625   -3.0028   18.8894 C   0  0  0  0  0  0  0  0  0  0  0  0
    5.6180   -7.9194   16.1754 O   0  0  0  0  0  0  0  0  0  0  0  0
    9.7259   -5.3080   18.4485 C   0  0  0  0  0  0  0  0  0  0  0  0
    9.4578   -5.0200   16.3036 N   0  0  0  0  0  0  0  0  0  0  0  0
    5.0287   -8.9365   16.8223 C   0  0  0  0  0  0  0  0  0  0  0  0
    8.7742   -6.1498   16.6764 C   0  0  0  0  0  0  0  0  0  0  0  0
   10.9418   -3.4032   21.2053 O   0  0  0  0  0  0  0  0  0  0  0  0
    1.4797   -8.6258   16.2950 C   0  0  0  0  0  0  0  0  0  0  0  0
    9.2861   -1.2743   25.3585 C   0  0  0  0  0  0  0  0  0  0  0  0
    1.8892  -10.3985   17.7511 N   0  0  0  0  0  0  0  0  0  0  0  0
    9.6210   -0.6952   24.0976 C   0  0  0  0  0  0  0  0  0  0  0  0
    7.0792   -9.0217   17.1429 C   0  0  0  0  0  0  0  0  0  0  0  0
    3.1713  -10.1816   17.6634 C   0  0  0  0  0  0  0  0  0  0  0  0
    2.7878   -8.3822   16.2137 C   0  0  0  0  0  0  0  0  0  0  0  0
    9.4601   -2.6590   25.6528 C   0  0  0  0  0  0  0  0  0  0  0  0
   10.1182   -1.5672   23.1165 C   0  0  0  0  0  0  0  0  0  0  0  0
    1.0552   -9.6360   17.0650 C   0  0  0  0  0  0  0  0  0  0  0  0
    3.6519   -9.1783   16.9039 C   0  0  0  0  0  0  0  0  0  0  0  0
    7.8675   -7.0096   15.9415 C   0  0  0  0  0  0  0  0  0  0  0  0
    5.9733   -9.6553   17.3832 N   0  0  0  0  0  0  0  0  0  0  0  0
   10.2411   -2.9363   23.4301 C   0  0  0  0  0  0  0  0  0  0  0  0
   10.7288   -3.8197   19.9525 C   0  0  0  0  0  0  0  0  0  0  0  0
   10.1189   -5.0054   19.6987 C   0  0  0  0  0  0  0  0  0  0  0  0
  1  3  4  0
  1  7  4  0
  2 21  4  0
  2 27  4  0
  3  9  4  0
  3 10  4  0
  4  8  4  0
  4 18  4  0
  4 25  1  0
  5  9  4  0
  5 12  4  0
  6 13  1  0
  6 27  1  0
  7 28  4  0
  8 11  4  0
  9 29  4  0
 10 12  4  0
 11 24  1  0
 11 26  4  0
 12 25  1  0
 13 28  1  0
 14 20  4  0
 14 23  4  0
 15 17  4  0
 15 21  4  0
 16 19  4  0
 16 23  4  0
 17 22  4  0
 18 26  4  0
 19 24  4  0
 20 24  4  0
 22 27  4  0
 28 29  4  0
M  END
$$$$

 Created by Python create_sdf_string function

 29 33  0  0  0  0  0  0  0  0999 V2000
   10.7215   -3.3326   17.6437 C   0  0  0  0  0  0  0  0  0  0  0  0
    9.9489   -3.4675   24.6487 N   0  0  0  0  0  0  0  0  0  0  0  0
   10.0172   -4.4740   17.4101 C   0  0  0  0  0  0  0  0  0  0  0  0
    6.9051   -7.9575   16.4222 C   0  0  0  0  0  0  0  0  0  0  0  0
    8.9969   -6.3552   17.9668 N   0  0  0  0  0  0  0  0  0  0  0  0
   10.6702   -3.9051   22.4070 C   0  0  0  0  0  0  0  0  0  0  0  0
   11.0625   -3.0028   18.8894 C   0  0  0  0  0  0  0  0  0  0  0  0
    5.6180   -7.9194   16.1754 O   0  0  0  0  0  0  0  0  0  0  0  0
    9.7259   -5.3080   18.4485 C   0  0  0  0  0  0  0  0  0  0  0  0
    9.4578   -5.0200   16.3036 N   0  0  0  0  0  0  0  0  0  0  0  0
    5.0287   -8.9365   16.8223 C   0  0  0  0  0  0  0  0  0  0  0  0
    8.7742   -6.1498   16.6764 C   0  0  0  0  0  0  0  0  0  0  0  0
   10.9418   -3.4032   21.2053 O   0  0  0  0  0  0  0  0  0  0  0  0
    1.4797   -8.6258   16.2950 C   0  0  0  0  0  0  0  0  0  0  0  0
    9.2861   -1.2743   25.3585 C   0  0  0  0  0  0  0  0  0  0  0  0
    1.8892  -10.3985   17.7511 N   0  0  0  0  0  0  0  0  0  0  0  0
    9.6210   -0.6952   24.0976 C   0  0  0  0  0  0  0  0  0  0  0  0
    7.0792   -9.0217   17.1429 C   0  0  0  0  0  0  0  0  0  0  0  0
    3.1713  -10.1816   17.6634 C   0  0  0  0  0  0  0  0  0  0  0  0
    2.7878   -8.3822   16.2137 C   0  0  0  0  0  0  0  0  0  0  0  0
    9.4601   -2.6590   25.6528 C   0  0  0  0  0  0  0  0  0  0  0  0
   10.1182   -1.5672   23.1165 C   0  0  0  0  0  0  0  0  0  0  0  0
    1.0552   -9.6360   17.0650 C   0  0  0  0  0  0  0  0  0  0  0  0
    3.6519   -9.1783   16.9039 C   0  0  0  0  0  0  0  0  0  0  0  0
    7.8675   -7.0096   15.9415 C   0  0  0  0  0  0  0  0  0  0  0  0
    5.9733   -9.6553   17.3832 N   0  0  0  0  0  0  0  0  0  0  0  0
   10.2411   -2.9363   23.4301 C   0  0  0  0  0  0  0  0  0  0  0  0
   10.7288   -3.8197   19.9525 C   0  0  0  0  0  0  0  0  0  0  0  0
   10.1189   -5.0054   19.6987 C   0  0  0  0  0  0  0  0  0  0  0  0
  1  3  4  0
  1  7  4  0
  2 21  4  0
  2 27  4  0
  3  9  4  0
  3 10  4  0
  4  8  4  0
  4 18  4  0
  4 25  1  0
  5  9  4  0
  5 12  4  0
  6 13  1  0
  6 27  1  0
  7 28  4  0
  8 11  4  0
  9 29  4  0
 10 12  4  0
 11 24  1  0
 11 26  4  0
 12 25  1  0
 13 28  1  0
 14 20  4  0
 14 23  4  0
 15 17  4  0
 15 21  4  0
 16 19  4  0
 16 23  4  0
 17 22  4  0
 18 26  4  0
 19 24  4  0
 20 24  4  0
 22 27  4  0
 28 29  4  0
M  END
$$$$

 Created by Python create_sdf_string function

 29 33  0  0  0  0  0  0  0  0999 V2000
   10.7215   -3.3326   17.6437 C   0  0  0  0  0  0  0  0  0  0  0  0
    9.9489   -3.4675   24.6487 N   0  0  0  0  0  0  0  0  0  0  0  0
   10.0172   -4.4740   17.4101 C   0  0  0  0  0  0  0  0  0  0  0  0
    6.9051   -7.9575   16.4222 C   0  0  0  0  0  0  0  0  0  0  0  0
    8.9969   -6.3552   17.9668 N   0  0  0  0  0  0  0  0  0  0  0  0
   10.6702   -3.9051   22.4070 C   0  0  0  0  0  0  0  0  0  0  0  0
   11.0625   -3.0028   18.8894 C   0  0  0  0  0  0  0  0  0  0  0  0
    5.6180   -7.9194   16.1754 O   0  0  0  0  0  0  0  0  0  0  0  0
    9.7259   -5.3080   18.4485 C   0  0  0  0  0  0  0  0  0  0  0  0
    9.4578   -5.0200   16.3036 N   0  0  0  0  0  0  0  0  0  0  0  0
    5.0287   -8.9365   16.8223 C   0  0  0  0  0  0  0  0  0  0  0  0
    8.7742   -6.1498   16.6764 C   0  0  0  0  0  0  0  0  0  0  0  0
   10.9418   -3.4032   21.2053 O   0  0  0  0  0  0  0  0  0  0  0  0
    1.4797   -8.6258   16.2950 C   0  0  0  0  0  0  0  0  0  0  0  0
    9.2861   -1.2743   25.3585 C   0  0  0  0  0  0  0  0  0  0  0  0
    1.8892  -10.3985   17.7511 N   0  0  0  0  0  0  0  0  0  0  0  0
    9.6210   -0.6952   24.0976 C   0  0  0  0  0  0  0  0  0  0  0  0
    7.0792   -9.0217   17.1429 C   0  0  0  0  0  0  0  0  0  0  0  0
    3.1713  -10.1816   17.6634 C   0  0  0  0  0  0  0  0  0  0  0  0
    2.7878   -8.3822   16.2137 C   0  0  0  0  0  0  0  0  0  0  0  0
    9.4601   -2.6590   25.6528 C   0  0  0  0  0  0  0  0  0  0  0  0
   10.1182   -1.5672   23.1165 C   0  0  0  0  0  0  0  0  0  0  0  0
    1.0552   -9.6360   17.0650 C   0  0  0  0  0  0  0  0  0  0  0  0
    3.6519   -9.1783   16.9039 C   0  0  0  0  0  0  0  0  0  0  0  0
    7.8675   -7.0096   15.9415 C   0  0  0  0  0  0  0  0  0  0  0  0
    5.9733   -9.6553   17.3832 N   0  0  0  0  0  0  0  0  0  0  0  0
   10.2411   -2.9363   23.4301 C   0  0  0  0  0  0  0  0  0  0  0  0
   10.7288   -3.8197   19.9525 C   0  0  0  0  0  0  0  0  0  0  0  0
   10.1189   -5.0054   19.6987 C   0  0  0  0  0  0  0  0  0  0  0  0
  1  3  4  0
  1  7  4  0
  2 21  4  0
  2 27  4  0
  3  9  4  0
  3 10  4  0
  4  8  4  0
  4 18  4  0
  4 25  1  0
  5  9  4  0
  5 12  4  0
  6 13  1  0
  6 27  1  0
  7 28  4  0
  8 11  4  0
  9 29  4  0
 10 12  4  0
 11 24  1  0
 11 26  4  0
 12 25  1  0
 13 28  1  0
 14 20  4  0
 14 23  4  0
 15 17  4  0
 15 21  4  0
 16 19  4  0
 16 23  4  0
 17 22  4  0
 18 26  4  0
 19 24  4  0
 20 24  4  0
 22 27  4  0
 28 29  4  0
M  END
$$$$

 Created by Python create_sdf_string function

 29 33  0  0  0  0  0  0  0  0999 V2000
   10.7215   -3.3326   17.6437 C   0  0  0  0  0  0  0  0  0  0  0  0
    9.9489   -3.4675   24.6487 N   0  0  0  0  0  0  0  0  0  0  0  0
   10.0172   -4.4740   17.4101 C   0  0  0  0  0  0  0  0  0  0  0  0
    6.9051   -7.9575   16.4222 C   0  0  0  0  0  0  0  0  0  0  0  0
    8.9969   -6.3552   17.9668 N   0  0  0  0  0  0  0  0  0  0  0  0
   10.6702   -3.9051   22.4070 C   0  0  0  0  0  0  0  0  0  0  0  0
   11.0625   -3.0028   18.8894 C   0  0  0  0  0  0  0  0  0  0  0  0
    5.6180   -7.9194   16.1754 O   0  0  0  0  0  0  0  0  0  0  0  0
    9.7259   -5.3080   18.4485 C   0  0  0  0  0  0  0  0  0  0  0  0
    9.4578   -5.0200   16.3036 N   0  0  0  0  0  0  0  0  0  0  0  0
    5.0287   -8.9365   16.8223 C   0  0  0  0  0  0  0  0  0  0  0  0
    8.7742   -6.1498   16.6764 C   0  0  0  0  0  0  0  0  0  0  0  0
   10.9418   -3.4032   21.2053 O   0  0  0  0  0  0  0  0  0  0  0  0
    1.4797   -8.6258   16.2950 C   0  0  0  0  0  0  0  0  0  0  0  0
    9.2861   -1.2743   25.3585 C   0  0  0  0  0  0  0  0  0  0  0  0
    1.8892  -10.3985   17.7511 N   0  0  0  0  0  0  0  0  0  0  0  0
    9.6210   -0.6952   24.0976 C   0  0  0  0  0  0  0  0  0  0  0  0
    7.0792   -9.0217   17.1429 C   0  0  0  0  0  0  0  0  0  0  0  0
    3.1713  -10.1816   17.6634 C   0  0  0  0  0  0  0  0  0  0  0  0
    2.7878   -8.3822   16.2137 C   0  0  0  0  0  0  0  0  0  0  0  0
    9.4601   -2.6590   25.6528 C   0  0  0  0  0  0  0  0  0  0  0  0
   10.1182   -1.5672   23.1165 C   0  0  0  0  0  0  0  0  0  0  0  0
    1.0552   -9.6360   17.0650 C   0  0  0  0  0  0  0  0  0  0  0  0
    3.6519   -9.1783   16.9039 C   0  0  0  0  0  0  0  0  0  0  0  0
    7.8675   -7.0096   15.9415 C   0  0  0  0  0  0  0  0  0  0  0  0
    5.9733   -9.6553   17.3832 N   0  0  0  0  0  0  0  0  0  0  0  0
   10.2411   -2.9363   23.4301 C   0  0  0  0  0  0  0  0  0  0  0  0
   10.7288   -3.8197   19.9525 C   0  0  0  0  0  0  0  0  0  0  0  0
   10.1189   -5.0054   19.6987 C   0  0  0  0  0  0  0  0  0  0  0  0
  1  3  4  0
  1  7  4  0
  2 21  4  0
  2 27  4  0
  3  9  4  0
  3 10  4  0
  4  8  4  0
  4 18  4  0
  4 25  1  0
  5  9  4  0
  5 12  4  0
  6 13  1  0
  6 27  1  0
  7 28  4  0
  8 11  4  0
  9 29  4  0
 10 12  4  0
 11 24  1  0
 11 26  4  0
 12 25  1  0
 13 28  1  0
 14 20  4  0
 14 23  4  0
 15 17  4  0
 15 21  4  0
 16 19  4  0
 16 23  4  0
 17 22  4  0
 18 26  4  0
 19 24  4  0
 20 24  4  0
 22 27  4  0
 28 29  4  0
M  END
$$$$

 Created by Python create_sdf_string function

 29 33  0  0  0  0  0  0  0  0999 V2000
   10.7215   -3.3326   17.6437 C   0  0  0  0  0  0  0  0  0  0  0  0
    9.9489   -3.4675   24.6487 N   0  0  0  0  0  0  0  0  0  0  0  0
   10.0172   -4.4740   17.4101 C   0  0  0  0  0  0  0  0  0  0  0  0
    6.9051   -7.9575   16.4222 C   0  0  0  0  0  0  0  0  0  0  0  0
    8.9969   -6.3552   17.9668 N   0  0  0  0  0  0  0  0  0  0  0  0
   10.6702   -3.9051   22.4070 C   0  0  0  0  0  0  0  0  0  0  0  0
   11.0625   -3.0028   18.8894 C   0  0  0  0  0  0  0  0  0  0  0  0
    5.6180   -7.9194   16.1754 O   0  0  0  0  0  0  0  0  0  0  0  0
    9.7259   -5.3080   18.4485 C   0  0  0  0  0  0  0  0  0  0  0  0
    9.4578   -5.0200   16.3036 N   0  0  0  0  0  0  0  0  0  0  0  0
    5.0287   -8.9365   16.8223 C   0  0  0  0  0  0  0  0  0  0  0  0
    8.7742   -6.1498   16.6764 C   0  0  0  0  0  0  0  0  0  0  0  0
   10.9418   -3.4032   21.2053 O   0  0  0  0  0  0  0  0  0  0  0  0
    1.4797   -8.6258   16.2950 C   0  0  0  0  0  0  0  0  0  0  0  0
    9.2861   -1.2743   25.3585 C   0  0  0  0  0  0  0  0  0  0  0  0
    1.8892  -10.3985   17.7511 N   0  0  0  0  0  0  0  0  0  0  0  0
    9.6210   -0.6952   24.0976 C   0  0  0  0  0  0  0  0  0  0  0  0
    7.0792   -9.0217   17.1429 C   0  0  0  0  0  0  0  0  0  0  0  0
    3.1713  -10.1816   17.6634 C   0  0  0  0  0  0  0  0  0  0  0  0
    2.7878   -8.3822   16.2137 C   0  0  0  0  0  0  0  0  0  0  0  0
    9.4601   -2.6590   25.6528 C   0  0  0  0  0  0  0  0  0  0  0  0
   10.1182   -1.5672   23.1165 C   0  0  0  0  0  0  0  0  0  0  0  0
    1.0552   -9.6360   17.0650 C   0  0  0  0  0  0  0  0  0  0  0  0
    3.6519   -9.1783   16.9039 C   0  0  0  0  0  0  0  0  0  0  0  0
    7.8675   -7.0096   15.9415 C   0  0  0  0  0  0  0  0  0  0  0  0
    5.9733   -9.6553   17.3832 N   0  0  0  0  0  0  0  0  0  0  0  0
   10.2411   -2.9363   23.4301 C   0  0  0  0  0  0  0  0  0  0  0  0
   10.7288   -3.8197   19.9525 C   0  0  0  0  0  0  0  0  0  0  0  0
   10.1189   -5.0054   19.6987 C   0  0  0  0  0  0  0  0  0  0  0  0
  1  3  4  0
  1  7  4  0
  2 21  4  0
  2 27  4  0
  3  9  4  0
  3 10  4  0
  4  8  4  0
  4 18  4  0
  4 25  1  0
  5  9  4  0
  5 12  4  0
  6 13  1  0
  6 27  1  0
  7 28  4  0
  8 11  4  0
  9 29  4  0
 10 12  4  0
 11 24  1  0
 11 26  4  0
 12 25  1  0
 13 28  1  0
 14 20  4  0
 14 23  4  0
 15 17  4  0
 15 21  4  0
 16 19  4  0
 16 23  4  0
 17 22  4  0
 18 26  4  0
 19 24  4  0
 20 24  4  0
 22 27  4  0
 28 29  4  0
M  END
$$$$

 Created by Python create_sdf_string function

 29 33  0  0  0  0  0  0  0  0999 V2000
   10.7215   -3.3326   17.6437 C   0  0  0  0  0  0  0  0  0  0  0  0
    9.9489   -3.4675   24.6487 N   0  0  0  0  0  0  0  0  0  0  0  0
   10.0172   -4.4740   17.4101 C   0  0  0  0  0  0  0  0  0  0  0  0
    6.9051   -7.9575   16.4222 C   0  0  0  0  0  0  0  0  0  0  0  0
    8.9969   -6.3552   17.9668 N   0  0  0  0  0  0  0  0  0  0  0  0
   10.6702   -3.9051   22.4070 C   0  0  0  0  0  0  0  0  0  0  0  0
   11.0625   -3.0028   18.8894 C   0  0  0  0  0  0  0  0  0  0  0  0
    5.6180   -7.9194   16.1754 O   0  0  0  0  0  0  0  0  0  0  0  0
    9.7259   -5.3080   18.4485 C   0  0  0  0  0  0  0  0  0  0  0  0
    9.4578   -5.0200   16.3036 N   0  0  0  0  0  0  0  0  0  0  0  0
    5.0287   -8.9365   16.8223 C   0  0  0  0  0  0  0  0  0  0  0  0
    8.7742   -6.1498   16.6764 C   0  0  0  0  0  0  0  0  0  0  0  0
   10.9418   -3.4032   21.2053 O   0  0  0  0  0  0  0  0  0  0  0  0
    1.4797   -8.6258   16.2950 C   0  0  0  0  0  0  0  0  0  0  0  0
    9.2861   -1.2743   25.3585 C   0  0  0  0  0  0  0  0  0  0  0  0
    1.8892  -10.3985   17.7511 N   0  0  0  0  0  0  0  0  0  0  0  0
    9.6210   -0.6952   24.0976 C   0  0  0  0  0  0  0  0  0  0  0  0
    7.0792   -9.0217   17.1429 C   0  0  0  0  0  0  0  0  0  0  0  0
    3.1713  -10.1816   17.6634 C   0  0  0  0  0  0  0  0  0  0  0  0
    2.7878   -8.3822   16.2137 C   0  0  0  0  0  0  0  0  0  0  0  0
    9.4601   -2.6590   25.6528 C   0  0  0  0  0  0  0  0  0  0  0  0
   10.1182   -1.5672   23.1165 C   0  0  0  0  0  0  0  0  0  0  0  0
    1.0552   -9.6360   17.0650 C   0  0  0  0  0  0  0  0  0  0  0  0
    3.6519   -9.1783   16.9039 C   0  0  0  0  0  0  0  0  0  0  0  0
    7.8675   -7.0096   15.9415 C   0  0  0  0  0  0  0  0  0  0  0  0
    5.9733   -9.6553   17.3832 N   0  0  0  0  0  0  0  0  0  0  0  0
   10.2411   -2.9363   23.4301 C   0  0  0  0  0  0  0  0  0  0  0  0
   10.7288   -3.8197   19.9525 C   0  0  0  0  0  0  0  0  0  0  0  0
   10.1189   -5.0054   19.6987 C   0  0  0  0  0  0  0  0  0  0  0  0
  1  3  4  0
  1  7  4  0
  2 21  4  0
  2 27  4  0
  3  9  4  0
  3 10  4  0
  4  8  4  0
  4 18  4  0
  4 25  1  0
  5  9  4  0
  5 12  4  0
  6 13  1  0
  6 27  1  0
  7 28  4  0
  8 11  4  0
  9 29  4  0
 10 12  4  0
 11 24  1  0
 11 26  4  0
 12 25  1  0
 13 28  1  0
 14 20  4  0
 14 23  4  0
 15 17  4  0
 15 21  4  0
 16 19  4  0
 16 23  4  0
 17 22  4  0
 18 26  4  0
 19 24  4  0
 20 24  4  0
 22 27  4  0
 28 29  4  0
M  END
$$$$

 Created by Python create_sdf_string function

 29 33  0  0  0  0  0  0  0  0999 V2000
   10.7215   -3.3326   17.6437 C   0  0  0  0  0  0  0  0  0  0  0  0
    9.9489   -3.4675   24.6487 N   0  0  0  0  0  0  0  0  0  0  0  0
   10.0172   -4.4740   17.4101 C   0  0  0  0  0  0  0  0  0  0  0  0
    6.9051   -7.9575   16.4222 C   0  0  0  0  0  0  0  0  0  0  0  0
    8.9969   -6.3552   17.9668 N   0  0  0  0  0  0  0  0  0  0  0  0
   10.6702   -3.9051   22.4070 C   0  0  0  0  0  0  0  0  0  0  0  0
   11.0625   -3.0028   18.8894 C   0  0  0  0  0  0  0  0  0  0  0  0
    5.6180   -7.9194   16.1754 O   0  0  0  0  0  0  0  0  0  0  0  0
    9.7259   -5.3080   18.4485 C   0  0  0  0  0  0  0  0  0  0  0  0
    9.4578   -5.0200   16.3036 N   0  0  0  0  0  0  0  0  0  0  0  0
    5.0287   -8.9365   16.8223 C   0  0  0  0  0  0  0  0  0  0  0  0
    8.7742   -6.1498   16.6764 C   0  0  0  0  0  0  0  0  0  0  0  0
   10.9418   -3.4032   21.2053 O   0  0  0  0  0  0  0  0  0  0  0  0
    1.4797   -8.6258   16.2950 C   0  0  0  0  0  0  0  0  0  0  0  0
    9.2861   -1.2743   25.3585 C   0  0  0  0  0  0  0  0  0  0  0  0
    1.8892  -10.3985   17.7511 N   0  0  0  0  0  0  0  0  0  0  0  0
    9.6210   -0.6952   24.0976 C   0  0  0  0  0  0  0  0  0  0  0  0
    7.0792   -9.0217   17.1429 C   0  0  0  0  0  0  0  0  0  0  0  0
    3.1713  -10.1816   17.6634 C   0  0  0  0  0  0  0  0  0  0  0  0
    2.7878   -8.3822   16.2137 C   0  0  0  0  0  0  0  0  0  0  0  0
    9.4601   -2.6590   25.6528 C   0  0  0  0  0  0  0  0  0  0  0  0
   10.1182   -1.5672   23.1165 C   0  0  0  0  0  0  0  0  0  0  0  0
    1.0552   -9.6360   17.0650 C   0  0  0  0  0  0  0  0  0  0  0  0
    3.6519   -9.1783   16.9039 C   0  0  0  0  0  0  0  0  0  0  0  0
    7.8675   -7.0096   15.9415 C   0  0  0  0  0  0  0  0  0  0  0  0
    5.9733   -9.6553   17.3832 N   0  0  0  0  0  0  0  0  0  0  0  0
   10.2411   -2.9363   23.4301 C   0  0  0  0  0  0  0  0  0  0  0  0
   10.7288   -3.8197   19.9525 C   0  0  0  0  0  0  0  0  0  0  0  0
   10.1189   -5.0054   19.6987 C   0  0  0  0  0  0  0  0  0  0  0  0
  1  3  4  0
  1  7  4  0
  2 21  4  0
  2 27  4  0
  3  9  4  0
  3 10  4  0
  4  8  4  0
  4 18  4  0
  4 25  1  0
  5  9  4  0
  5 12  4  0
  6 13  1  0
  6 27  1  0
  7 28  4  0
  8 11  4  0
  9 29  4  0
 10 12  4  0
 11 24  1  0
 11 26  4  0
 12 25  1  0
 13 28  1  0
 14 20  4  0
 14 23  4  0
 15 17  4  0
 15 21  4  0
 16 19  4  0
 16 23  4  0
 17 22  4  0
 18 26  4  0
 19 24  4  0
 20 24  4  0
 22 27  4  0
 28 29  4  0
M  END
$$$$

 Created by Python create_sdf_string function

 29 33  0  0  0  0  0  0  0  0999 V2000
   10.7215   -3.3326   17.6437 C   0  0  0  0  0  0  0  0  0  0  0  0
    9.9489   -3.4675   24.6487 N   0  0  0  0  0  0  0  0  0  0  0  0
   10.0172   -4.4740   17.4101 C   0  0  0  0  0  0  0  0  0  0  0  0
    6.9051   -7.9575   16.4222 C   0  0  0  0  0  0  0  0  0  0  0  0
    8.9969   -6.3552   17.9668 N   0  0  0  0  0  0  0  0  0  0  0  0
   10.6702   -3.9051   22.4070 C   0  0  0  0  0  0  0  0  0  0  0  0
   11.0625   -3.0028   18.8894 C   0  0  0  0  0  0  0  0  0  0  0  0
    5.6180   -7.9194   16.1754 O   0  0  0  0  0  0  0  0  0  0  0  0
    9.7259   -5.3080   18.4485 C   0  0  0  0  0  0  0  0  0  0  0  0
    9.4578   -5.0200   16.3036 N   0  0  0  0  0  0  0  0  0  0  0  0
    5.0287   -8.9365   16.8223 C   0  0  0  0  0  0  0  0  0  0  0  0
    8.7742   -6.1498   16.6764 C   0  0  0  0  0  0  0  0  0  0  0  0
   10.9418   -3.4032   21.2053 O   0  0  0  0  0  0  0  0  0  0  0  0
    1.4797   -8.6258   16.2950 C   0  0  0  0  0  0  0  0  0  0  0  0
    9.2861   -1.2743   25.3585 C   0  0  0  0  0  0  0  0  0  0  0  0
    1.8892  -10.3985   17.7511 N   0  0  0  0  0  0  0  0  0  0  0  0
    9.6210   -0.6952   24.0976 C   0  0  0  0  0  0  0  0  0  0  0  0
    7.0792   -9.0217   17.1429 C   0  0  0  0  0  0  0  0  0  0  0  0
    3.1713  -10.1816   17.6634 C   0  0  0  0  0  0  0  0  0  0  0  0
    2.7878   -8.3822   16.2137 C   0  0  0  0  0  0  0  0  0  0  0  0
    9.4601   -2.6590   25.6528 C   0  0  0  0  0  0  0  0  0  0  0  0
   10.1182   -1.5672   23.1165 C   0  0  0  0  0  0  0  0  0  0  0  0
    1.0552   -9.6360   17.0650 C   0  0  0  0  0  0  0  0  0  0  0  0
    3.6519   -9.1783   16.9039 C   0  0  0  0  0  0  0  0  0  0  0  0
    7.8675   -7.0096   15.9415 C   0  0  0  0  0  0  0  0  0  0  0  0
    5.9733   -9.6553   17.3832 N   0  0  0  0  0  0  0  0  0  0  0  0
   10.2411   -2.9363   23.4301 C   0  0  0  0  0  0  0  0  0  0  0  0
   10.7288   -3.8197   19.9525 C   0  0  0  0  0  0  0  0  0  0  0  0
   10.1189   -5.0054   19.6987 C   0  0  0  0  0  0  0  0  0  0  0  0
  1  3  4  0
  1  7  4  0
  2 21  4  0
  2 27  4  0
  3  9  4  0
  3 10  4  0
  4  8  4  0
  4 18  4  0
  4 25  1  0
  5  9  4  0
  5 12  4  0
  6 13  1  0
  6 27  1  0
  7 28  4  0
  8 11  4  0
  9 29  4  0
 10 12  4  0
 11 24  1  0
 11 26  4  0
 12 25  1  0
 13 28  1  0
 14 20  4  0
 14 23  4  0
 15 17  4  0
 15 21  4  0
 16 19  4  0
 16 23  4  0
 17 22  4  0
 18 26  4  0
 19 24  4  0
 20 24  4  0
 22 27  4  0
 28 29  4  0
M  END
$$$$

 Created by Python create_sdf_string function

 29 33  0  0  0  0  0  0  0  0999 V2000
   10.7215   -3.3326   17.6437 C   0  0  0  0  0  0  0  0  0  0  0  0
    9.9489   -3.4675   24.6487 N   0  0  0  0  0  0  0  0  0  0  0  0
   10.0172   -4.4740   17.4101 C   0  0  0  0  0  0  0  0  0  0  0  0
    6.9051   -7.9575   16.4222 C   0  0  0  0  0  0  0  0  0  0  0  0
    8.9969   -6.3552   17.9668 N   0  0  0  0  0  0  0  0  0  0  0  0
   10.6702   -3.9051   22.4070 C   0  0  0  0  0  0  0  0  0  0  0  0
   11.0625   -3.0028   18.8894 C   0  0  0  0  0  0  0  0  0  0  0  0
    5.6180   -7.9194   16.1754 O   0  0  0  0  0  0  0  0  0  0  0  0
    9.7259   -5.3080   18.4485 C   0  0  0  0  0  0  0  0  0  0  0  0
    9.4578   -5.0200   16.3036 N   0  0  0  0  0  0  0  0  0  0  0  0
    5.0287   -8.9365   16.8223 C   0  0  0  0  0  0  0  0  0  0  0  0
    8.7742   -6.1498   16.6764 C   0  0  0  0  0  0  0  0  0  0  0  0
   10.9418   -3.4032   21.2053 O   0  0  0  0  0  0  0  0  0  0  0  0
    1.4797   -8.6258   16.2950 C   0  0  0  0  0  0  0  0  0  0  0  0
    9.2861   -1.2743   25.3585 C   0  0  0  0  0  0  0  0  0  0  0  0
    1.8892  -10.3985   17.7511 N   0  0  0  0  0  0  0  0  0  0  0  0
    9.6210   -0.6952   24.0976 C   0  0  0  0  0  0  0  0  0  0  0  0
    7.0792   -9.0217   17.1429 C   0  0  0  0  0  0  0  0  0  0  0  0
    3.1713  -10.1816   17.6634 C   0  0  0  0  0  0  0  0  0  0  0  0
    2.7878   -8.3822   16.2137 C   0  0  0  0  0  0  0  0  0  0  0  0
    9.4601   -2.6590   25.6528 C   0  0  0  0  0  0  0  0  0  0  0  0
   10.1182   -1.5672   23.1165 C   0  0  0  0  0  0  0  0  0  0  0  0
    1.0552   -9.6360   17.0650 C   0  0  0  0  0  0  0  0  0  0  0  0
    3.6519   -9.1783   16.9039 C   0  0  0  0  0  0  0  0  0  0  0  0
    7.8675   -7.0096   15.9415 C   0  0  0  0  0  0  0  0  0  0  0  0
    5.9733   -9.6553   17.3832 N   0  0  0  0  0  0  0  0  0  0  0  0
   10.2411   -2.9363   23.4301 C   0  0  0  0  0  0  0  0  0  0  0  0
   10.7288   -3.8197   19.9525 C   0  0  0  0  0  0  0  0  0  0  0  0
   10.1189   -5.0054   19.6987 C   0  0  0  0  0  0  0  0  0  0  0  0
  1  3  4  0
  1  7  4  0
  2 21  4  0
  2 27  4  0
  3  9  4  0
  3 10  4  0
  4  8  4  0
  4 18  4  0
  4 25  1  0
  5  9  4  0
  5 12  4  0
  6 13  1  0
  6 27  1  0
  7 28  4  0
  8 11  4  0
  9 29  4  0
 10 12  4  0
 11 24  1  0
 11 26  4  0
 12 25  1  0
 13 28  1  0
 14 20  4  0
 14 23  4  0
 15 17  4  0
 15 21  4  0
 16 19  4  0
 16 23  4  0
 17 22  4  0
 18 26  4  0
 19 24  4  0
 20 24  4  0
 22 27  4  0
 28 29  4  0
M  END
$$$$

 Created by Python create_sdf_string function

 29 33  0  0  0  0  0  0  0  0999 V2000
   10.7215   -3.3326   17.6437 C   0  0  0  0  0  0  0  0  0  0  0  0
    9.9489   -3.4675   24.6487 N   0  0  0  0  0  0  0  0  0  0  0  0
   10.0172   -4.4740   17.4101 C   0  0  0  0  0  0  0  0  0  0  0  0
    6.9051   -7.9575   16.4222 C   0  0  0  0  0  0  0  0  0  0  0  0
    8.9969   -6.3552   17.9668 N   0  0  0  0  0  0  0  0  0  0  0  0
   10.6702   -3.9051   22.4070 C   0  0  0  0  0  0  0  0  0  0  0  0
   11.0625   -3.0028   18.8894 C   0  0  0  0  0  0  0  0  0  0  0  0
    5.6180   -7.9194   16.1754 O   0  0  0  0  0  0  0  0  0  0  0  0
    9.7259   -5.3080   18.4485 C   0  0  0  0  0  0  0  0  0  0  0  0
    9.4578   -5.0200   16.3036 N   0  0  0  0  0  0  0  0  0  0  0  0
    5.0287   -8.9365   16.8223 C   0  0  0  0  0  0  0  0  0  0  0  0
    8.7742   -6.1498   16.6764 C   0  0  0  0  0  0  0  0  0  0  0  0
   10.9418   -3.4032   21.2053 O   0  0  0  0  0  0  0  0  0  0  0  0
    1.4797   -8.6258   16.2950 C   0  0  0  0  0  0  0  0  0  0  0  0
    9.2861   -1.2743   25.3585 C   0  0  0  0  0  0  0  0  0  0  0  0
    1.8892  -10.3985   17.7511 N   0  0  0  0  0  0  0  0  0  0  0  0
    9.6210   -0.6952   24.0976 C   0  0  0  0  0  0  0  0  0  0  0  0
    7.0792   -9.0217   17.1429 C   0  0  0  0  0  0  0  0  0  0  0  0
    3.1713  -10.1816   17.6634 C   0  0  0  0  0  0  0  0  0  0  0  0
    2.7878   -8.3822   16.2137 C   0  0  0  0  0  0  0  0  0  0  0  0
    9.4601   -2.6590   25.6528 C   0  0  0  0  0  0  0  0  0  0  0  0
   10.1182   -1.5672   23.1165 C   0  0  0  0  0  0  0  0  0  0  0  0
    1.0552   -9.6360   17.0650 C   0  0  0  0  0  0  0  0  0  0  0  0
    3.6519   -9.1783   16.9039 C   0  0  0  0  0  0  0  0  0  0  0  0
    7.8675   -7.0096   15.9415 C   0  0  0  0  0  0  0  0  0  0  0  0
    5.9733   -9.6553   17.3832 N   0  0  0  0  0  0  0  0  0  0  0  0
   10.2411   -2.9363   23.4301 C   0  0  0  0  0  0  0  0  0  0  0  0
   10.7288   -3.8197   19.9525 C   0  0  0  0  0  0  0  0  0  0  0  0
   10.1189   -5.0054   19.6987 C   0  0  0  0  0  0  0  0  0  0  0  0
  1  3  4  0
  1  7  4  0
  2 21  4  0
  2 27  4  0
  3  9  4  0
  3 10  4  0
  4  8  4  0
  4 18  4  0
  4 25  1  0
  5  9  4  0
  5 12  4  0
  6 13  1  0
  6 27  1  0
  7 28  4  0
  8 11  4  0
  9 29  4  0
 10 12  4  0
 11 24  1  0
 11 26  4  0
 12 25  1  0
 13 28  1  0
 14 20  4  0
 14 23  4  0
 15 17  4  0
 15 21  4  0
 16 19  4  0
 16 23  4  0
 17 22  4  0
 18 26  4  0
 19 24  4  0
 20 24  4  0
 22 27  4  0
 28 29  4  0
M  END
$$$$

 Created by Python create_sdf_string function

 29 33  0  0  0  0  0  0  0  0999 V2000
   10.7215   -3.3326   17.6437 C   0  0  0  0  0  0  0  0  0  0  0  0
    9.9489   -3.4675   24.6487 N   0  0  0  0  0  0  0  0  0  0  0  0
   10.0172   -4.4740   17.4101 C   0  0  0  0  0  0  0  0  0  0  0  0
    6.9051   -7.9575   16.4222 C   0  0  0  0  0  0  0  0  0  0  0  0
    8.9969   -6.3552   17.9668 N   0  0  0  0  0  0  0  0  0  0  0  0
   10.6702   -3.9051   22.4070 C   0  0  0  0  0  0  0  0  0  0  0  0
   11.0625   -3.0028   18.8894 C   0  0  0  0  0  0  0  0  0  0  0  0
    5.6180   -7.9194   16.1754 O   0  0  0  0  0  0  0  0  0  0  0  0
    9.7259   -5.3080   18.4485 C   0  0  0  0  0  0  0  0  0  0  0  0
    9.4578   -5.0200   16.3036 N   0  0  0  0  0  0  0  0  0  0  0  0
    5.0287   -8.9365   16.8223 C   0  0  0  0  0  0  0  0  0  0  0  0
    8.7742   -6.1498   16.6764 C   0  0  0  0  0  0  0  0  0  0  0  0
   10.9418   -3.4032   21.2053 O   0  0  0  0  0  0  0  0  0  0  0  0
    1.4797   -8.6258   16.2950 C   0  0  0  0  0  0  0  0  0  0  0  0
    9.2861   -1.2743   25.3585 C   0  0  0  0  0  0  0  0  0  0  0  0
    1.8892  -10.3985   17.7511 N   0  0  0  0  0  0  0  0  0  0  0  0
    9.6210   -0.6952   24.0976 C   0  0  0  0  0  0  0  0  0  0  0  0
    7.0792   -9.0217   17.1429 C   0  0  0  0  0  0  0  0  0  0  0  0
    3.1713  -10.1816   17.6634 C   0  0  0  0  0  0  0  0  0  0  0  0
    2.7878   -8.3822   16.2137 C   0  0  0  0  0  0  0  0  0  0  0  0
    9.4601   -2.6590   25.6528 C   0  0  0  0  0  0  0  0  0  0  0  0
   10.1182   -1.5672   23.1165 C   0  0  0  0  0  0  0  0  0  0  0  0
    1.0552   -9.6360   17.0650 C   0  0  0  0  0  0  0  0  0  0  0  0
    3.6519   -9.1783   16.9039 C   0  0  0  0  0  0  0  0  0  0  0  0
    7.8675   -7.0096   15.9415 C   0  0  0  0  0  0  0  0  0  0  0  0
    5.9733   -9.6553   17.3832 N   0  0  0  0  0  0  0  0  0  0  0  0
   10.2411   -2.9363   23.4301 C   0  0  0  0  0  0  0  0  0  0  0  0
   10.7288   -3.8197   19.9525 C   0  0  0  0  0  0  0  0  0  0  0  0
   10.1189   -5.0054   19.6987 C   0  0  0  0  0  0  0  0  0  0  0  0
  1  3  4  0
  1  7  4  0
  2 21  4  0
  2 27  4  0
  3  9  4  0
  3 10  4  0
  4  8  4  0
  4 18  4  0
  4 25  1  0
  5  9  4  0
  5 12  4  0
  6 13  1  0
  6 27  1  0
  7 28  4  0
  8 11  4  0
  9 29  4  0
 10 12  4  0
 11 24  1  0
 11 26  4  0
 12 25  1  0
 13 28  1  0
 14 20  4  0
 14 23  4  0
 15 17  4  0
 15 21  4  0
 16 19  4  0
 16 23  4  0
 17 22  4  0
 18 26  4  0
 19 24  4  0
 20 24  4  0
 22 27  4  0
 28 29  4  0
M  END
$$$$

 Created by Python create_sdf_string function

 29 33  0  0  0  0  0  0  0  0999 V2000
   10.7215   -3.3326   17.6437 C   0  0  0  0  0  0  0  0  0  0  0  0
    9.9489   -3.4675   24.6487 N   0  0  0  0  0  0  0  0  0  0  0  0
   10.0172   -4.4740   17.4101 C   0  0  0  0  0  0  0  0  0  0  0  0
    6.9051   -7.9575   16.4222 C   0  0  0  0  0  0  0  0  0  0  0  0
    8.9969   -6.3552   17.9668 N   0  0  0  0  0  0  0  0  0  0  0  0
   10.6702   -3.9051   22.4070 C   0  0  0  0  0  0  0  0  0  0  0  0
   11.0625   -3.0028   18.8894 C   0  0  0  0  0  0  0  0  0  0  0  0
    5.6180   -7.9194   16.1754 O   0  0  0  0  0  0  0  0  0  0  0  0
    9.7259   -5.3080   18.4485 C   0  0  0  0  0  0  0  0  0  0  0  0
    9.4578   -5.0200   16.3036 N   0  0  0  0  0  0  0  0  0  0  0  0
    5.0287   -8.9365   16.8223 C   0  0  0  0  0  0  0  0  0  0  0  0
    8.7742   -6.1498   16.6764 C   0  0  0  0  0  0  0  0  0  0  0  0
   10.9418   -3.4032   21.2053 O   0  0  0  0  0  0  0  0  0  0  0  0
    1.4797   -8.6258   16.2950 C   0  0  0  0  0  0  0  0  0  0  0  0
    9.2861   -1.2743   25.3585 C   0  0  0  0  0  0  0  0  0  0  0  0
    1.8892  -10.3985   17.7511 N   0  0  0  0  0  0  0  0  0  0  0  0
    9.6210   -0.6952   24.0976 C   0  0  0  0  0  0  0  0  0  0  0  0
    7.0792   -9.0217   17.1429 C   0  0  0  0  0  0  0  0  0  0  0  0
    3.1713  -10.1816   17.6634 C   0  0  0  0  0  0  0  0  0  0  0  0
    2.7878   -8.3822   16.2137 C   0  0  0  0  0  0  0  0  0  0  0  0
    9.4601   -2.6590   25.6528 C   0  0  0  0  0  0  0  0  0  0  0  0
   10.1182   -1.5672   23.1165 C   0  0  0  0  0  0  0  0  0  0  0  0
    1.0552   -9.6360   17.0650 C   0  0  0  0  0  0  0  0  0  0  0  0
    3.6519   -9.1783   16.9039 C   0  0  0  0  0  0  0  0  0  0  0  0
    7.8675   -7.0096   15.9415 C   0  0  0  0  0  0  0  0  0  0  0  0
    5.9733   -9.6553   17.3832 N   0  0  0  0  0  0  0  0  0  0  0  0
   10.2411   -2.9363   23.4301 C   0  0  0  0  0  0  0  0  0  0  0  0
   10.7288   -3.8197   19.9525 C   0  0  0  0  0  0  0  0  0  0  0  0
   10.1189   -5.0054   19.6987 C   0  0  0  0  0  0  0  0  0  0  0  0
  1  3  4  0
  1  7  4  0
  2 21  4  0
  2 27  4  0
  3  9  4  0
  3 10  4  0
  4  8  4  0
  4 18  4  0
  4 25  1  0
  5  9  4  0
  5 12  4  0
  6 13  1  0
  6 27  1  0
  7 28  4  0
  8 11  4  0
  9 29  4  0
 10 12  4  0
 11 24  1  0
 11 26  4  0
 12 25  1  0
 13 28  1  0
 14 20  4  0
 14 23  4  0
 15 17  4  0
 15 21  4  0
 16 19  4  0
 16 23  4  0
 17 22  4  0
 18 26  4  0
 19 24  4  0
 20 24  4  0
 22 27  4  0
 28 29  4  0
M  END
$$$$

 Created by Python create_sdf_string function

 29 33  0  0  0  0  0  0  0  0999 V2000
   10.7215   -3.3326   17.6437 C   0  0  0  0  0  0  0  0  0  0  0  0
    9.9489   -3.4675   24.6487 N   0  0  0  0  0  0  0  0  0  0  0  0
   10.0172   -4.4740   17.4101 C   0  0  0  0  0  0  0  0  0  0  0  0
    6.9051   -7.9575   16.4222 C   0  0  0  0  0  0  0  0  0  0  0  0
    8.9969   -6.3552   17.9668 N   0  0  0  0  0  0  0  0  0  0  0  0
   10.6702   -3.9051   22.4070 C   0  0  0  0  0  0  0  0  0  0  0  0
   11.0625   -3.0028   18.8894 C   0  0  0  0  0  0  0  0  0  0  0  0
    5.6180   -7.9194   16.1754 O   0  0  0  0  0  0  0  0  0  0  0  0
    9.7259   -5.3080   18.4485 C   0  0  0  0  0  0  0  0  0  0  0  0
    9.4578   -5.0200   16.3036 N   0  0  0  0  0  0  0  0  0  0  0  0
    5.0287   -8.9365   16.8223 C   0  0  0  0  0  0  0  0  0  0  0  0
    8.7742   -6.1498   16.6764 C   0  0  0  0  0  0  0  0  0  0  0  0
   10.9418   -3.4032   21.2053 O   0  0  0  0  0  0  0  0  0  0  0  0
    1.4797   -8.6258   16.2950 C   0  0  0  0  0  0  0  0  0  0  0  0
    9.2861   -1.2743   25.3585 C   0  0  0  0  0  0  0  0  0  0  0  0
    1.8892  -10.3985   17.7511 N   0  0  0  0  0  0  0  0  0  0  0  0
    9.6210   -0.6952   24.0976 C   0  0  0  0  0  0  0  0  0  0  0  0
    7.0792   -9.0217   17.1429 C   0  0  0  0  0  0  0  0  0  0  0  0
    3.1713  -10.1816   17.6634 C   0  0  0  0  0  0  0  0  0  0  0  0
    2.7878   -8.3822   16.2137 C   0  0  0  0  0  0  0  0  0  0  0  0
    9.4601   -2.6590   25.6528 C   0  0  0  0  0  0  0  0  0  0  0  0
   10.1182   -1.5672   23.1165 C   0  0  0  0  0  0  0  0  0  0  0  0
    1.0552   -9.6360   17.0650 C   0  0  0  0  0  0  0  0  0  0  0  0
    3.6519   -9.1783   16.9039 C   0  0  0  0  0  0  0  0  0  0  0  0
    7.8675   -7.0096   15.9415 C   0  0  0  0  0  0  0  0  0  0  0  0
    5.9733   -9.6553   17.3832 N   0  0  0  0  0  0  0  0  0  0  0  0
   10.2411   -2.9363   23.4301 C   0  0  0  0  0  0  0  0  0  0  0  0
   10.7288   -3.8197   19.9525 C   0  0  0  0  0  0  0  0  0  0  0  0
   10.1189   -5.0054   19.6987 C   0  0  0  0  0  0  0  0  0  0  0  0
  1  3  4  0
  1  7  4  0
  2 21  4  0
  2 27  4  0
  3  9  4  0
  3 10  4  0
  4  8  4  0
  4 18  4  0
  4 25  1  0
  5  9  4  0
  5 12  4  0
  6 13  1  0
  6 27  1  0
  7 28  4  0
  8 11  4  0
  9 29  4  0
 10 12  4  0
 11 24  1  0
 11 26  4  0
 12 25  1  0
 13 28  1  0
 14 20  4  0
 14 23  4  0
 15 17  4  0
 15 21  4  0
 16 19  4  0
 16 23  4  0
 17 22  4  0
 18 26  4  0
 19 24  4  0
 20 24  4  0
 22 27  4  0
 28 29  4  0
M  END
$$$$

 Created by Python create_sdf_string function

 29 33  0  0  0  0  0  0  0  0999 V2000
   10.7215   -3.3326   17.6437 C   0  0  0  0  0  0  0  0  0  0  0  0
    9.9489   -3.4675   24.6487 N   0  0  0  0  0  0  0  0  0  0  0  0
   10.0172   -4.4740   17.4101 C   0  0  0  0  0  0  0  0  0  0  0  0
    6.9051   -7.9575   16.4222 C   0  0  0  0  0  0  0  0  0  0  0  0
    8.9969   -6.3552   17.9668 N   0  0  0  0  0  0  0  0  0  0  0  0
   10.6702   -3.9051   22.4070 C   0  0  0  0  0  0  0  0  0  0  0  0
   11.0625   -3.0028   18.8894 C   0  0  0  0  0  0  0  0  0  0  0  0
    5.6180   -7.9194   16.1754 O   0  0  0  0  0  0  0  0  0  0  0  0
    9.7259   -5.3080   18.4485 C   0  0  0  0  0  0  0  0  0  0  0  0
    9.4578   -5.0200   16.3036 N   0  0  0  0  0  0  0  0  0  0  0  0
    5.0287   -8.9365   16.8223 C   0  0  0  0  0  0  0  0  0  0  0  0
    8.7742   -6.1498   16.6764 C   0  0  0  0  0  0  0  0  0  0  0  0
   10.9418   -3.4032   21.2053 O   0  0  0  0  0  0  0  0  0  0  0  0
    1.4797   -8.6258   16.2950 C   0  0  0  0  0  0  0  0  0  0  0  0
    9.2861   -1.2743   25.3585 C   0  0  0  0  0  0  0  0  0  0  0  0
    1.8892  -10.3985   17.7511 N   0  0  0  0  0  0  0  0  0  0  0  0
    9.6210   -0.6952   24.0976 C   0  0  0  0  0  0  0  0  0  0  0  0
    7.0792   -9.0217   17.1429 C   0  0  0  0  0  0  0  0  0  0  0  0
    3.1713  -10.1816   17.6634 C   0  0  0  0  0  0  0  0  0  0  0  0
    2.7878   -8.3822   16.2137 C   0  0  0  0  0  0  0  0  0  0  0  0
    9.4601   -2.6590   25.6528 C   0  0  0  0  0  0  0  0  0  0  0  0
   10.1182   -1.5672   23.1165 C   0  0  0  0  0  0  0  0  0  0  0  0
    1.0552   -9.6360   17.0650 C   0  0  0  0  0  0  0  0  0  0  0  0
    3.6519   -9.1783   16.9039 C   0  0  0  0  0  0  0  0  0  0  0  0
    7.8675   -7.0096   15.9415 C   0  0  0  0  0  0  0  0  0  0  0  0
    5.9733   -9.6553   17.3832 N   0  0  0  0  0  0  0  0  0  0  0  0
   10.2411   -2.9363   23.4301 C   0  0  0  0  0  0  0  0  0  0  0  0
   10.7288   -3.8197   19.9525 C   0  0  0  0  0  0  0  0  0  0  0  0
   10.1189   -5.0054   19.6987 C   0  0  0  0  0  0  0  0  0  0  0  0
  1  3  4  0
  1  7  4  0
  2 21  4  0
  2 27  4  0
  3  9  4  0
  3 10  4  0
  4  8  4  0
  4 18  4  0
  4 25  1  0
  5  9  4  0
  5 12  4  0
  6 13  1  0
  6 27  1  0
  7 28  4  0
  8 11  4  0
  9 29  4  0
 10 12  4  0
 11 24  1  0
 11 26  4  0
 12 25  1  0
 13 28  1  0
 14 20  4  0
 14 23  4  0
 15 17  4  0
 15 21  4  0
 16 19  4  0
 16 23  4  0
 17 22  4  0
 18 26  4  0
 19 24  4  0
 20 24  4  0
 22 27  4  0
 28 29  4  0
M  END
$$$$

 Created by Python create_sdf_string function

 29 33  0  0  0  0  0  0  0  0999 V2000
   10.7215   -3.3326   17.6437 C   0  0  0  0  0  0  0  0  0  0  0  0
    9.9489   -3.4675   24.6487 N   0  0  0  0  0  0  0  0  0  0  0  0
   10.0172   -4.4740   17.4101 C   0  0  0  0  0  0  0  0  0  0  0  0
    6.9051   -7.9575   16.4222 C   0  0  0  0  0  0  0  0  0  0  0  0
    8.9969   -6.3552   17.9668 N   0  0  0  0  0  0  0  0  0  0  0  0
   10.6702   -3.9051   22.4070 C   0  0  0  0  0  0  0  0  0  0  0  0
   11.0625   -3.0028   18.8894 C   0  0  0  0  0  0  0  0  0  0  0  0
    5.6180   -7.9194   16.1754 O   0  0  0  0  0  0  0  0  0  0  0  0
    9.7259   -5.3080   18.4485 C   0  0  0  0  0  0  0  0  0  0  0  0
    9.4578   -5.0200   16.3036 N   0  0  0  0  0  0  0  0  0  0  0  0
    5.0287   -8.9365   16.8223 C   0  0  0  0  0  0  0  0  0  0  0  0
    8.7742   -6.1498   16.6764 C   0  0  0  0  0  0  0  0  0  0  0  0
   10.9418   -3.4032   21.2053 O   0  0  0  0  0  0  0  0  0  0  0  0
    1.4797   -8.6258   16.2950 C   0  0  0  0  0  0  0  0  0  0  0  0
    9.2861   -1.2743   25.3585 C   0  0  0  0  0  0  0  0  0  0  0  0
    1.8892  -10.3985   17.7511 N   0  0  0  0  0  0  0  0  0  0  0  0
    9.6210   -0.6952   24.0976 C   0  0  0  0  0  0  0  0  0  0  0  0
    7.0792   -9.0217   17.1429 C   0  0  0  0  0  0  0  0  0  0  0  0
    3.1713  -10.1816   17.6634 C   0  0  0  0  0  0  0  0  0  0  0  0
    2.7878   -8.3822   16.2137 C   0  0  0  0  0  0  0  0  0  0  0  0
    9.4601   -2.6590   25.6528 C   0  0  0  0  0  0  0  0  0  0  0  0
   10.1182   -1.5672   23.1165 C   0  0  0  0  0  0  0  0  0  0  0  0
    1.0552   -9.6360   17.0650 C   0  0  0  0  0  0  0  0  0  0  0  0
    3.6519   -9.1783   16.9039 C   0  0  0  0  0  0  0  0  0  0  0  0
    7.8675   -7.0096   15.9415 C   0  0  0  0  0  0  0  0  0  0  0  0
    5.9733   -9.6553   17.3832 N   0  0  0  0  0  0  0  0  0  0  0  0
   10.2411   -2.9363   23.4301 C   0  0  0  0  0  0  0  0  0  0  0  0
   10.7288   -3.8197   19.9525 C   0  0  0  0  0  0  0  0  0  0  0  0
   10.1189   -5.0054   19.6987 C   0  0  0  0  0  0  0  0  0  0  0  0
  1  3  4  0
  1  7  4  0
  2 21  4  0
  2 27  4  0
  3  9  4  0
  3 10  4  0
  4  8  4  0
  4 18  4  0
  4 25  1  0
  5  9  4  0
  5 12  4  0
  6 13  1  0
  6 27  1  0
  7 28  4  0
  8 11  4  0
  9 29  4  0
 10 12  4  0
 11 24  1  0
 11 26  4  0
 12 25  1  0
 13 28  1  0
 14 20  4  0
 14 23  4  0
 15 17  4  0
 15 21  4  0
 16 19  4  0
 16 23  4  0
 17 22  4  0
 18 26  4  0
 19 24  4  0
 20 24  4  0
 22 27  4  0
 28 29  4  0
M  END
$$$$

 Created by Python create_sdf_string function

 29 33  0  0  0  0  0  0  0  0999 V2000
   10.7215   -3.3326   17.6437 C   0  0  0  0  0  0  0  0  0  0  0  0
    9.9489   -3.4675   24.6487 N   0  0  0  0  0  0  0  0  0  0  0  0
   10.0172   -4.4740   17.4101 C   0  0  0  0  0  0  0  0  0  0  0  0
    6.9051   -7.9575   16.4222 C   0  0  0  0  0  0  0  0  0  0  0  0
    8.9969   -6.3552   17.9668 N   0  0  0  0  0  0  0  0  0  0  0  0
   10.6702   -3.9051   22.4070 C   0  0  0  0  0  0  0  0  0  0  0  0
   11.0625   -3.0028   18.8894 C   0  0  0  0  0  0  0  0  0  0  0  0
    5.6180   -7.9194   16.1754 O   0  0  0  0  0  0  0  0  0  0  0  0
    9.7259   -5.3080   18.4485 C   0  0  0  0  0  0  0  0  0  0  0  0
    9.4578   -5.0200   16.3036 N   0  0  0  0  0  0  0  0  0  0  0  0
    5.0287   -8.9365   16.8223 C   0  0  0  0  0  0  0  0  0  0  0  0
    8.7742   -6.1498   16.6764 C   0  0  0  0  0  0  0  0  0  0  0  0
   10.9418   -3.4032   21.2053 O   0  0  0  0  0  0  0  0  0  0  0  0
    1.4797   -8.6258   16.2950 C   0  0  0  0  0  0  0  0  0  0  0  0
    9.2861   -1.2743   25.3585 C   0  0  0  0  0  0  0  0  0  0  0  0
    1.8892  -10.3985   17.7511 N   0  0  0  0  0  0  0  0  0  0  0  0
    9.6210   -0.6952   24.0976 C   0  0  0  0  0  0  0  0  0  0  0  0
    7.0792   -9.0217   17.1429 C   0  0  0  0  0  0  0  0  0  0  0  0
    3.1713  -10.1816   17.6634 C   0  0  0  0  0  0  0  0  0  0  0  0
    2.7878   -8.3822   16.2137 C   0  0  0  0  0  0  0  0  0  0  0  0
    9.4601   -2.6590   25.6528 C   0  0  0  0  0  0  0  0  0  0  0  0
   10.1182   -1.5672   23.1165 C   0  0  0  0  0  0  0  0  0  0  0  0
    1.0552   -9.6360   17.0650 C   0  0  0  0  0  0  0  0  0  0  0  0
    3.6519   -9.1783   16.9039 C   0  0  0  0  0  0  0  0  0  0  0  0
    7.8675   -7.0096   15.9415 C   0  0  0  0  0  0  0  0  0  0  0  0
    5.9733   -9.6553   17.3832 N   0  0  0  0  0  0  0  0  0  0  0  0
   10.2411   -2.9363   23.4301 C   0  0  0  0  0  0  0  0  0  0  0  0
   10.7288   -3.8197   19.9525 C   0  0  0  0  0  0  0  0  0  0  0  0
   10.1189   -5.0054   19.6987 C   0  0  0  0  0  0  0  0  0  0  0  0
  1  3  4  0
  1  7  4  0
  2 21  4  0
  2 27  4  0
  3  9  4  0
  3 10  4  0
  4  8  4  0
  4 18  4  0
  4 25  1  0
  5  9  4  0
  5 12  4  0
  6 13  1  0
  6 27  1  0
  7 28  4  0
  8 11  4  0
  9 29  4  0
 10 12  4  0
 11 24  1  0
 11 26  4  0
 12 25  1  0
 13 28  1  0
 14 20  4  0
 14 23  4  0
 15 17  4  0
 15 21  4  0
 16 19  4  0
 16 23  4  0
 17 22  4  0
 18 26  4  0
 19 24  4  0
 20 24  4  0
 22 27  4  0
 28 29  4  0
M  END
$$$$

 Created by Python create_sdf_string function

 29 33  0  0  0  0  0  0  0  0999 V2000
   10.7215   -3.3326   17.6437 C   0  0  0  0  0  0  0  0  0  0  0  0
    9.9489   -3.4675   24.6487 N   0  0  0  0  0  0  0  0  0  0  0  0
   10.0172   -4.4740   17.4101 C   0  0  0  0  0  0  0  0  0  0  0  0
    6.9051   -7.9575   16.4222 C   0  0  0  0  0  0  0  0  0  0  0  0
    8.9969   -6.3552   17.9668 N   0  0  0  0  0  0  0  0  0  0  0  0
   10.6702   -3.9051   22.4070 C   0  0  0  0  0  0  0  0  0  0  0  0
   11.0625   -3.0028   18.8894 C   0  0  0  0  0  0  0  0  0  0  0  0
    5.6180   -7.9194   16.1754 O   0  0  0  0  0  0  0  0  0  0  0  0
    9.7259   -5.3080   18.4485 C   0  0  0  0  0  0  0  0  0  0  0  0
    9.4578   -5.0200   16.3036 N   0  0  0  0  0  0  0  0  0  0  0  0
    5.0287   -8.9365   16.8223 C   0  0  0  0  0  0  0  0  0  0  0  0
    8.7742   -6.1498   16.6764 C   0  0  0  0  0  0  0  0  0  0  0  0
   10.9418   -3.4032   21.2053 O   0  0  0  0  0  0  0  0  0  0  0  0
    1.4797   -8.6258   16.2950 C   0  0  0  0  0  0  0  0  0  0  0  0
    9.2861   -1.2743   25.3585 C   0  0  0  0  0  0  0  0  0  0  0  0
    1.8892  -10.3985   17.7511 N   0  0  0  0  0  0  0  0  0  0  0  0
    9.6210   -0.6952   24.0976 C   0  0  0  0  0  0  0  0  0  0  0  0
    7.0792   -9.0217   17.1429 C   0  0  0  0  0  0  0  0  0  0  0  0
    3.1713  -10.1816   17.6634 C   0  0  0  0  0  0  0  0  0  0  0  0
    2.7878   -8.3822   16.2137 C   0  0  0  0  0  0  0  0  0  0  0  0
    9.4601   -2.6590   25.6528 C   0  0  0  0  0  0  0  0  0  0  0  0
   10.1182   -1.5672   23.1165 C   0  0  0  0  0  0  0  0  0  0  0  0
    1.0552   -9.6360   17.0650 C   0  0  0  0  0  0  0  0  0  0  0  0
    3.6519   -9.1783   16.9039 C   0  0  0  0  0  0  0  0  0  0  0  0
    7.8675   -7.0096   15.9415 C   0  0  0  0  0  0  0  0  0  0  0  0
    5.9733   -9.6553   17.3832 N   0  0  0  0  0  0  0  0  0  0  0  0
   10.2411   -2.9363   23.4301 C   0  0  0  0  0  0  0  0  0  0  0  0
   10.7288   -3.8197   19.9525 C   0  0  0  0  0  0  0  0  0  0  0  0
   10.1189   -5.0054   19.6987 C   0  0  0  0  0  0  0  0  0  0  0  0
  1  3  4  0
  1  7  4  0
  2 21  4  0
  2 27  4  0
  3  9  4  0
  3 10  4  0
  4  8  4  0
  4 18  4  0
  4 25  1  0
  5  9  4  0
  5 12  4  0
  6 13  1  0
  6 27  1  0
  7 28  4  0
  8 11  4  0
  9 29  4  0
 10 12  4  0
 11 24  1  0
 11 26  4  0
 12 25  1  0
 13 28  1  0
 14 20  4  0
 14 23  4  0
 15 17  4  0
 15 21  4  0
 16 19  4  0
 16 23  4  0
 17 22  4  0
 18 26  4  0
 19 24  4  0
 20 24  4  0
 22 27  4  0
 28 29  4  0
M  END
$$$$

 Created by Python create_sdf_string function

 29 33  0  0  0  0  0  0  0  0999 V2000
   10.7215   -3.3326   17.6437 C   0  0  0  0  0  0  0  0  0  0  0  0
    9.9489   -3.4675   24.6487 N   0  0  0  0  0  0  0  0  0  0  0  0
   10.0172   -4.4740   17.4101 C   0  0  0  0  0  0  0  0  0  0  0  0
    6.9051   -7.9575   16.4222 C   0  0  0  0  0  0  0  0  0  0  0  0
    8.9969   -6.3552   17.9668 N   0  0  0  0  0  0  0  0  0  0  0  0
   10.6702   -3.9051   22.4070 C   0  0  0  0  0  0  0  0  0  0  0  0
   11.0625   -3.0028   18.8894 C   0  0  0  0  0  0  0  0  0  0  0  0
    5.6180   -7.9194   16.1754 O   0  0  0  0  0  0  0  0  0  0  0  0
    9.7259   -5.3080   18.4485 C   0  0  0  0  0  0  0  0  0  0  0  0
    9.4578   -5.0200   16.3036 N   0  0  0  0  0  0  0  0  0  0  0  0
    5.0287   -8.9365   16.8223 C   0  0  0  0  0  0  0  0  0  0  0  0
    8.7742   -6.1498   16.6764 C   0  0  0  0  0  0  0  0  0  0  0  0
   10.9418   -3.4032   21.2053 O   0  0  0  0  0  0  0  0  0  0  0  0
    1.4797   -8.6258   16.2950 C   0  0  0  0  0  0  0  0  0  0  0  0
    9.2861   -1.2743   25.3585 C   0  0  0  0  0  0  0  0  0  0  0  0
    1.8892  -10.3985   17.7511 N   0  0  0  0  0  0  0  0  0  0  0  0
    9.6210   -0.6952   24.0976 C   0  0  0  0  0  0  0  0  0  0  0  0
    7.0792   -9.0217   17.1429 C   0  0  0  0  0  0  0  0  0  0  0  0
    3.1713  -10.1816   17.6634 C   0  0  0  0  0  0  0  0  0  0  0  0
    2.7878   -8.3822   16.2137 C   0  0  0  0  0  0  0  0  0  0  0  0
    9.4601   -2.6590   25.6528 C   0  0  0  0  0  0  0  0  0  0  0  0
   10.1182   -1.5672   23.1165 C   0  0  0  0  0  0  0  0  0  0  0  0
    1.0552   -9.6360   17.0650 C   0  0  0  0  0  0  0  0  0  0  0  0
    3.6519   -9.1783   16.9039 C   0  0  0  0  0  0  0  0  0  0  0  0
    7.8675   -7.0096   15.9415 C   0  0  0  0  0  0  0  0  0  0  0  0
    5.9733   -9.6553   17.3832 N   0  0  0  0  0  0  0  0  0  0  0  0
   10.2411   -2.9363   23.4301 C   0  0  0  0  0  0  0  0  0  0  0  0
   10.7288   -3.8197   19.9525 C   0  0  0  0  0  0  0  0  0  0  0  0
   10.1189   -5.0054   19.6987 C   0  0  0  0  0  0  0  0  0  0  0  0
  1  3  4  0
  1  7  4  0
  2 21  4  0
  2 27  4  0
  3  9  4  0
  3 10  4  0
  4  8  4  0
  4 18  4  0
  4 25  1  0
  5  9  4  0
  5 12  4  0
  6 13  1  0
  6 27  1  0
  7 28  4  0
  8 11  4  0
  9 29  4  0
 10 12  4  0
 11 24  1  0
 11 26  4  0
 12 25  1  0
 13 28  1  0
 14 20  4  0
 14 23  4  0
 15 17  4  0
 15 21  4  0
 16 19  4  0
 16 23  4  0
 17 22  4  0
 18 26  4  0
 19 24  4  0
 20 24  4  0
 22 27  4  0
 28 29  4  0
M  END
$$$$

 Created by Python create_sdf_string function

 29 33  0  0  0  0  0  0  0  0999 V2000
   10.7215   -3.3326   17.6437 C   0  0  0  0  0  0  0  0  0  0  0  0
    9.9489   -3.4675   24.6487 N   0  0  0  0  0  0  0  0  0  0  0  0
   10.0172   -4.4740   17.4101 C   0  0  0  0  0  0  0  0  0  0  0  0
    6.9051   -7.9575   16.4222 C   0  0  0  0  0  0  0  0  0  0  0  0
    8.9969   -6.3552   17.9668 N   0  0  0  0  0  0  0  0  0  0  0  0
   10.6702   -3.9051   22.4070 C   0  0  0  0  0  0  0  0  0  0  0  0
   11.0625   -3.0028   18.8894 C   0  0  0  0  0  0  0  0  0  0  0  0
    5.6180   -7.9194   16.1754 O   0  0  0  0  0  0  0  0  0  0  0  0
    9.7259   -5.3080   18.4485 C   0  0  0  0  0  0  0  0  0  0  0  0
    9.4578   -5.0200   16.3036 N   0  0  0  0  0  0  0  0  0  0  0  0
    5.0287   -8.9365   16.8223 C   0  0  0  0  0  0  0  0  0  0  0  0
    8.7742   -6.1498   16.6764 C   0  0  0  0  0  0  0  0  0  0  0  0
   10.9418   -3.4032   21.2053 O   0  0  0  0  0  0  0  0  0  0  0  0
    1.4797   -8.6258   16.2950 C   0  0  0  0  0  0  0  0  0  0  0  0
    9.2861   -1.2743   25.3585 C   0  0  0  0  0  0  0  0  0  0  0  0
    1.8892  -10.3985   17.7511 N   0  0  0  0  0  0  0  0  0  0  0  0
    9.6210   -0.6952   24.0976 C   0  0  0  0  0  0  0  0  0  0  0  0
    7.0792   -9.0217   17.1429 C   0  0  0  0  0  0  0  0  0  0  0  0
    3.1713  -10.1816   17.6634 C   0  0  0  0  0  0  0  0  0  0  0  0
    2.7878   -8.3822   16.2137 C   0  0  0  0  0  0  0  0  0  0  0  0
    9.4601   -2.6590   25.6528 C   0  0  0  0  0  0  0  0  0  0  0  0
   10.1182   -1.5672   23.1165 C   0  0  0  0  0  0  0  0  0  0  0  0
    1.0552   -9.6360   17.0650 C   0  0  0  0  0  0  0  0  0  0  0  0
    3.6519   -9.1783   16.9039 C   0  0  0  0  0  0  0  0  0  0  0  0
    7.8675   -7.0096   15.9415 C   0  0  0  0  0  0  0  0  0  0  0  0
    5.9733   -9.6553   17.3832 N   0  0  0  0  0  0  0  0  0  0  0  0
   10.2411   -2.9363   23.4301 C   0  0  0  0  0  0  0  0  0  0  0  0
   10.7288   -3.8197   19.9525 C   0  0  0  0  0  0  0  0  0  0  0  0
   10.1189   -5.0054   19.6987 C   0  0  0  0  0  0  0  0  0  0  0  0
  1  3  4  0
  1  7  4  0
  2 21  4  0
  2 27  4  0
  3  9  4  0
  3 10  4  0
  4  8  4  0
  4 18  4  0
  4 25  1  0
  5  9  4  0
  5 12  4  0
  6 13  1  0
  6 27  1  0
  7 28  4  0
  8 11  4  0
  9 29  4  0
 10 12  4  0
 11 24  1  0
 11 26  4  0
 12 25  1  0
 13 28  1  0
 14 20  4  0
 14 23  4  0
 15 17  4  0
 15 21  4  0
 16 19  4  0
 16 23  4  0
 17 22  4  0
 18 26  4  0
 19 24  4  0
 20 24  4  0
 22 27  4  0
 28 29  4  0
M  END
$$$$

 Created by Python create_sdf_string function

 29 33  0  0  0  0  0  0  0  0999 V2000
   10.7215   -3.3326   17.6437 C   0  0  0  0  0  0  0  0  0  0  0  0
    9.9489   -3.4675   24.6487 N   0  0  0  0  0  0  0  0  0  0  0  0
   10.0172   -4.4740   17.4101 C   0  0  0  0  0  0  0  0  0  0  0  0
    6.9051   -7.9575   16.4222 C   0  0  0  0  0  0  0  0  0  0  0  0
    8.9969   -6.3552   17.9668 N   0  0  0  0  0  0  0  0  0  0  0  0
   10.6702   -3.9051   22.4070 C   0  0  0  0  0  0  0  0  0  0  0  0
   11.0625   -3.0028   18.8894 C   0  0  0  0  0  0  0  0  0  0  0  0
    5.6180   -7.9194   16.1754 O   0  0  0  0  0  0  0  0  0  0  0  0
    9.7259   -5.3080   18.4485 C   0  0  0  0  0  0  0  0  0  0  0  0
    9.4578   -5.0200   16.3036 N   0  0  0  0  0  0  0  0  0  0  0  0
    5.0287   -8.9365   16.8223 C   0  0  0  0  0  0  0  0  0  0  0  0
    8.7742   -6.1498   16.6764 C   0  0  0  0  0  0  0  0  0  0  0  0
   10.9418   -3.4032   21.2053 O   0  0  0  0  0  0  0  0  0  0  0  0
    1.4797   -8.6258   16.2950 C   0  0  0  0  0  0  0  0  0  0  0  0
    9.2861   -1.2743   25.3585 C   0  0  0  0  0  0  0  0  0  0  0  0
    1.8892  -10.3985   17.7511 N   0  0  0  0  0  0  0  0  0  0  0  0
    9.6210   -0.6952   24.0976 C   0  0  0  0  0  0  0  0  0  0  0  0
    7.0792   -9.0217   17.1429 C   0  0  0  0  0  0  0  0  0  0  0  0
    3.1713  -10.1816   17.6634 C   0  0  0  0  0  0  0  0  0  0  0  0
    2.7878   -8.3822   16.2137 C   0  0  0  0  0  0  0  0  0  0  0  0
    9.4601   -2.6590   25.6528 C   0  0  0  0  0  0  0  0  0  0  0  0
   10.1182   -1.5672   23.1165 C   0  0  0  0  0  0  0  0  0  0  0  0
    1.0552   -9.6360   17.0650 C   0  0  0  0  0  0  0  0  0  0  0  0
    3.6519   -9.1783   16.9039 C   0  0  0  0  0  0  0  0  0  0  0  0
    7.8675   -7.0096   15.9415 C   0  0  0  0  0  0  0  0  0  0  0  0
    5.9733   -9.6553   17.3832 N   0  0  0  0  0  0  0  0  0  0  0  0
   10.2411   -2.9363   23.4301 C   0  0  0  0  0  0  0  0  0  0  0  0
   10.7288   -3.8197   19.9525 C   0  0  0  0  0  0  0  0  0  0  0  0
   10.1189   -5.0054   19.6987 C   0  0  0  0  0  0  0  0  0  0  0  0
  1  3  4  0
  1  7  4  0
  2 21  4  0
  2 27  4  0
  3  9  4  0
  3 10  4  0
  4  8  4  0
  4 18  4  0
  4 25  1  0
  5  9  4  0
  5 12  4  0
  6 13  1  0
  6 27  1  0
  7 28  4  0
  8 11  4  0
  9 29  4  0
 10 12  4  0
 11 24  1  0
 11 26  4  0
 12 25  1  0
 13 28  1  0
 14 20  4  0
 14 23  4  0
 15 17  4  0
 15 21  4  0
 16 19  4  0
 16 23  4  0
 17 22  4  0
 18 26  4  0
 19 24  4  0
 20 24  4  0
 22 27  4  0
 28 29  4  0
M  END
$$$$

 Created by Python create_sdf_string function

 29 33  0  0  0  0  0  0  0  0999 V2000
   10.7215   -3.3326   17.6437 C   0  0  0  0  0  0  0  0  0  0  0  0
    9.9489   -3.4675   24.6487 N   0  0  0  0  0  0  0  0  0  0  0  0
   10.0172   -4.4740   17.4101 C   0  0  0  0  0  0  0  0  0  0  0  0
    6.9051   -7.9575   16.4222 C   0  0  0  0  0  0  0  0  0  0  0  0
    8.9969   -6.3552   17.9668 N   0  0  0  0  0  0  0  0  0  0  0  0
   10.6702   -3.9051   22.4070 C   0  0  0  0  0  0  0  0  0  0  0  0
   11.0625   -3.0028   18.8894 C   0  0  0  0  0  0  0  0  0  0  0  0
    5.6180   -7.9194   16.1754 O   0  0  0  0  0  0  0  0  0  0  0  0
    9.7259   -5.3080   18.4485 C   0  0  0  0  0  0  0  0  0  0  0  0
    9.4578   -5.0200   16.3036 N   0  0  0  0  0  0  0  0  0  0  0  0
    5.0287   -8.9365   16.8223 C   0  0  0  0  0  0  0  0  0  0  0  0
    8.7742   -6.1498   16.6764 C   0  0  0  0  0  0  0  0  0  0  0  0
   10.9418   -3.4032   21.2053 O   0  0  0  0  0  0  0  0  0  0  0  0
    1.4797   -8.6258   16.2950 C   0  0  0  0  0  0  0  0  0  0  0  0
    9.2861   -1.2743   25.3585 C   0  0  0  0  0  0  0  0  0  0  0  0
    1.8892  -10.3985   17.7511 N   0  0  0  0  0  0  0  0  0  0  0  0
    9.6210   -0.6952   24.0976 C   0  0  0  0  0  0  0  0  0  0  0  0
    7.0792   -9.0217   17.1429 C   0  0  0  0  0  0  0  0  0  0  0  0
    3.1713  -10.1816   17.6634 C   0  0  0  0  0  0  0  0  0  0  0  0
    2.7878   -8.3822   16.2137 C   0  0  0  0  0  0  0  0  0  0  0  0
    9.4601   -2.6590   25.6528 C   0  0  0  0  0  0  0  0  0  0  0  0
   10.1182   -1.5672   23.1165 C   0  0  0  0  0  0  0  0  0  0  0  0
    1.0552   -9.6360   17.0650 C   0  0  0  0  0  0  0  0  0  0  0  0
    3.6519   -9.1783   16.9039 C   0  0  0  0  0  0  0  0  0  0  0  0
    7.8675   -7.0096   15.9415 C   0  0  0  0  0  0  0  0  0  0  0  0
    5.9733   -9.6553   17.3832 N   0  0  0  0  0  0  0  0  0  0  0  0
   10.2411   -2.9363   23.4301 C   0  0  0  0  0  0  0  0  0  0  0  0
   10.7288   -3.8197   19.9525 C   0  0  0  0  0  0  0  0  0  0  0  0
   10.1189   -5.0054   19.6987 C   0  0  0  0  0  0  0  0  0  0  0  0
  1  3  4  0
  1  7  4  0
  2 21  4  0
  2 27  4  0
  3  9  4  0
  3 10  4  0
  4  8  4  0
  4 18  4  0
  4 25  1  0
  5  9  4  0
  5 12  4  0
  6 13  1  0
  6 27  1  0
  7 28  4  0
  8 11  4  0
  9 29  4  0
 10 12  4  0
 11 24  1  0
 11 26  4  0
 12 25  1  0
 13 28  1  0
 14 20  4  0
 14 23  4  0
 15 17  4  0
 15 21  4  0
 16 19  4  0
 16 23  4  0
 17 22  4  0
 18 26  4  0
 19 24  4  0
 20 24  4  0
 22 27  4  0
 28 29  4  0
M  END
$$$$

 Created by Python create_sdf_string function

 29 33  0  0  0  0  0  0  0  0999 V2000
   10.7215   -3.3326   17.6437 C   0  0  0  0  0  0  0  0  0  0  0  0
    9.9489   -3.4675   24.6487 N   0  0  0  0  0  0  0  0  0  0  0  0
   10.0172   -4.4740   17.4101 C   0  0  0  0  0  0  0  0  0  0  0  0
    6.9051   -7.9575   16.4222 C   0  0  0  0  0  0  0  0  0  0  0  0
    8.9969   -6.3552   17.9668 N   0  0  0  0  0  0  0  0  0  0  0  0
   10.6702   -3.9051   22.4070 C   0  0  0  0  0  0  0  0  0  0  0  0
   11.0625   -3.0028   18.8894 C   0  0  0  0  0  0  0  0  0  0  0  0
    5.6180   -7.9194   16.1754 O   0  0  0  0  0  0  0  0  0  0  0  0
    9.7259   -5.3080   18.4485 C   0  0  0  0  0  0  0  0  0  0  0  0
    9.4578   -5.0200   16.3036 N   0  0  0  0  0  0  0  0  0  0  0  0
    5.0287   -8.9365   16.8223 C   0  0  0  0  0  0  0  0  0  0  0  0
    8.7742   -6.1498   16.6764 C   0  0  0  0  0  0  0  0  0  0  0  0
   10.9418   -3.4032   21.2053 O   0  0  0  0  0  0  0  0  0  0  0  0
    1.4797   -8.6258   16.2950 C   0  0  0  0  0  0  0  0  0  0  0  0
    9.2861   -1.2743   25.3585 C   0  0  0  0  0  0  0  0  0  0  0  0
    1.8892  -10.3985   17.7511 N   0  0  0  0  0  0  0  0  0  0  0  0
    9.6210   -0.6952   24.0976 C   0  0  0  0  0  0  0  0  0  0  0  0
    7.0792   -9.0217   17.1429 C   0  0  0  0  0  0  0  0  0  0  0  0
    3.1713  -10.1816   17.6634 C   0  0  0  0  0  0  0  0  0  0  0  0
    2.7878   -8.3822   16.2137 C   0  0  0  0  0  0  0  0  0  0  0  0
    9.4601   -2.6590   25.6528 C   0  0  0  0  0  0  0  0  0  0  0  0
   10.1182   -1.5672   23.1165 C   0  0  0  0  0  0  0  0  0  0  0  0
    1.0552   -9.6360   17.0650 C   0  0  0  0  0  0  0  0  0  0  0  0
    3.6519   -9.1783   16.9039 C   0  0  0  0  0  0  0  0  0  0  0  0
    7.8675   -7.0096   15.9415 C   0  0  0  0  0  0  0  0  0  0  0  0
    5.9733   -9.6553   17.3832 N   0  0  0  0  0  0  0  0  0  0  0  0
   10.2411   -2.9363   23.4301 C   0  0  0  0  0  0  0  0  0  0  0  0
   10.7288   -3.8197   19.9525 C   0  0  0  0  0  0  0  0  0  0  0  0
   10.1189   -5.0054   19.6987 C   0  0  0  0  0  0  0  0  0  0  0  0
  1  3  4  0
  1  7  4  0
  2 21  4  0
  2 27  4  0
  3  9  4  0
  3 10  4  0
  4  8  4  0
  4 18  4  0
  4 25  1  0
  5  9  4  0
  5 12  4  0
  6 13  1  0
  6 27  1  0
  7 28  4  0
  8 11  4  0
  9 29  4  0
 10 12  4  0
 11 24  1  0
 11 26  4  0
 12 25  1  0
 13 28  1  0
 14 20  4  0
 14 23  4  0
 15 17  4  0
 15 21  4  0
 16 19  4  0
 16 23  4  0
 17 22  4  0
 18 26  4  0
 19 24  4  0
 20 24  4  0
 22 27  4  0
 28 29  4  0
M  END
$$$$

 Created by Python create_sdf_string function

 29 33  0  0  0  0  0  0  0  0999 V2000
   10.7215   -3.3326   17.6437 C   0  0  0  0  0  0  0  0  0  0  0  0
    9.9489   -3.4675   24.6487 N   0  0  0  0  0  0  0  0  0  0  0  0
   10.0172   -4.4740   17.4101 C   0  0  0  0  0  0  0  0  0  0  0  0
    6.9051   -7.9575   16.4222 C   0  0  0  0  0  0  0  0  0  0  0  0
    8.9969   -6.3552   17.9668 N   0  0  0  0  0  0  0  0  0  0  0  0
   10.6702   -3.9051   22.4070 C   0  0  0  0  0  0  0  0  0  0  0  0
   11.0625   -3.0028   18.8894 C   0  0  0  0  0  0  0  0  0  0  0  0
    5.6180   -7.9194   16.1754 O   0  0  0  0  0  0  0  0  0  0  0  0
    9.7259   -5.3080   18.4485 C   0  0  0  0  0  0  0  0  0  0  0  0
    9.4578   -5.0200   16.3036 N   0  0  0  0  0  0  0  0  0  0  0  0
    5.0287   -8.9365   16.8223 C   0  0  0  0  0  0  0  0  0  0  0  0
    8.7742   -6.1498   16.6764 C   0  0  0  0  0  0  0  0  0  0  0  0
   10.9418   -3.4032   21.2053 O   0  0  0  0  0  0  0  0  0  0  0  0
    1.4797   -8.6258   16.2950 C   0  0  0  0  0  0  0  0  0  0  0  0
    9.2861   -1.2743   25.3585 C   0  0  0  0  0  0  0  0  0  0  0  0
    1.8892  -10.3985   17.7511 N   0  0  0  0  0  0  0  0  0  0  0  0
    9.6210   -0.6952   24.0976 C   0  0  0  0  0  0  0  0  0  0  0  0
    7.0792   -9.0217   17.1429 C   0  0  0  0  0  0  0  0  0  0  0  0
    3.1713  -10.1816   17.6634 C   0  0  0  0  0  0  0  0  0  0  0  0
    2.7878   -8.3822   16.2137 C   0  0  0  0  0  0  0  0  0  0  0  0
    9.4601   -2.6590   25.6528 C   0  0  0  0  0  0  0  0  0  0  0  0
   10.1182   -1.5672   23.1165 C   0  0  0  0  0  0  0  0  0  0  0  0
    1.0552   -9.6360   17.0650 C   0  0  0  0  0  0  0  0  0  0  0  0
    3.6519   -9.1783   16.9039 C   0  0  0  0  0  0  0  0  0  0  0  0
    7.8675   -7.0096   15.9415 C   0  0  0  0  0  0  0  0  0  0  0  0
    5.9733   -9.6553   17.3832 N   0  0  0  0  0  0  0  0  0  0  0  0
   10.2411   -2.9363   23.4301 C   0  0  0  0  0  0  0  0  0  0  0  0
   10.7288   -3.8197   19.9525 C   0  0  0  0  0  0  0  0  0  0  0  0
   10.1189   -5.0054   19.6987 C   0  0  0  0  0  0  0  0  0  0  0  0
  1  3  4  0
  1  7  4  0
  2 21  4  0
  2 27  4  0
  3  9  4  0
  3 10  4  0
  4  8  4  0
  4 18  4  0
  4 25  1  0
  5  9  4  0
  5 12  4  0
  6 13  1  0
  6 27  1  0
  7 28  4  0
  8 11  4  0
  9 29  4  0
 10 12  4  0
 11 24  1  0
 11 26  4  0
 12 25  1  0
 13 28  1  0
 14 20  4  0
 14 23  4  0
 15 17  4  0
 15 21  4  0
 16 19  4  0
 16 23  4  0
 17 22  4  0
 18 26  4  0
 19 24  4  0
 20 24  4  0
 22 27  4  0
 28 29  4  0
M  END
$$$$

 Created by Python create_sdf_string function

 29 33  0  0  0  0  0  0  0  0999 V2000
   10.7215   -3.3326   17.6437 C   0  0  0  0  0  0  0  0  0  0  0  0
    9.9489   -3.4675   24.6487 N   0  0  0  0  0  0  0  0  0  0  0  0
   10.0172   -4.4740   17.4101 C   0  0  0  0  0  0  0  0  0  0  0  0
    6.9051   -7.9575   16.4222 C   0  0  0  0  0  0  0  0  0  0  0  0
    8.9969   -6.3552   17.9668 N   0  0  0  0  0  0  0  0  0  0  0  0
   10.6702   -3.9051   22.4070 C   0  0  0  0  0  0  0  0  0  0  0  0
   11.0625   -3.0028   18.8894 C   0  0  0  0  0  0  0  0  0  0  0  0
    5.6180   -7.9194   16.1754 O   0  0  0  0  0  0  0  0  0  0  0  0
    9.7259   -5.3080   18.4485 C   0  0  0  0  0  0  0  0  0  0  0  0
    9.4578   -5.0200   16.3036 N   0  0  0  0  0  0  0  0  0  0  0  0
    5.0287   -8.9365   16.8223 C   0  0  0  0  0  0  0  0  0  0  0  0
    8.7742   -6.1498   16.6764 C   0  0  0  0  0  0  0  0  0  0  0  0
   10.9418   -3.4032   21.2053 O   0  0  0  0  0  0  0  0  0  0  0  0
    1.4797   -8.6258   16.2950 C   0  0  0  0  0  0  0  0  0  0  0  0
    9.2861   -1.2743   25.3585 C   0  0  0  0  0  0  0  0  0  0  0  0
    1.8892  -10.3985   17.7511 N   0  0  0  0  0  0  0  0  0  0  0  0
    9.6210   -0.6952   24.0976 C   0  0  0  0  0  0  0  0  0  0  0  0
    7.0792   -9.0217   17.1429 C   0  0  0  0  0  0  0  0  0  0  0  0
    3.1713  -10.1816   17.6634 C   0  0  0  0  0  0  0  0  0  0  0  0
    2.7878   -8.3822   16.2137 C   0  0  0  0  0  0  0  0  0  0  0  0
    9.4601   -2.6590   25.6528 C   0  0  0  0  0  0  0  0  0  0  0  0
   10.1182   -1.5672   23.1165 C   0  0  0  0  0  0  0  0  0  0  0  0
    1.0552   -9.6360   17.0650 C   0  0  0  0  0  0  0  0  0  0  0  0
    3.6519   -9.1783   16.9039 C   0  0  0  0  0  0  0  0  0  0  0  0
    7.8675   -7.0096   15.9415 C   0  0  0  0  0  0  0  0  0  0  0  0
    5.9733   -9.6553   17.3832 N   0  0  0  0  0  0  0  0  0  0  0  0
   10.2411   -2.9363   23.4301 C   0  0  0  0  0  0  0  0  0  0  0  0
   10.7288   -3.8197   19.9525 C   0  0  0  0  0  0  0  0  0  0  0  0
   10.1189   -5.0054   19.6987 C   0  0  0  0  0  0  0  0  0  0  0  0
  1  3  4  0
  1  7  4  0
  2 21  4  0
  2 27  4  0
  3  9  4  0
  3 10  4  0
  4  8  4  0
  4 18  4  0
  4 25  1  0
  5  9  4  0
  5 12  4  0
  6 13  1  0
  6 27  1  0
  7 28  4  0
  8 11  4  0
  9 29  4  0
 10 12  4  0
 11 24  1  0
 11 26  4  0
 12 25  1  0
 13 28  1  0
 14 20  4  0
 14 23  4  0
 15 17  4  0
 15 21  4  0
 16 19  4  0
 16 23  4  0
 17 22  4  0
 18 26  4  0
 19 24  4  0
 20 24  4  0
 22 27  4  0
 28 29  4  0
M  END
$$$$

 Created by Python create_sdf_string function

 29 33  0  0  0  0  0  0  0  0999 V2000
   10.7215   -3.3326   17.6437 C   0  0  0  0  0  0  0  0  0  0  0  0
    9.9489   -3.4675   24.6487 N   0  0  0  0  0  0  0  0  0  0  0  0
   10.0172   -4.4740   17.4101 C   0  0  0  0  0  0  0  0  0  0  0  0
    6.9051   -7.9575   16.4222 C   0  0  0  0  0  0  0  0  0  0  0  0
    8.9969   -6.3552   17.9668 N   0  0  0  0  0  0  0  0  0  0  0  0
   10.6702   -3.9051   22.4070 C   0  0  0  0  0  0  0  0  0  0  0  0
   11.0625   -3.0028   18.8894 C   0  0  0  0  0  0  0  0  0  0  0  0
    5.6180   -7.9194   16.1754 O   0  0  0  0  0  0  0  0  0  0  0  0
    9.7259   -5.3080   18.4485 C   0  0  0  0  0  0  0  0  0  0  0  0
    9.4578   -5.0200   16.3036 N   0  0  0  0  0  0  0  0  0  0  0  0
    5.0287   -8.9365   16.8223 C   0  0  0  0  0  0  0  0  0  0  0  0
    8.7742   -6.1498   16.6764 C   0  0  0  0  0  0  0  0  0  0  0  0
   10.9418   -3.4032   21.2053 O   0  0  0  0  0  0  0  0  0  0  0  0
    1.4797   -8.6258   16.2950 C   0  0  0  0  0  0  0  0  0  0  0  0
    9.2861   -1.2743   25.3585 C   0  0  0  0  0  0  0  0  0  0  0  0
    1.8892  -10.3985   17.7511 N   0  0  0  0  0  0  0  0  0  0  0  0
    9.6210   -0.6952   24.0976 C   0  0  0  0  0  0  0  0  0  0  0  0
    7.0792   -9.0217   17.1429 C   0  0  0  0  0  0  0  0  0  0  0  0
    3.1713  -10.1816   17.6634 C   0  0  0  0  0  0  0  0  0  0  0  0
    2.7878   -8.3822   16.2137 C   0  0  0  0  0  0  0  0  0  0  0  0
    9.4601   -2.6590   25.6528 C   0  0  0  0  0  0  0  0  0  0  0  0
   10.1182   -1.5672   23.1165 C   0  0  0  0  0  0  0  0  0  0  0  0
    1.0552   -9.6360   17.0650 C   0  0  0  0  0  0  0  0  0  0  0  0
    3.6519   -9.1783   16.9039 C   0  0  0  0  0  0  0  0  0  0  0  0
    7.8675   -7.0096   15.9415 C   0  0  0  0  0  0  0  0  0  0  0  0
    5.9733   -9.6553   17.3832 N   0  0  0  0  0  0  0  0  0  0  0  0
   10.2411   -2.9363   23.4301 C   0  0  0  0  0  0  0  0  0  0  0  0
   10.7288   -3.8197   19.9525 C   0  0  0  0  0  0  0  0  0  0  0  0
   10.1189   -5.0054   19.6987 C   0  0  0  0  0  0  0  0  0  0  0  0
  1  3  4  0
  1  7  4  0
  2 21  4  0
  2 27  4  0
  3  9  4  0
  3 10  4  0
  4  8  4  0
  4 18  4  0
  4 25  1  0
  5  9  4  0
  5 12  4  0
  6 13  1  0
  6 27  1  0
  7 28  4  0
  8 11  4  0
  9 29  4  0
 10 12  4  0
 11 24  1  0
 11 26  4  0
 12 25  1  0
 13 28  1  0
 14 20  4  0
 14 23  4  0
 15 17  4  0
 15 21  4  0
 16 19  4  0
 16 23  4  0
 17 22  4  0
 18 26  4  0
 19 24  4  0
 20 24  4  0
 22 27  4  0
 28 29  4  0
M  END
$$$$

 Created by Python create_sdf_string function

 29 33  0  0  0  0  0  0  0  0999 V2000
   10.7215   -3.3326   17.6437 C   0  0  0  0  0  0  0  0  0  0  0  0
    9.9489   -3.4675   24.6487 N   0  0  0  0  0  0  0  0  0  0  0  0
   10.0172   -4.4740   17.4101 C   0  0  0  0  0  0  0  0  0  0  0  0
    6.9051   -7.9575   16.4222 C   0  0  0  0  0  0  0  0  0  0  0  0
    8.9969   -6.3552   17.9668 N   0  0  0  0  0  0  0  0  0  0  0  0
   10.6702   -3.9051   22.4070 C   0  0  0  0  0  0  0  0  0  0  0  0
   11.0625   -3.0028   18.8894 C   0  0  0  0  0  0  0  0  0  0  0  0
    5.6180   -7.9194   16.1754 O   0  0  0  0  0  0  0  0  0  0  0  0
    9.7259   -5.3080   18.4485 C   0  0  0  0  0  0  0  0  0  0  0  0
    9.4578   -5.0200   16.3036 N   0  0  0  0  0  0  0  0  0  0  0  0
    5.0287   -8.9365   16.8223 C   0  0  0  0  0  0  0  0  0  0  0  0
    8.7742   -6.1498   16.6764 C   0  0  0  0  0  0  0  0  0  0  0  0
   10.9418   -3.4032   21.2053 O   0  0  0  0  0  0  0  0  0  0  0  0
    1.4797   -8.6258   16.2950 C   0  0  0  0  0  0  0  0  0  0  0  0
    9.2861   -1.2743   25.3585 C   0  0  0  0  0  0  0  0  0  0  0  0
    1.8892  -10.3985   17.7511 N   0  0  0  0  0  0  0  0  0  0  0  0
    9.6210   -0.6952   24.0976 C   0  0  0  0  0  0  0  0  0  0  0  0
    7.0792   -9.0217   17.1429 C   0  0  0  0  0  0  0  0  0  0  0  0
    3.1713  -10.1816   17.6634 C   0  0  0  0  0  0  0  0  0  0  0  0
    2.7878   -8.3822   16.2137 C   0  0  0  0  0  0  0  0  0  0  0  0
    9.4601   -2.6590   25.6528 C   0  0  0  0  0  0  0  0  0  0  0  0
   10.1182   -1.5672   23.1165 C   0  0  0  0  0  0  0  0  0  0  0  0
    1.0552   -9.6360   17.0650 C   0  0  0  0  0  0  0  0  0  0  0  0
    3.6519   -9.1783   16.9039 C   0  0  0  0  0  0  0  0  0  0  0  0
    7.8675   -7.0096   15.9415 C   0  0  0  0  0  0  0  0  0  0  0  0
    5.9733   -9.6553   17.3832 N   0  0  0  0  0  0  0  0  0  0  0  0
   10.2411   -2.9363   23.4301 C   0  0  0  0  0  0  0  0  0  0  0  0
   10.7288   -3.8197   19.9525 C   0  0  0  0  0  0  0  0  0  0  0  0
   10.1189   -5.0054   19.6987 C   0  0  0  0  0  0  0  0  0  0  0  0
  1  3  4  0
  1  7  4  0
  2 21  4  0
  2 27  4  0
  3  9  4  0
  3 10  4  0
  4  8  4  0
  4 18  4  0
  4 25  1  0
  5  9  4  0
  5 12  4  0
  6 13  1  0
  6 27  1  0
  7 28  4  0
  8 11  4  0
  9 29  4  0
 10 12  4  0
 11 24  1  0
 11 26  4  0
 12 25  1  0
 13 28  1  0
 14 20  4  0
 14 23  4  0
 15 17  4  0
 15 21  4  0
 16 19  4  0
 16 23  4  0
 17 22  4  0
 18 26  4  0
 19 24  4  0
 20 24  4  0
 22 27  4  0
 28 29  4  0
M  END
$$$$

 Created by Python create_sdf_string function

 29 33  0  0  0  0  0  0  0  0999 V2000
   10.7215   -3.3326   17.6437 C   0  0  0  0  0  0  0  0  0  0  0  0
    9.9489   -3.4675   24.6487 N   0  0  0  0  0  0  0  0  0  0  0  0
   10.0172   -4.4740   17.4101 C   0  0  0  0  0  0  0  0  0  0  0  0
    6.9051   -7.9575   16.4222 C   0  0  0  0  0  0  0  0  0  0  0  0
    8.9969   -6.3552   17.9668 N   0  0  0  0  0  0  0  0  0  0  0  0
   10.6702   -3.9051   22.4070 C   0  0  0  0  0  0  0  0  0  0  0  0
   11.0625   -3.0028   18.8894 C   0  0  0  0  0  0  0  0  0  0  0  0
    5.6180   -7.9194   16.1754 O   0  0  0  0  0  0  0  0  0  0  0  0
    9.7259   -5.3080   18.4485 C   0  0  0  0  0  0  0  0  0  0  0  0
    9.4578   -5.0200   16.3036 N   0  0  0  0  0  0  0  0  0  0  0  0
    5.0287   -8.9365   16.8223 C   0  0  0  0  0  0  0  0  0  0  0  0
    8.7742   -6.1498   16.6764 C   0  0  0  0  0  0  0  0  0  0  0  0
   10.9418   -3.4032   21.2053 O   0  0  0  0  0  0  0  0  0  0  0  0
    1.4797   -8.6258   16.2950 C   0  0  0  0  0  0  0  0  0  0  0  0
    9.2861   -1.2743   25.3585 C   0  0  0  0  0  0  0  0  0  0  0  0
    1.8892  -10.3985   17.7511 N   0  0  0  0  0  0  0  0  0  0  0  0
    9.6210   -0.6952   24.0976 C   0  0  0  0  0  0  0  0  0  0  0  0
    7.0792   -9.0217   17.1429 C   0  0  0  0  0  0  0  0  0  0  0  0
    3.1713  -10.1816   17.6634 C   0  0  0  0  0  0  0  0  0  0  0  0
    2.7878   -8.3822   16.2137 C   0  0  0  0  0  0  0  0  0  0  0  0
    9.4601   -2.6590   25.6528 C   0  0  0  0  0  0  0  0  0  0  0  0
   10.1182   -1.5672   23.1165 C   0  0  0  0  0  0  0  0  0  0  0  0
    1.0552   -9.6360   17.0650 C   0  0  0  0  0  0  0  0  0  0  0  0
    3.6519   -9.1783   16.9039 C   0  0  0  0  0  0  0  0  0  0  0  0
    7.8675   -7.0096   15.9415 C   0  0  0  0  0  0  0  0  0  0  0  0
    5.9733   -9.6553   17.3832 N   0  0  0  0  0  0  0  0  0  0  0  0
   10.2411   -2.9363   23.4301 C   0  0  0  0  0  0  0  0  0  0  0  0
   10.7288   -3.8197   19.9525 C   0  0  0  0  0  0  0  0  0  0  0  0
   10.1189   -5.0054   19.6987 C   0  0  0  0  0  0  0  0  0  0  0  0
  1  3  4  0
  1  7  4  0
  2 21  4  0
  2 27  4  0
  3  9  4  0
  3 10  4  0
  4  8  4  0
  4 18  4  0
  4 25  1  0
  5  9  4  0
  5 12  4  0
  6 13  1  0
  6 27  1  0
  7 28  4  0
  8 11  4  0
  9 29  4  0
 10 12  4  0
 11 24  1  0
 11 26  4  0
 12 25  1  0
 13 28  1  0
 14 20  4  0
 14 23  4  0
 15 17  4  0
 15 21  4  0
 16 19  4  0
 16 23  4  0
 17 22  4  0
 18 26  4  0
 19 24  4  0
 20 24  4  0
 22 27  4  0
 28 29  4  0
M  END
$$$$

 Created by Python create_sdf_string function

 29 33  0  0  0  0  0  0  0  0999 V2000
   10.7215   -3.3326   17.6437 C   0  0  0  0  0  0  0  0  0  0  0  0
    9.9489   -3.4675   24.6487 N   0  0  0  0  0  0  0  0  0  0  0  0
   10.0172   -4.4740   17.4101 C   0  0  0  0  0  0  0  0  0  0  0  0
    6.9051   -7.9575   16.4222 C   0  0  0  0  0  0  0  0  0  0  0  0
    8.9969   -6.3552   17.9668 N   0  0  0  0  0  0  0  0  0  0  0  0
   10.6702   -3.9051   22.4070 C   0  0  0  0  0  0  0  0  0  0  0  0
   11.0625   -3.0028   18.8894 C   0  0  0  0  0  0  0  0  0  0  0  0
    5.6180   -7.9194   16.1754 O   0  0  0  0  0  0  0  0  0  0  0  0
    9.7259   -5.3080   18.4485 C   0  0  0  0  0  0  0  0  0  0  0  0
    9.4578   -5.0200   16.3036 N   0  0  0  0  0  0  0  0  0  0  0  0
    5.0287   -8.9365   16.8223 C   0  0  0  0  0  0  0  0  0  0  0  0
    8.7742   -6.1498   16.6764 C   0  0  0  0  0  0  0  0  0  0  0  0
   10.9418   -3.4032   21.2053 O   0  0  0  0  0  0  0  0  0  0  0  0
    1.4797   -8.6258   16.2950 C   0  0  0  0  0  0  0  0  0  0  0  0
    9.2861   -1.2743   25.3585 C   0  0  0  0  0  0  0  0  0  0  0  0
    1.8892  -10.3985   17.7511 N   0  0  0  0  0  0  0  0  0  0  0  0
    9.6210   -0.6952   24.0976 C   0  0  0  0  0  0  0  0  0  0  0  0
    7.0792   -9.0217   17.1429 C   0  0  0  0  0  0  0  0  0  0  0  0
    3.1713  -10.1816   17.6634 C   0  0  0  0  0  0  0  0  0  0  0  0
    2.7878   -8.3822   16.2137 C   0  0  0  0  0  0  0  0  0  0  0  0
    9.4601   -2.6590   25.6528 C   0  0  0  0  0  0  0  0  0  0  0  0
   10.1182   -1.5672   23.1165 C   0  0  0  0  0  0  0  0  0  0  0  0
    1.0552   -9.6360   17.0650 C   0  0  0  0  0  0  0  0  0  0  0  0
    3.6519   -9.1783   16.9039 C   0  0  0  0  0  0  0  0  0  0  0  0
    7.8675   -7.0096   15.9415 C   0  0  0  0  0  0  0  0  0  0  0  0
    5.9733   -9.6553   17.3832 N   0  0  0  0  0  0  0  0  0  0  0  0
   10.2411   -2.9363   23.4301 C   0  0  0  0  0  0  0  0  0  0  0  0
   10.7288   -3.8197   19.9525 C   0  0  0  0  0  0  0  0  0  0  0  0
   10.1189   -5.0054   19.6987 C   0  0  0  0  0  0  0  0  0  0  0  0
  1  3  4  0
  1  7  4  0
  2 21  4  0
  2 27  4  0
  3  9  4  0
  3 10  4  0
  4  8  4  0
  4 18  4  0
  4 25  1  0
  5  9  4  0
  5 12  4  0
  6 13  1  0
  6 27  1  0
  7 28  4  0
  8 11  4  0
  9 29  4  0
 10 12  4  0
 11 24  1  0
 11 26  4  0
 12 25  1  0
 13 28  1  0
 14 20  4  0
 14 23  4  0
 15 17  4  0
 15 21  4  0
 16 19  4  0
 16 23  4  0
 17 22  4  0
 18 26  4  0
 19 24  4  0
 20 24  4  0
 22 27  4  0
 28 29  4  0
M  END
$$$$

 Created by Python create_sdf_string function

 29 33  0  0  0  0  0  0  0  0999 V2000
   10.7215   -3.3326   17.6437 C   0  0  0  0  0  0  0  0  0  0  0  0
    9.9489   -3.4675   24.6487 N   0  0  0  0  0  0  0  0  0  0  0  0
   10.0172   -4.4740   17.4101 C   0  0  0  0  0  0  0  0  0  0  0  0
    6.9051   -7.9575   16.4222 C   0  0  0  0  0  0  0  0  0  0  0  0
    8.9969   -6.3552   17.9668 N   0  0  0  0  0  0  0  0  0  0  0  0
   10.6702   -3.9051   22.4070 C   0  0  0  0  0  0  0  0  0  0  0  0
   11.0625   -3.0028   18.8894 C   0  0  0  0  0  0  0  0  0  0  0  0
    5.6180   -7.9194   16.1754 O   0  0  0  0  0  0  0  0  0  0  0  0
    9.7259   -5.3080   18.4485 C   0  0  0  0  0  0  0  0  0  0  0  0
    9.4578   -5.0200   16.3036 N   0  0  0  0  0  0  0  0  0  0  0  0
    5.0287   -8.9365   16.8223 C   0  0  0  0  0  0  0  0  0  0  0  0
    8.7742   -6.1498   16.6764 C   0  0  0  0  0  0  0  0  0  0  0  0
   10.9418   -3.4032   21.2053 O   0  0  0  0  0  0  0  0  0  0  0  0
    1.4797   -8.6258   16.2950 C   0  0  0  0  0  0  0  0  0  0  0  0
    9.2861   -1.2743   25.3585 C   0  0  0  0  0  0  0  0  0  0  0  0
    1.8892  -10.3985   17.7511 N   0  0  0  0  0  0  0  0  0  0  0  0
    9.6210   -0.6952   24.0976 C   0  0  0  0  0  0  0  0  0  0  0  0
    7.0792   -9.0217   17.1429 C   0  0  0  0  0  0  0  0  0  0  0  0
    3.1713  -10.1816   17.6634 C   0  0  0  0  0  0  0  0  0  0  0  0
    2.7878   -8.3822   16.2137 C   0  0  0  0  0  0  0  0  0  0  0  0
    9.4601   -2.6590   25.6528 C   0  0  0  0  0  0  0  0  0  0  0  0
   10.1182   -1.5672   23.1165 C   0  0  0  0  0  0  0  0  0  0  0  0
    1.0552   -9.6360   17.0650 C   0  0  0  0  0  0  0  0  0  0  0  0
    3.6519   -9.1783   16.9039 C   0  0  0  0  0  0  0  0  0  0  0  0
    7.8675   -7.0096   15.9415 C   0  0  0  0  0  0  0  0  0  0  0  0
    5.9733   -9.6553   17.3832 N   0  0  0  0  0  0  0  0  0  0  0  0
   10.2411   -2.9363   23.4301 C   0  0  0  0  0  0  0  0  0  0  0  0
   10.7288   -3.8197   19.9525 C   0  0  0  0  0  0  0  0  0  0  0  0
   10.1189   -5.0054   19.6987 C   0  0  0  0  0  0  0  0  0  0  0  0
  1  3  4  0
  1  7  4  0
  2 21  4  0
  2 27  4  0
  3  9  4  0
  3 10  4  0
  4  8  4  0
  4 18  4  0
  4 25  1  0
  5  9  4  0
  5 12  4  0
  6 13  1  0
  6 27  1  0
  7 28  4  0
  8 11  4  0
  9 29  4  0
 10 12  4  0
 11 24  1  0
 11 26  4  0
 12 25  1  0
 13 28  1  0
 14 20  4  0
 14 23  4  0
 15 17  4  0
 15 21  4  0
 16 19  4  0
 16 23  4  0
 17 22  4  0
 18 26  4  0
 19 24  4  0
 20 24  4  0
 22 27  4  0
 28 29  4  0
M  END
$$$$

 Created by Python create_sdf_string function

 29 33  0  0  0  0  0  0  0  0999 V2000
   10.7215   -3.3326   17.6437 C   0  0  0  0  0  0  0  0  0  0  0  0
    9.9489   -3.4675   24.6487 N   0  0  0  0  0  0  0  0  0  0  0  0
   10.0172   -4.4740   17.4101 C   0  0  0  0  0  0  0  0  0  0  0  0
    6.9051   -7.9575   16.4222 C   0  0  0  0  0  0  0  0  0  0  0  0
    8.9969   -6.3552   17.9668 N   0  0  0  0  0  0  0  0  0  0  0  0
   10.6702   -3.9051   22.4070 C   0  0  0  0  0  0  0  0  0  0  0  0
   11.0625   -3.0028   18.8894 C   0  0  0  0  0  0  0  0  0  0  0  0
    5.6180   -7.9194   16.1754 O   0  0  0  0  0  0  0  0  0  0  0  0
    9.7259   -5.3080   18.4485 C   0  0  0  0  0  0  0  0  0  0  0  0
    9.4578   -5.0200   16.3036 N   0  0  0  0  0  0  0  0  0  0  0  0
    5.0287   -8.9365   16.8223 C   0  0  0  0  0  0  0  0  0  0  0  0
    8.7742   -6.1498   16.6764 C   0  0  0  0  0  0  0  0  0  0  0  0
   10.9418   -3.4032   21.2053 O   0  0  0  0  0  0  0  0  0  0  0  0
    1.4797   -8.6258   16.2950 C   0  0  0  0  0  0  0  0  0  0  0  0
    9.2861   -1.2743   25.3585 C   0  0  0  0  0  0  0  0  0  0  0  0
    1.8892  -10.3985   17.7511 N   0  0  0  0  0  0  0  0  0  0  0  0
    9.6210   -0.6952   24.0976 C   0  0  0  0  0  0  0  0  0  0  0  0
    7.0792   -9.0217   17.1429 C   0  0  0  0  0  0  0  0  0  0  0  0
    3.1713  -10.1816   17.6634 C   0  0  0  0  0  0  0  0  0  0  0  0
    2.7878   -8.3822   16.2137 C   0  0  0  0  0  0  0  0  0  0  0  0
    9.4601   -2.6590   25.6528 C   0  0  0  0  0  0  0  0  0  0  0  0
   10.1182   -1.5672   23.1165 C   0  0  0  0  0  0  0  0  0  0  0  0
    1.0552   -9.6360   17.0650 C   0  0  0  0  0  0  0  0  0  0  0  0
    3.6519   -9.1783   16.9039 C   0  0  0  0  0  0  0  0  0  0  0  0
    7.8675   -7.0096   15.9415 C   0  0  0  0  0  0  0  0  0  0  0  0
    5.9733   -9.6553   17.3832 N   0  0  0  0  0  0  0  0  0  0  0  0
   10.2411   -2.9363   23.4301 C   0  0  0  0  0  0  0  0  0  0  0  0
   10.7288   -3.8197   19.9525 C   0  0  0  0  0  0  0  0  0  0  0  0
   10.1189   -5.0054   19.6987 C   0  0  0  0  0  0  0  0  0  0  0  0
  1  3  4  0
  1  7  4  0
  2 21  4  0
  2 27  4  0
  3  9  4  0
  3 10  4  0
  4  8  4  0
  4 18  4  0
  4 25  1  0
  5  9  4  0
  5 12  4  0
  6 13  1  0
  6 27  1  0
  7 28  4  0
  8 11  4  0
  9 29  4  0
 10 12  4  0
 11 24  1  0
 11 26  4  0
 12 25  1  0
 13 28  1  0
 14 20  4  0
 14 23  4  0
 15 17  4  0
 15 21  4  0
 16 19  4  0
 16 23  4  0
 17 22  4  0
 18 26  4  0
 19 24  4  0
 20 24  4  0
 22 27  4  0
 28 29  4  0
M  END
$$$$

 Created by Python create_sdf_string function

 29 33  0  0  0  0  0  0  0  0999 V2000
   10.7215   -3.3326   17.6437 C   0  0  0  0  0  0  0  0  0  0  0  0
    9.9489   -3.4675   24.6487 N   0  0  0  0  0  0  0  0  0  0  0  0
   10.0172   -4.4740   17.4101 C   0  0  0  0  0  0  0  0  0  0  0  0
    6.9051   -7.9575   16.4222 C   0  0  0  0  0  0  0  0  0  0  0  0
    8.9969   -6.3552   17.9668 N   0  0  0  0  0  0  0  0  0  0  0  0
   10.6702   -3.9051   22.4070 C   0  0  0  0  0  0  0  0  0  0  0  0
   11.0625   -3.0028   18.8894 C   0  0  0  0  0  0  0  0  0  0  0  0
    5.6180   -7.9194   16.1754 O   0  0  0  0  0  0  0  0  0  0  0  0
    9.7259   -5.3080   18.4485 C   0  0  0  0  0  0  0  0  0  0  0  0
    9.4578   -5.0200   16.3036 N   0  0  0  0  0  0  0  0  0  0  0  0
    5.0287   -8.9365   16.8223 C   0  0  0  0  0  0  0  0  0  0  0  0
    8.7742   -6.1498   16.6764 C   0  0  0  0  0  0  0  0  0  0  0  0
   10.9418   -3.4032   21.2053 O   0  0  0  0  0  0  0  0  0  0  0  0
    1.4797   -8.6258   16.2950 C   0  0  0  0  0  0  0  0  0  0  0  0
    9.2861   -1.2743   25.3585 C   0  0  0  0  0  0  0  0  0  0  0  0
    1.8892  -10.3985   17.7511 N   0  0  0  0  0  0  0  0  0  0  0  0
    9.6210   -0.6952   24.0976 C   0  0  0  0  0  0  0  0  0  0  0  0
    7.0792   -9.0217   17.1429 C   0  0  0  0  0  0  0  0  0  0  0  0
    3.1713  -10.1816   17.6634 C   0  0  0  0  0  0  0  0  0  0  0  0
    2.7878   -8.3822   16.2137 C   0  0  0  0  0  0  0  0  0  0  0  0
    9.4601   -2.6590   25.6528 C   0  0  0  0  0  0  0  0  0  0  0  0
   10.1182   -1.5672   23.1165 C   0  0  0  0  0  0  0  0  0  0  0  0
    1.0552   -9.6360   17.0650 C   0  0  0  0  0  0  0  0  0  0  0  0
    3.6519   -9.1783   16.9039 C   0  0  0  0  0  0  0  0  0  0  0  0
    7.8675   -7.0096   15.9415 C   0  0  0  0  0  0  0  0  0  0  0  0
    5.9733   -9.6553   17.3832 N   0  0  0  0  0  0  0  0  0  0  0  0
   10.2411   -2.9363   23.4301 C   0  0  0  0  0  0  0  0  0  0  0  0
   10.7288   -3.8197   19.9525 C   0  0  0  0  0  0  0  0  0  0  0  0
   10.1189   -5.0054   19.6987 C   0  0  0  0  0  0  0  0  0  0  0  0
  1  3  4  0
  1  7  4  0
  2 21  4  0
  2 27  4  0
  3  9  4  0
  3 10  4  0
  4  8  4  0
  4 18  4  0
  4 25  1  0
  5  9  4  0
  5 12  4  0
  6 13  1  0
  6 27  1  0
  7 28  4  0
  8 11  4  0
  9 29  4  0
 10 12  4  0
 11 24  1  0
 11 26  4  0
 12 25  1  0
 13 28  1  0
 14 20  4  0
 14 23  4  0
 15 17  4  0
 15 21  4  0
 16 19  4  0
 16 23  4  0
 17 22  4  0
 18 26  4  0
 19 24  4  0
 20 24  4  0
 22 27  4  0
 28 29  4  0
M  END
$$$$

 Created by Python create_sdf_string function

 29 33  0  0  0  0  0  0  0  0999 V2000
   10.7215   -3.3326   17.6437 C   0  0  0  0  0  0  0  0  0  0  0  0
    9.9489   -3.4675   24.6487 N   0  0  0  0  0  0  0  0  0  0  0  0
   10.0172   -4.4740   17.4101 C   0  0  0  0  0  0  0  0  0  0  0  0
    6.9051   -7.9575   16.4222 C   0  0  0  0  0  0  0  0  0  0  0  0
    8.9969   -6.3552   17.9668 N   0  0  0  0  0  0  0  0  0  0  0  0
   10.6702   -3.9051   22.4070 C   0  0  0  0  0  0  0  0  0  0  0  0
   11.0625   -3.0028   18.8894 C   0  0  0  0  0  0  0  0  0  0  0  0
    5.6180   -7.9194   16.1754 O   0  0  0  0  0  0  0  0  0  0  0  0
    9.7259   -5.3080   18.4485 C   0  0  0  0  0  0  0  0  0  0  0  0
    9.4578   -5.0200   16.3036 N   0  0  0  0  0  0  0  0  0  0  0  0
    5.0287   -8.9365   16.8223 C   0  0  0  0  0  0  0  0  0  0  0  0
    8.7742   -6.1498   16.6764 C   0  0  0  0  0  0  0  0  0  0  0  0
   10.9418   -3.4032   21.2053 O   0  0  0  0  0  0  0  0  0  0  0  0
    1.4797   -8.6258   16.2950 C   0  0  0  0  0  0  0  0  0  0  0  0
    9.2861   -1.2743   25.3585 C   0  0  0  0  0  0  0  0  0  0  0  0
    1.8892  -10.3985   17.7511 N   0  0  0  0  0  0  0  0  0  0  0  0
    9.6210   -0.6952   24.0976 C   0  0  0  0  0  0  0  0  0  0  0  0
    7.0792   -9.0217   17.1429 C   0  0  0  0  0  0  0  0  0  0  0  0
    3.1713  -10.1816   17.6634 C   0  0  0  0  0  0  0  0  0  0  0  0
    2.7878   -8.3822   16.2137 C   0  0  0  0  0  0  0  0  0  0  0  0
    9.4601   -2.6590   25.6528 C   0  0  0  0  0  0  0  0  0  0  0  0
   10.1182   -1.5672   23.1165 C   0  0  0  0  0  0  0  0  0  0  0  0
    1.0552   -9.6360   17.0650 C   0  0  0  0  0  0  0  0  0  0  0  0
    3.6519   -9.1783   16.9039 C   0  0  0  0  0  0  0  0  0  0  0  0
    7.8675   -7.0096   15.9415 C   0  0  0  0  0  0  0  0  0  0  0  0
    5.9733   -9.6553   17.3832 N   0  0  0  0  0  0  0  0  0  0  0  0
   10.2411   -2.9363   23.4301 C   0  0  0  0  0  0  0  0  0  0  0  0
   10.7288   -3.8197   19.9525 C   0  0  0  0  0  0  0  0  0  0  0  0
   10.1189   -5.0054   19.6987 C   0  0  0  0  0  0  0  0  0  0  0  0
  1  3  4  0
  1  7  4  0
  2 21  4  0
  2 27  4  0
  3  9  4  0
  3 10  4  0
  4  8  4  0
  4 18  4  0
  4 25  1  0
  5  9  4  0
  5 12  4  0
  6 13  1  0
  6 27  1  0
  7 28  4  0
  8 11  4  0
  9 29  4  0
 10 12  4  0
 11 24  1  0
 11 26  4  0
 12 25  1  0
 13 28  1  0
 14 20  4  0
 14 23  4  0
 15 17  4  0
 15 21  4  0
 16 19  4  0
 16 23  4  0
 17 22  4  0
 18 26  4  0
 19 24  4  0
 20 24  4  0
 22 27  4  0
 28 29  4  0
M  END
$$$$

 Created by Python create_sdf_string function

 29 33  0  0  0  0  0  0  0  0999 V2000
   10.7215   -3.3326   17.6437 C   0  0  0  0  0  0  0  0  0  0  0  0
    9.9489   -3.4675   24.6487 N   0  0  0  0  0  0  0  0  0  0  0  0
   10.0172   -4.4740   17.4101 C   0  0  0  0  0  0  0  0  0  0  0  0
    6.9051   -7.9575   16.4222 C   0  0  0  0  0  0  0  0  0  0  0  0
    8.9969   -6.3552   17.9668 N   0  0  0  0  0  0  0  0  0  0  0  0
   10.6702   -3.9051   22.4070 C   0  0  0  0  0  0  0  0  0  0  0  0
   11.0625   -3.0028   18.8894 C   0  0  0  0  0  0  0  0  0  0  0  0
    5.6180   -7.9194   16.1754 O   0  0  0  0  0  0  0  0  0  0  0  0
    9.7259   -5.3080   18.4485 C   0  0  0  0  0  0  0  0  0  0  0  0
    9.4578   -5.0200   16.3036 N   0  0  0  0  0  0  0  0  0  0  0  0
    5.0287   -8.9365   16.8223 C   0  0  0  0  0  0  0  0  0  0  0  0
    8.7742   -6.1498   16.6764 C   0  0  0  0  0  0  0  0  0  0  0  0
   10.9418   -3.4032   21.2053 O   0  0  0  0  0  0  0  0  0  0  0  0
    1.4797   -8.6258   16.2950 C   0  0  0  0  0  0  0  0  0  0  0  0
    9.2861   -1.2743   25.3585 C   0  0  0  0  0  0  0  0  0  0  0  0
    1.8892  -10.3985   17.7511 N   0  0  0  0  0  0  0  0  0  0  0  0
    9.6210   -0.6952   24.0976 C   0  0  0  0  0  0  0  0  0  0  0  0
    7.0792   -9.0217   17.1429 C   0  0  0  0  0  0  0  0  0  0  0  0
    3.1713  -10.1816   17.6634 C   0  0  0  0  0  0  0  0  0  0  0  0
    2.7878   -8.3822   16.2137 C   0  0  0  0  0  0  0  0  0  0  0  0
    9.4601   -2.6590   25.6528 C   0  0  0  0  0  0  0  0  0  0  0  0
   10.1182   -1.5672   23.1165 C   0  0  0  0  0  0  0  0  0  0  0  0
    1.0552   -9.6360   17.0650 C   0  0  0  0  0  0  0  0  0  0  0  0
    3.6519   -9.1783   16.9039 C   0  0  0  0  0  0  0  0  0  0  0  0
    7.8675   -7.0096   15.9415 C   0  0  0  0  0  0  0  0  0  0  0  0
    5.9733   -9.6553   17.3832 N   0  0  0  0  0  0  0  0  0  0  0  0
   10.2411   -2.9363   23.4301 C   0  0  0  0  0  0  0  0  0  0  0  0
   10.7288   -3.8197   19.9525 C   0  0  0  0  0  0  0  0  0  0  0  0
   10.1189   -5.0054   19.6987 C   0  0  0  0  0  0  0  0  0  0  0  0
  1  3  4  0
  1  7  4  0
  2 21  4  0
  2 27  4  0
  3  9  4  0
  3 10  4  0
  4  8  4  0
  4 18  4  0
  4 25  1  0
  5  9  4  0
  5 12  4  0
  6 13  1  0
  6 27  1  0
  7 28  4  0
  8 11  4  0
  9 29  4  0
 10 12  4  0
 11 24  1  0
 11 26  4  0
 12 25  1  0
 13 28  1  0
 14 20  4  0
 14 23  4  0
 15 17  4  0
 15 21  4  0
 16 19  4  0
 16 23  4  0
 17 22  4  0
 18 26  4  0
 19 24  4  0
 20 24  4  0
 22 27  4  0
 28 29  4  0
M  END
$$$$

 Created by Python create_sdf_string function

 29 33  0  0  0  0  0  0  0  0999 V2000
   10.7215   -3.3326   17.6437 C   0  0  0  0  0  0  0  0  0  0  0  0
    9.9489   -3.4675   24.6487 N   0  0  0  0  0  0  0  0  0  0  0  0
   10.0172   -4.4740   17.4101 C   0  0  0  0  0  0  0  0  0  0  0  0
    6.9051   -7.9575   16.4222 C   0  0  0  0  0  0  0  0  0  0  0  0
    8.9969   -6.3552   17.9668 N   0  0  0  0  0  0  0  0  0  0  0  0
   10.6702   -3.9051   22.4070 C   0  0  0  0  0  0  0  0  0  0  0  0
   11.0625   -3.0028   18.8894 C   0  0  0  0  0  0  0  0  0  0  0  0
    5.6180   -7.9194   16.1754 O   0  0  0  0  0  0  0  0  0  0  0  0
    9.7259   -5.3080   18.4485 C   0  0  0  0  0  0  0  0  0  0  0  0
    9.4578   -5.0200   16.3036 N   0  0  0  0  0  0  0  0  0  0  0  0
    5.0287   -8.9365   16.8223 C   0  0  0  0  0  0  0  0  0  0  0  0
    8.7742   -6.1498   16.6764 C   0  0  0  0  0  0  0  0  0  0  0  0
   10.9418   -3.4032   21.2053 O   0  0  0  0  0  0  0  0  0  0  0  0
    1.4797   -8.6258   16.2950 C   0  0  0  0  0  0  0  0  0  0  0  0
    9.2861   -1.2743   25.3585 C   0  0  0  0  0  0  0  0  0  0  0  0
    1.8892  -10.3985   17.7511 N   0  0  0  0  0  0  0  0  0  0  0  0
    9.6210   -0.6952   24.0976 C   0  0  0  0  0  0  0  0  0  0  0  0
    7.0792   -9.0217   17.1429 C   0  0  0  0  0  0  0  0  0  0  0  0
    3.1713  -10.1816   17.6634 C   0  0  0  0  0  0  0  0  0  0  0  0
    2.7878   -8.3822   16.2137 C   0  0  0  0  0  0  0  0  0  0  0  0
    9.4601   -2.6590   25.6528 C   0  0  0  0  0  0  0  0  0  0  0  0
   10.1182   -1.5672   23.1165 C   0  0  0  0  0  0  0  0  0  0  0  0
    1.0552   -9.6360   17.0650 C   0  0  0  0  0  0  0  0  0  0  0  0
    3.6519   -9.1783   16.9039 C   0  0  0  0  0  0  0  0  0  0  0  0
    7.8675   -7.0096   15.9415 C   0  0  0  0  0  0  0  0  0  0  0  0
    5.9733   -9.6553   17.3832 N   0  0  0  0  0  0  0  0  0  0  0  0
   10.2411   -2.9363   23.4301 C   0  0  0  0  0  0  0  0  0  0  0  0
   10.7288   -3.8197   19.9525 C   0  0  0  0  0  0  0  0  0  0  0  0
   10.1189   -5.0054   19.6987 C   0  0  0  0  0  0  0  0  0  0  0  0
  1  3  4  0
  1  7  4  0
  2 21  4  0
  2 27  4  0
  3  9  4  0
  3 10  4  0
  4  8  4  0
  4 18  4  0
  4 25  1  0
  5  9  4  0
  5 12  4  0
  6 13  1  0
  6 27  1  0
  7 28  4  0
  8 11  4  0
  9 29  4  0
 10 12  4  0
 11 24  1  0
 11 26  4  0
 12 25  1  0
 13 28  1  0
 14 20  4  0
 14 23  4  0
 15 17  4  0
 15 21  4  0
 16 19  4  0
 16 23  4  0
 17 22  4  0
 18 26  4  0
 19 24  4  0
 20 24  4  0
 22 27  4  0
 28 29  4  0
M  END
$$$$

 Created by Python create_sdf_string function

 29 33  0  0  0  0  0  0  0  0999 V2000
   10.7215   -3.3326   17.6437 C   0  0  0  0  0  0  0  0  0  0  0  0
    9.9489   -3.4675   24.6487 N   0  0  0  0  0  0  0  0  0  0  0  0
   10.0172   -4.4740   17.4101 C   0  0  0  0  0  0  0  0  0  0  0  0
    6.9051   -7.9575   16.4222 C   0  0  0  0  0  0  0  0  0  0  0  0
    8.9969   -6.3552   17.9668 N   0  0  0  0  0  0  0  0  0  0  0  0
   10.6702   -3.9051   22.4070 C   0  0  0  0  0  0  0  0  0  0  0  0
   11.0625   -3.0028   18.8894 C   0  0  0  0  0  0  0  0  0  0  0  0
    5.6180   -7.9194   16.1754 O   0  0  0  0  0  0  0  0  0  0  0  0
    9.7259   -5.3080   18.4485 C   0  0  0  0  0  0  0  0  0  0  0  0
    9.4578   -5.0200   16.3036 N   0  0  0  0  0  0  0  0  0  0  0  0
    5.0287   -8.9365   16.8223 C   0  0  0  0  0  0  0  0  0  0  0  0
    8.7742   -6.1498   16.6764 C   0  0  0  0  0  0  0  0  0  0  0  0
   10.9418   -3.4032   21.2053 O   0  0  0  0  0  0  0  0  0  0  0  0
    1.4797   -8.6258   16.2950 C   0  0  0  0  0  0  0  0  0  0  0  0
    9.2861   -1.2743   25.3585 C   0  0  0  0  0  0  0  0  0  0  0  0
    1.8892  -10.3985   17.7511 N   0  0  0  0  0  0  0  0  0  0  0  0
    9.6210   -0.6952   24.0976 C   0  0  0  0  0  0  0  0  0  0  0  0
    7.0792   -9.0217   17.1429 C   0  0  0  0  0  0  0  0  0  0  0  0
    3.1713  -10.1816   17.6634 C   0  0  0  0  0  0  0  0  0  0  0  0
    2.7878   -8.3822   16.2137 C   0  0  0  0  0  0  0  0  0  0  0  0
    9.4601   -2.6590   25.6528 C   0  0  0  0  0  0  0  0  0  0  0  0
   10.1182   -1.5672   23.1165 C   0  0  0  0  0  0  0  0  0  0  0  0
    1.0552   -9.6360   17.0650 C   0  0  0  0  0  0  0  0  0  0  0  0
    3.6519   -9.1783   16.9039 C   0  0  0  0  0  0  0  0  0  0  0  0
    7.8675   -7.0096   15.9415 C   0  0  0  0  0  0  0  0  0  0  0  0
    5.9733   -9.6553   17.3832 N   0  0  0  0  0  0  0  0  0  0  0  0
   10.2411   -2.9363   23.4301 C   0  0  0  0  0  0  0  0  0  0  0  0
   10.7288   -3.8197   19.9525 C   0  0  0  0  0  0  0  0  0  0  0  0
   10.1189   -5.0054   19.6987 C   0  0  0  0  0  0  0  0  0  0  0  0
  1  3  4  0
  1  7  4  0
  2 21  4  0
  2 27  4  0
  3  9  4  0
  3 10  4  0
  4  8  4  0
  4 18  4  0
  4 25  1  0
  5  9  4  0
  5 12  4  0
  6 13  1  0
  6 27  1  0
  7 28  4  0
  8 11  4  0
  9 29  4  0
 10 12  4  0
 11 24  1  0
 11 26  4  0
 12 25  1  0
 13 28  1  0
 14 20  4  0
 14 23  4  0
 15 17  4  0
 15 21  4  0
 16 19  4  0
 16 23  4  0
 17 22  4  0
 18 26  4  0
 19 24  4  0
 20 24  4  0
 22 27  4  0
 28 29  4  0
M  END
$$$$

 Created by Python create_sdf_string function

 29 33  0  0  0  0  0  0  0  0999 V2000
   10.7215   -3.3326   17.6437 C   0  0  0  0  0  0  0  0  0  0  0  0
    9.9489   -3.4675   24.6487 N   0  0  0  0  0  0  0  0  0  0  0  0
   10.0172   -4.4740   17.4101 C   0  0  0  0  0  0  0  0  0  0  0  0
    6.9051   -7.9575   16.4222 C   0  0  0  0  0  0  0  0  0  0  0  0
    8.9969   -6.3552   17.9668 N   0  0  0  0  0  0  0  0  0  0  0  0
   10.6702   -3.9051   22.4070 C   0  0  0  0  0  0  0  0  0  0  0  0
   11.0625   -3.0028   18.8894 C   0  0  0  0  0  0  0  0  0  0  0  0
    5.6180   -7.9194   16.1754 O   0  0  0  0  0  0  0  0  0  0  0  0
    9.7259   -5.3080   18.4485 C   0  0  0  0  0  0  0  0  0  0  0  0
    9.4578   -5.0200   16.3036 N   0  0  0  0  0  0  0  0  0  0  0  0
    5.0287   -8.9365   16.8223 C   0  0  0  0  0  0  0  0  0  0  0  0
    8.7742   -6.1498   16.6764 C   0  0  0  0  0  0  0  0  0  0  0  0
   10.9418   -3.4032   21.2053 O   0  0  0  0  0  0  0  0  0  0  0  0
    1.4797   -8.6258   16.2950 C   0  0  0  0  0  0  0  0  0  0  0  0
    9.2861   -1.2743   25.3585 C   0  0  0  0  0  0  0  0  0  0  0  0
    1.8892  -10.3985   17.7511 N   0  0  0  0  0  0  0  0  0  0  0  0
    9.6210   -0.6952   24.0976 C   0  0  0  0  0  0  0  0  0  0  0  0
    7.0792   -9.0217   17.1429 C   0  0  0  0  0  0  0  0  0  0  0  0
    3.1713  -10.1816   17.6634 C   0  0  0  0  0  0  0  0  0  0  0  0
    2.7878   -8.3822   16.2137 C   0  0  0  0  0  0  0  0  0  0  0  0
    9.4601   -2.6590   25.6528 C   0  0  0  0  0  0  0  0  0  0  0  0
   10.1182   -1.5672   23.1165 C   0  0  0  0  0  0  0  0  0  0  0  0
    1.0552   -9.6360   17.0650 C   0  0  0  0  0  0  0  0  0  0  0  0
    3.6519   -9.1783   16.9039 C   0  0  0  0  0  0  0  0  0  0  0  0
    7.8675   -7.0096   15.9415 C   0  0  0  0  0  0  0  0  0  0  0  0
    5.9733   -9.6553   17.3832 N   0  0  0  0  0  0  0  0  0  0  0  0
   10.2411   -2.9363   23.4301 C   0  0  0  0  0  0  0  0  0  0  0  0
   10.7288   -3.8197   19.9525 C   0  0  0  0  0  0  0  0  0  0  0  0
   10.1189   -5.0054   19.6987 C   0  0  0  0  0  0  0  0  0  0  0  0
  1  3  4  0
  1  7  4  0
  2 21  4  0
  2 27  4  0
  3  9  4  0
  3 10  4  0
  4  8  4  0
  4 18  4  0
  4 25  1  0
  5  9  4  0
  5 12  4  0
  6 13  1  0
  6 27  1  0
  7 28  4  0
  8 11  4  0
  9 29  4  0
 10 12  4  0
 11 24  1  0
 11 26  4  0
 12 25  1  0
 13 28  1  0
 14 20  4  0
 14 23  4  0
 15 17  4  0
 15 21  4  0
 16 19  4  0
 16 23  4  0
 17 22  4  0
 18 26  4  0
 19 24  4  0
 20 24  4  0
 22 27  4  0
 28 29  4  0
M  END
$$$$

 Created by Python create_sdf_string function

 29 33  0  0  0  0  0  0  0  0999 V2000
   10.7215   -3.3326   17.6437 C   0  0  0  0  0  0  0  0  0  0  0  0
    9.9489   -3.4675   24.6487 N   0  0  0  0  0  0  0  0  0  0  0  0
   10.0172   -4.4740   17.4101 C   0  0  0  0  0  0  0  0  0  0  0  0
    6.9051   -7.9575   16.4222 C   0  0  0  0  0  0  0  0  0  0  0  0
    8.9969   -6.3552   17.9668 N   0  0  0  0  0  0  0  0  0  0  0  0
   10.6702   -3.9051   22.4070 C   0  0  0  0  0  0  0  0  0  0  0  0
   11.0625   -3.0028   18.8894 C   0  0  0  0  0  0  0  0  0  0  0  0
    5.6180   -7.9194   16.1754 O   0  0  0  0  0  0  0  0  0  0  0  0
    9.7259   -5.3080   18.4485 C   0  0  0  0  0  0  0  0  0  0  0  0
    9.4578   -5.0200   16.3036 N   0  0  0  0  0  0  0  0  0  0  0  0
    5.0287   -8.9365   16.8223 C   0  0  0  0  0  0  0  0  0  0  0  0
    8.7742   -6.1498   16.6764 C   0  0  0  0  0  0  0  0  0  0  0  0
   10.9418   -3.4032   21.2053 O   0  0  0  0  0  0  0  0  0  0  0  0
    1.4797   -8.6258   16.2950 C   0  0  0  0  0  0  0  0  0  0  0  0
    9.2861   -1.2743   25.3585 C   0  0  0  0  0  0  0  0  0  0  0  0
    1.8892  -10.3985   17.7511 N   0  0  0  0  0  0  0  0  0  0  0  0
    9.6210   -0.6952   24.0976 C   0  0  0  0  0  0  0  0  0  0  0  0
    7.0792   -9.0217   17.1429 C   0  0  0  0  0  0  0  0  0  0  0  0
    3.1713  -10.1816   17.6634 C   0  0  0  0  0  0  0  0  0  0  0  0
    2.7878   -8.3822   16.2137 C   0  0  0  0  0  0  0  0  0  0  0  0
    9.4601   -2.6590   25.6528 C   0  0  0  0  0  0  0  0  0  0  0  0
   10.1182   -1.5672   23.1165 C   0  0  0  0  0  0  0  0  0  0  0  0
    1.0552   -9.6360   17.0650 C   0  0  0  0  0  0  0  0  0  0  0  0
    3.6519   -9.1783   16.9039 C   0  0  0  0  0  0  0  0  0  0  0  0
    7.8675   -7.0096   15.9415 C   0  0  0  0  0  0  0  0  0  0  0  0
    5.9733   -9.6553   17.3832 N   0  0  0  0  0  0  0  0  0  0  0  0
   10.2411   -2.9363   23.4301 C   0  0  0  0  0  0  0  0  0  0  0  0
   10.7288   -3.8197   19.9525 C   0  0  0  0  0  0  0  0  0  0  0  0
   10.1189   -5.0054   19.6987 C   0  0  0  0  0  0  0  0  0  0  0  0
  1  3  4  0
  1  7  4  0
  2 21  4  0
  2 27  4  0
  3  9  4  0
  3 10  4  0
  4  8  4  0
  4 18  4  0
  4 25  1  0
  5  9  4  0
  5 12  4  0
  6 13  1  0
  6 27  1  0
  7 28  4  0
  8 11  4  0
  9 29  4  0
 10 12  4  0
 11 24  1  0
 11 26  4  0
 12 25  1  0
 13 28  1  0
 14 20  4  0
 14 23  4  0
 15 17  4  0
 15 21  4  0
 16 19  4  0
 16 23  4  0
 17 22  4  0
 18 26  4  0
 19 24  4  0
 20 24  4  0
 22 27  4  0
 28 29  4  0
M  END
$$$$

 Created by Python create_sdf_string function

 29 33  0  0  0  0  0  0  0  0999 V2000
   10.7215   -3.3326   17.6437 C   0  0  0  0  0  0  0  0  0  0  0  0
    9.9489   -3.4675   24.6487 N   0  0  0  0  0  0  0  0  0  0  0  0
   10.0172   -4.4740   17.4101 C   0  0  0  0  0  0  0  0  0  0  0  0
    6.9051   -7.9575   16.4222 C   0  0  0  0  0  0  0  0  0  0  0  0
    8.9969   -6.3552   17.9668 N   0  0  0  0  0  0  0  0  0  0  0  0
   10.6702   -3.9051   22.4070 C   0  0  0  0  0  0  0  0  0  0  0  0
   11.0625   -3.0028   18.8894 C   0  0  0  0  0  0  0  0  0  0  0  0
    5.6180   -7.9194   16.1754 O   0  0  0  0  0  0  0  0  0  0  0  0
    9.7259   -5.3080   18.4485 C   0  0  0  0  0  0  0  0  0  0  0  0
    9.4578   -5.0200   16.3036 N   0  0  0  0  0  0  0  0  0  0  0  0
    5.0287   -8.9365   16.8223 C   0  0  0  0  0  0  0  0  0  0  0  0
    8.7742   -6.1498   16.6764 C   0  0  0  0  0  0  0  0  0  0  0  0
   10.9418   -3.4032   21.2053 O   0  0  0  0  0  0  0  0  0  0  0  0
    1.4797   -8.6258   16.2950 C   0  0  0  0  0  0  0  0  0  0  0  0
    9.2861   -1.2743   25.3585 C   0  0  0  0  0  0  0  0  0  0  0  0
    1.8892  -10.3985   17.7511 N   0  0  0  0  0  0  0  0  0  0  0  0
    9.6210   -0.6952   24.0976 C   0  0  0  0  0  0  0  0  0  0  0  0
    7.0792   -9.0217   17.1429 C   0  0  0  0  0  0  0  0  0  0  0  0
    3.1713  -10.1816   17.6634 C   0  0  0  0  0  0  0  0  0  0  0  0
    2.7878   -8.3822   16.2137 C   0  0  0  0  0  0  0  0  0  0  0  0
    9.4601   -2.6590   25.6528 C   0  0  0  0  0  0  0  0  0  0  0  0
   10.1182   -1.5672   23.1165 C   0  0  0  0  0  0  0  0  0  0  0  0
    1.0552   -9.6360   17.0650 C   0  0  0  0  0  0  0  0  0  0  0  0
    3.6519   -9.1783   16.9039 C   0  0  0  0  0  0  0  0  0  0  0  0
    7.8675   -7.0096   15.9415 C   0  0  0  0  0  0  0  0  0  0  0  0
    5.9733   -9.6553   17.3832 N   0  0  0  0  0  0  0  0  0  0  0  0
   10.2411   -2.9363   23.4301 C   0  0  0  0  0  0  0  0  0  0  0  0
   10.7288   -3.8197   19.9525 C   0  0  0  0  0  0  0  0  0  0  0  0
   10.1189   -5.0054   19.6987 C   0  0  0  0  0  0  0  0  0  0  0  0
  1  3  4  0
  1  7  4  0
  2 21  4  0
  2 27  4  0
  3  9  4  0
  3 10  4  0
  4  8  4  0
  4 18  4  0
  4 25  1  0
  5  9  4  0
  5 12  4  0
  6 13  1  0
  6 27  1  0
  7 28  4  0
  8 11  4  0
  9 29  4  0
 10 12  4  0
 11 24  1  0
 11 26  4  0
 12 25  1  0
 13 28  1  0
 14 20  4  0
 14 23  4  0
 15 17  4  0
 15 21  4  0
 16 19  4  0
 16 23  4  0
 17 22  4  0
 18 26  4  0
 19 24  4  0
 20 24  4  0
 22 27  4  0
 28 29  4  0
M  END
$$$$

 Created by Python create_sdf_string function

 29 33  0  0  0  0  0  0  0  0999 V2000
   10.7215   -3.3326   17.6437 C   0  0  0  0  0  0  0  0  0  0  0  0
    9.9489   -3.4675   24.6487 N   0  0  0  0  0  0  0  0  0  0  0  0
   10.0172   -4.4740   17.4101 C   0  0  0  0  0  0  0  0  0  0  0  0
    6.9051   -7.9575   16.4222 C   0  0  0  0  0  0  0  0  0  0  0  0
    8.9969   -6.3552   17.9668 N   0  0  0  0  0  0  0  0  0  0  0  0
   10.6702   -3.9051   22.4070 C   0  0  0  0  0  0  0  0  0  0  0  0
   11.0625   -3.0028   18.8894 C   0  0  0  0  0  0  0  0  0  0  0  0
    5.6180   -7.9194   16.1754 O   0  0  0  0  0  0  0  0  0  0  0  0
    9.7259   -5.3080   18.4485 C   0  0  0  0  0  0  0  0  0  0  0  0
    9.4578   -5.0200   16.3036 N   0  0  0  0  0  0  0  0  0  0  0  0
    5.0287   -8.9365   16.8223 C   0  0  0  0  0  0  0  0  0  0  0  0
    8.7742   -6.1498   16.6764 C   0  0  0  0  0  0  0  0  0  0  0  0
   10.9418   -3.4032   21.2053 O   0  0  0  0  0  0  0  0  0  0  0  0
    1.4797   -8.6258   16.2950 C   0  0  0  0  0  0  0  0  0  0  0  0
    9.2861   -1.2743   25.3585 C   0  0  0  0  0  0  0  0  0  0  0  0
    1.8892  -10.3985   17.7511 N   0  0  0  0  0  0  0  0  0  0  0  0
    9.6210   -0.6952   24.0976 C   0  0  0  0  0  0  0  0  0  0  0  0
    7.0792   -9.0217   17.1429 C   0  0  0  0  0  0  0  0  0  0  0  0
    3.1713  -10.1816   17.6634 C   0  0  0  0  0  0  0  0  0  0  0  0
    2.7878   -8.3822   16.2137 C   0  0  0  0  0  0  0  0  0  0  0  0
    9.4601   -2.6590   25.6528 C   0  0  0  0  0  0  0  0  0  0  0  0
   10.1182   -1.5672   23.1165 C   0  0  0  0  0  0  0  0  0  0  0  0
    1.0552   -9.6360   17.0650 C   0  0  0  0  0  0  0  0  0  0  0  0
    3.6519   -9.1783   16.9039 C   0  0  0  0  0  0  0  0  0  0  0  0
    7.8675   -7.0096   15.9415 C   0  0  0  0  0  0  0  0  0  0  0  0
    5.9733   -9.6553   17.3832 N   0  0  0  0  0  0  0  0  0  0  0  0
   10.2411   -2.9363   23.4301 C   0  0  0  0  0  0  0  0  0  0  0  0
   10.7288   -3.8197   19.9525 C   0  0  0  0  0  0  0  0  0  0  0  0
   10.1189   -5.0054   19.6987 C   0  0  0  0  0  0  0  0  0  0  0  0
  1  3  4  0
  1  7  4  0
  2 21  4  0
  2 27  4  0
  3  9  4  0
  3 10  4  0
  4  8  4  0
  4 18  4  0
  4 25  1  0
  5  9  4  0
  5 12  4  0
  6 13  1  0
  6 27  1  0
  7 28  4  0
  8 11  4  0
  9 29  4  0
 10 12  4  0
 11 24  1  0
 11 26  4  0
 12 25  1  0
 13 28  1  0
 14 20  4  0
 14 23  4  0
 15 17  4  0
 15 21  4  0
 16 19  4  0
 16 23  4  0
 17 22  4  0
 18 26  4  0
 19 24  4  0
 20 24  4  0
 22 27  4  0
 28 29  4  0
M  END
$$$$

 Created by Python create_sdf_string function

 29 33  0  0  0  0  0  0  0  0999 V2000
   10.7215   -3.3326   17.6437 C   0  0  0  0  0  0  0  0  0  0  0  0
    9.9489   -3.4675   24.6487 N   0  0  0  0  0  0  0  0  0  0  0  0
   10.0172   -4.4740   17.4101 C   0  0  0  0  0  0  0  0  0  0  0  0
    6.9051   -7.9575   16.4222 C   0  0  0  0  0  0  0  0  0  0  0  0
    8.9969   -6.3552   17.9668 N   0  0  0  0  0  0  0  0  0  0  0  0
   10.6702   -3.9051   22.4070 C   0  0  0  0  0  0  0  0  0  0  0  0
   11.0625   -3.0028   18.8894 C   0  0  0  0  0  0  0  0  0  0  0  0
    5.6180   -7.9194   16.1754 O   0  0  0  0  0  0  0  0  0  0  0  0
    9.7259   -5.3080   18.4485 C   0  0  0  0  0  0  0  0  0  0  0  0
    9.4578   -5.0200   16.3036 N   0  0  0  0  0  0  0  0  0  0  0  0
    5.0287   -8.9365   16.8223 C   0  0  0  0  0  0  0  0  0  0  0  0
    8.7742   -6.1498   16.6764 C   0  0  0  0  0  0  0  0  0  0  0  0
   10.9418   -3.4032   21.2053 O   0  0  0  0  0  0  0  0  0  0  0  0
    1.4797   -8.6258   16.2950 C   0  0  0  0  0  0  0  0  0  0  0  0
    9.2861   -1.2743   25.3585 C   0  0  0  0  0  0  0  0  0  0  0  0
    1.8892  -10.3985   17.7511 N   0  0  0  0  0  0  0  0  0  0  0  0
    9.6210   -0.6952   24.0976 C   0  0  0  0  0  0  0  0  0  0  0  0
    7.0792   -9.0217   17.1429 C   0  0  0  0  0  0  0  0  0  0  0  0
    3.1713  -10.1816   17.6634 C   0  0  0  0  0  0  0  0  0  0  0  0
    2.7878   -8.3822   16.2137 C   0  0  0  0  0  0  0  0  0  0  0  0
    9.4601   -2.6590   25.6528 C   0  0  0  0  0  0  0  0  0  0  0  0
   10.1182   -1.5672   23.1165 C   0  0  0  0  0  0  0  0  0  0  0  0
    1.0552   -9.6360   17.0650 C   0  0  0  0  0  0  0  0  0  0  0  0
    3.6519   -9.1783   16.9039 C   0  0  0  0  0  0  0  0  0  0  0  0
    7.8675   -7.0096   15.9415 C   0  0  0  0  0  0  0  0  0  0  0  0
    5.9733   -9.6553   17.3832 N   0  0  0  0  0  0  0  0  0  0  0  0
   10.2411   -2.9363   23.4301 C   0  0  0  0  0  0  0  0  0  0  0  0
   10.7288   -3.8197   19.9525 C   0  0  0  0  0  0  0  0  0  0  0  0
   10.1189   -5.0054   19.6987 C   0  0  0  0  0  0  0  0  0  0  0  0
  1  3  4  0
  1  7  4  0
  2 21  4  0
  2 27  4  0
  3  9  4  0
  3 10  4  0
  4  8  4  0
  4 18  4  0
  4 25  1  0
  5  9  4  0
  5 12  4  0
  6 13  1  0
  6 27  1  0
  7 28  4  0
  8 11  4  0
  9 29  4  0
 10 12  4  0
 11 24  1  0
 11 26  4  0
 12 25  1  0
 13 28  1  0
 14 20  4  0
 14 23  4  0
 15 17  4  0
 15 21  4  0
 16 19  4  0
 16 23  4  0
 17 22  4  0
 18 26  4  0
 19 24  4  0
 20 24  4  0
 22 27  4  0
 28 29  4  0
M  END
$$$$

 Created by Python create_sdf_string function

 29 33  0  0  0  0  0  0  0  0999 V2000
   10.7215   -3.3326   17.6437 C   0  0  0  0  0  0  0  0  0  0  0  0
    9.9489   -3.4675   24.6487 N   0  0  0  0  0  0  0  0  0  0  0  0
   10.0172   -4.4740   17.4101 C   0  0  0  0  0  0  0  0  0  0  0  0
    6.9051   -7.9575   16.4222 C   0  0  0  0  0  0  0  0  0  0  0  0
    8.9969   -6.3552   17.9668 N   0  0  0  0  0  0  0  0  0  0  0  0
   10.6702   -3.9051   22.4070 C   0  0  0  0  0  0  0  0  0  0  0  0
   11.0625   -3.0028   18.8894 C   0  0  0  0  0  0  0  0  0  0  0  0
    5.6180   -7.9194   16.1754 O   0  0  0  0  0  0  0  0  0  0  0  0
    9.7259   -5.3080   18.4485 C   0  0  0  0  0  0  0  0  0  0  0  0
    9.4578   -5.0200   16.3036 N   0  0  0  0  0  0  0  0  0  0  0  0
    5.0287   -8.9365   16.8223 C   0  0  0  0  0  0  0  0  0  0  0  0
    8.7742   -6.1498   16.6764 C   0  0  0  0  0  0  0  0  0  0  0  0
   10.9418   -3.4032   21.2053 O   0  0  0  0  0  0  0  0  0  0  0  0
    1.4797   -8.6258   16.2950 C   0  0  0  0  0  0  0  0  0  0  0  0
    9.2861   -1.2743   25.3585 C   0  0  0  0  0  0  0  0  0  0  0  0
    1.8892  -10.3985   17.7511 N   0  0  0  0  0  0  0  0  0  0  0  0
    9.6210   -0.6952   24.0976 C   0  0  0  0  0  0  0  0  0  0  0  0
    7.0792   -9.0217   17.1429 C   0  0  0  0  0  0  0  0  0  0  0  0
    3.1713  -10.1816   17.6634 C   0  0  0  0  0  0  0  0  0  0  0  0
    2.7878   -8.3822   16.2137 C   0  0  0  0  0  0  0  0  0  0  0  0
    9.4601   -2.6590   25.6528 C   0  0  0  0  0  0  0  0  0  0  0  0
   10.1182   -1.5672   23.1165 C   0  0  0  0  0  0  0  0  0  0  0  0
    1.0552   -9.6360   17.0650 C   0  0  0  0  0  0  0  0  0  0  0  0
    3.6519   -9.1783   16.9039 C   0  0  0  0  0  0  0  0  0  0  0  0
    7.8675   -7.0096   15.9415 C   0  0  0  0  0  0  0  0  0  0  0  0
    5.9733   -9.6553   17.3832 N   0  0  0  0  0  0  0  0  0  0  0  0
   10.2411   -2.9363   23.4301 C   0  0  0  0  0  0  0  0  0  0  0  0
   10.7288   -3.8197   19.9525 C   0  0  0  0  0  0  0  0  0  0  0  0
   10.1189   -5.0054   19.6987 C   0  0  0  0  0  0  0  0  0  0  0  0
  1  3  4  0
  1  7  4  0
  2 21  4  0
  2 27  4  0
  3  9  4  0
  3 10  4  0
  4  8  4  0
  4 18  4  0
  4 25  1  0
  5  9  4  0
  5 12  4  0
  6 13  1  0
  6 27  1  0
  7 28  4  0
  8 11  4  0
  9 29  4  0
 10 12  4  0
 11 24  1  0
 11 26  4  0
 12 25  1  0
 13 28  1  0
 14 20  4  0
 14 23  4  0
 15 17  4  0
 15 21  4  0
 16 19  4  0
 16 23  4  0
 17 22  4  0
 18 26  4  0
 19 24  4  0
 20 24  4  0
 22 27  4  0
 28 29  4  0
M  END
$$$$

 Created by Python create_sdf_string function

 29 33  0  0  0  0  0  0  0  0999 V2000
   10.7215   -3.3326   17.6437 C   0  0  0  0  0  0  0  0  0  0  0  0
    9.9489   -3.4675   24.6487 N   0  0  0  0  0  0  0  0  0  0  0  0
   10.0172   -4.4740   17.4101 C   0  0  0  0  0  0  0  0  0  0  0  0
    6.9051   -7.9575   16.4222 C   0  0  0  0  0  0  0  0  0  0  0  0
    8.9969   -6.3552   17.9668 N   0  0  0  0  0  0  0  0  0  0  0  0
   10.6702   -3.9051   22.4070 C   0  0  0  0  0  0  0  0  0  0  0  0
   11.0625   -3.0028   18.8894 C   0  0  0  0  0  0  0  0  0  0  0  0
    5.6180   -7.9194   16.1754 O   0  0  0  0  0  0  0  0  0  0  0  0
    9.7259   -5.3080   18.4485 C   0  0  0  0  0  0  0  0  0  0  0  0
    9.4578   -5.0200   16.3036 N   0  0  0  0  0  0  0  0  0  0  0  0
    5.0287   -8.9365   16.8223 C   0  0  0  0  0  0  0  0  0  0  0  0
    8.7742   -6.1498   16.6764 C   0  0  0  0  0  0  0  0  0  0  0  0
   10.9418   -3.4032   21.2053 O   0  0  0  0  0  0  0  0  0  0  0  0
    1.4797   -8.6258   16.2950 C   0  0  0  0  0  0  0  0  0  0  0  0
    9.2861   -1.2743   25.3585 C   0  0  0  0  0  0  0  0  0  0  0  0
    1.8892  -10.3985   17.7511 N   0  0  0  0  0  0  0  0  0  0  0  0
    9.6210   -0.6952   24.0976 C   0  0  0  0  0  0  0  0  0  0  0  0
    7.0792   -9.0217   17.1429 C   0  0  0  0  0  0  0  0  0  0  0  0
    3.1713  -10.1816   17.6634 C   0  0  0  0  0  0  0  0  0  0  0  0
    2.7878   -8.3822   16.2137 C   0  0  0  0  0  0  0  0  0  0  0  0
    9.4601   -2.6590   25.6528 C   0  0  0  0  0  0  0  0  0  0  0  0
   10.1182   -1.5672   23.1165 C   0  0  0  0  0  0  0  0  0  0  0  0
    1.0552   -9.6360   17.0650 C   0  0  0  0  0  0  0  0  0  0  0  0
    3.6519   -9.1783   16.9039 C   0  0  0  0  0  0  0  0  0  0  0  0
    7.8675   -7.0096   15.9415 C   0  0  0  0  0  0  0  0  0  0  0  0
    5.9733   -9.6553   17.3832 N   0  0  0  0  0  0  0  0  0  0  0  0
   10.2411   -2.9363   23.4301 C   0  0  0  0  0  0  0  0  0  0  0  0
   10.7288   -3.8197   19.9525 C   0  0  0  0  0  0  0  0  0  0  0  0
   10.1189   -5.0054   19.6987 C   0  0  0  0  0  0  0  0  0  0  0  0
  1  3  4  0
  1  7  4  0
  2 21  4  0
  2 27  4  0
  3  9  4  0
  3 10  4  0
  4  8  4  0
  4 18  4  0
  4 25  1  0
  5  9  4  0
  5 12  4  0
  6 13  1  0
  6 27  1  0
  7 28  4  0
  8 11  4  0
  9 29  4  0
 10 12  4  0
 11 24  1  0
 11 26  4  0
 12 25  1  0
 13 28  1  0
 14 20  4  0
 14 23  4  0
 15 17  4  0
 15 21  4  0
 16 19  4  0
 16 23  4  0
 17 22  4  0
 18 26  4  0
 19 24  4  0
 20 24  4  0
 22 27  4  0
 28 29  4  0
M  END
$$$$

 Created by Python create_sdf_string function

 29 33  0  0  0  0  0  0  0  0999 V2000
   10.7215   -3.3326   17.6437 C   0  0  0  0  0  0  0  0  0  0  0  0
    9.9489   -3.4675   24.6487 N   0  0  0  0  0  0  0  0  0  0  0  0
   10.0172   -4.4740   17.4101 C   0  0  0  0  0  0  0  0  0  0  0  0
    6.9051   -7.9575   16.4222 C   0  0  0  0  0  0  0  0  0  0  0  0
    8.9969   -6.3552   17.9668 N   0  0  0  0  0  0  0  0  0  0  0  0
   10.6702   -3.9051   22.4070 C   0  0  0  0  0  0  0  0  0  0  0  0
   11.0625   -3.0028   18.8894 C   0  0  0  0  0  0  0  0  0  0  0  0
    5.6180   -7.9194   16.1754 O   0  0  0  0  0  0  0  0  0  0  0  0
    9.7259   -5.3080   18.4485 C   0  0  0  0  0  0  0  0  0  0  0  0
    9.4578   -5.0200   16.3036 N   0  0  0  0  0  0  0  0  0  0  0  0
    5.0287   -8.9365   16.8223 C   0  0  0  0  0  0  0  0  0  0  0  0
    8.7742   -6.1498   16.6764 C   0  0  0  0  0  0  0  0  0  0  0  0
   10.9418   -3.4032   21.2053 O   0  0  0  0  0  0  0  0  0  0  0  0
    1.4797   -8.6258   16.2950 C   0  0  0  0  0  0  0  0  0  0  0  0
    9.2861   -1.2743   25.3585 C   0  0  0  0  0  0  0  0  0  0  0  0
    1.8892  -10.3985   17.7511 N   0  0  0  0  0  0  0  0  0  0  0  0
    9.6210   -0.6952   24.0976 C   0  0  0  0  0  0  0  0  0  0  0  0
    7.0792   -9.0217   17.1429 C   0  0  0  0  0  0  0  0  0  0  0  0
    3.1713  -10.1816   17.6634 C   0  0  0  0  0  0  0  0  0  0  0  0
    2.7878   -8.3822   16.2137 C   0  0  0  0  0  0  0  0  0  0  0  0
    9.4601   -2.6590   25.6528 C   0  0  0  0  0  0  0  0  0  0  0  0
   10.1182   -1.5672   23.1165 C   0  0  0  0  0  0  0  0  0  0  0  0
    1.0552   -9.6360   17.0650 C   0  0  0  0  0  0  0  0  0  0  0  0
    3.6519   -9.1783   16.9039 C   0  0  0  0  0  0  0  0  0  0  0  0
    7.8675   -7.0096   15.9415 C   0  0  0  0  0  0  0  0  0  0  0  0
    5.9733   -9.6553   17.3832 N   0  0  0  0  0  0  0  0  0  0  0  0
   10.2411   -2.9363   23.4301 C   0  0  0  0  0  0  0  0  0  0  0  0
   10.7288   -3.8197   19.9525 C   0  0  0  0  0  0  0  0  0  0  0  0
   10.1189   -5.0054   19.6987 C   0  0  0  0  0  0  0  0  0  0  0  0
  1  3  4  0
  1  7  4  0
  2 21  4  0
  2 27  4  0
  3  9  4  0
  3 10  4  0
  4  8  4  0
  4 18  4  0
  4 25  1  0
  5  9  4  0
  5 12  4  0
  6 13  1  0
  6 27  1  0
  7 28  4  0
  8 11  4  0
  9 29  4  0
 10 12  4  0
 11 24  1  0
 11 26  4  0
 12 25  1  0
 13 28  1  0
 14 20  4  0
 14 23  4  0
 15 17  4  0
 15 21  4  0
 16 19  4  0
 16 23  4  0
 17 22  4  0
 18 26  4  0
 19 24  4  0
 20 24  4  0
 22 27  4  0
 28 29  4  0
M  END
$$$$

 Created by Python create_sdf_string function

 29 33  0  0  0  0  0  0  0  0999 V2000
   10.7215   -3.3326   17.6437 C   0  0  0  0  0  0  0  0  0  0  0  0
    9.9489   -3.4675   24.6487 N   0  0  0  0  0  0  0  0  0  0  0  0
   10.0172   -4.4740   17.4101 C   0  0  0  0  0  0  0  0  0  0  0  0
    6.9051   -7.9575   16.4222 C   0  0  0  0  0  0  0  0  0  0  0  0
    8.9969   -6.3552   17.9668 N   0  0  0  0  0  0  0  0  0  0  0  0
   10.6702   -3.9051   22.4070 C   0  0  0  0  0  0  0  0  0  0  0  0
   11.0625   -3.0028   18.8894 C   0  0  0  0  0  0  0  0  0  0  0  0
    5.6180   -7.9194   16.1754 O   0  0  0  0  0  0  0  0  0  0  0  0
    9.7259   -5.3080   18.4485 C   0  0  0  0  0  0  0  0  0  0  0  0
    9.4578   -5.0200   16.3036 N   0  0  0  0  0  0  0  0  0  0  0  0
    5.0287   -8.9365   16.8223 C   0  0  0  0  0  0  0  0  0  0  0  0
    8.7742   -6.1498   16.6764 C   0  0  0  0  0  0  0  0  0  0  0  0
   10.9418   -3.4032   21.2053 O   0  0  0  0  0  0  0  0  0  0  0  0
    1.4797   -8.6258   16.2950 C   0  0  0  0  0  0  0  0  0  0  0  0
    9.2861   -1.2743   25.3585 C   0  0  0  0  0  0  0  0  0  0  0  0
    1.8892  -10.3985   17.7511 N   0  0  0  0  0  0  0  0  0  0  0  0
    9.6210   -0.6952   24.0976 C   0  0  0  0  0  0  0  0  0  0  0  0
    7.0792   -9.0217   17.1429 C   0  0  0  0  0  0  0  0  0  0  0  0
    3.1713  -10.1816   17.6634 C   0  0  0  0  0  0  0  0  0  0  0  0
    2.7878   -8.3822   16.2137 C   0  0  0  0  0  0  0  0  0  0  0  0
    9.4601   -2.6590   25.6528 C   0  0  0  0  0  0  0  0  0  0  0  0
   10.1182   -1.5672   23.1165 C   0  0  0  0  0  0  0  0  0  0  0  0
    1.0552   -9.6360   17.0650 C   0  0  0  0  0  0  0  0  0  0  0  0
    3.6519   -9.1783   16.9039 C   0  0  0  0  0  0  0  0  0  0  0  0
    7.8675   -7.0096   15.9415 C   0  0  0  0  0  0  0  0  0  0  0  0
    5.9733   -9.6553   17.3832 N   0  0  0  0  0  0  0  0  0  0  0  0
   10.2411   -2.9363   23.4301 C   0  0  0  0  0  0  0  0  0  0  0  0
   10.7288   -3.8197   19.9525 C   0  0  0  0  0  0  0  0  0  0  0  0
   10.1189   -5.0054   19.6987 C   0  0  0  0  0  0  0  0  0  0  0  0
  1  3  4  0
  1  7  4  0
  2 21  4  0
  2 27  4  0
  3  9  4  0
  3 10  4  0
  4  8  4  0
  4 18  4  0
  4 25  1  0
  5  9  4  0
  5 12  4  0
  6 13  1  0
  6 27  1  0
  7 28  4  0
  8 11  4  0
  9 29  4  0
 10 12  4  0
 11 24  1  0
 11 26  4  0
 12 25  1  0
 13 28  1  0
 14 20  4  0
 14 23  4  0
 15 17  4  0
 15 21  4  0
 16 19  4  0
 16 23  4  0
 17 22  4  0
 18 26  4  0
 19 24  4  0
 20 24  4  0
 22 27  4  0
 28 29  4  0
M  END
$$$$

 Created by Python create_sdf_string function

 29 33  0  0  0  0  0  0  0  0999 V2000
   10.7215   -3.3326   17.6437 C   0  0  0  0  0  0  0  0  0  0  0  0
    9.9489   -3.4675   24.6487 N   0  0  0  0  0  0  0  0  0  0  0  0
   10.0172   -4.4740   17.4101 C   0  0  0  0  0  0  0  0  0  0  0  0
    6.9051   -7.9575   16.4222 C   0  0  0  0  0  0  0  0  0  0  0  0
    8.9969   -6.3552   17.9668 N   0  0  0  0  0  0  0  0  0  0  0  0
   10.6702   -3.9051   22.4070 C   0  0  0  0  0  0  0  0  0  0  0  0
   11.0625   -3.0028   18.8894 C   0  0  0  0  0  0  0  0  0  0  0  0
    5.6180   -7.9194   16.1754 O   0  0  0  0  0  0  0  0  0  0  0  0
    9.7259   -5.3080   18.4485 C   0  0  0  0  0  0  0  0  0  0  0  0
    9.4578   -5.0200   16.3036 N   0  0  0  0  0  0  0  0  0  0  0  0
    5.0287   -8.9365   16.8223 C   0  0  0  0  0  0  0  0  0  0  0  0
    8.7742   -6.1498   16.6764 C   0  0  0  0  0  0  0  0  0  0  0  0
   10.9418   -3.4032   21.2053 O   0  0  0  0  0  0  0  0  0  0  0  0
    1.4797   -8.6258   16.2950 C   0  0  0  0  0  0  0  0  0  0  0  0
    9.2861   -1.2743   25.3585 C   0  0  0  0  0  0  0  0  0  0  0  0
    1.8892  -10.3985   17.7511 N   0  0  0  0  0  0  0  0  0  0  0  0
    9.6210   -0.6952   24.0976 C   0  0  0  0  0  0  0  0  0  0  0  0
    7.0792   -9.0217   17.1429 C   0  0  0  0  0  0  0  0  0  0  0  0
    3.1713  -10.1816   17.6634 C   0  0  0  0  0  0  0  0  0  0  0  0
    2.7878   -8.3822   16.2137 C   0  0  0  0  0  0  0  0  0  0  0  0
    9.4601   -2.6590   25.6528 C   0  0  0  0  0  0  0  0  0  0  0  0
   10.1182   -1.5672   23.1165 C   0  0  0  0  0  0  0  0  0  0  0  0
    1.0552   -9.6360   17.0650 C   0  0  0  0  0  0  0  0  0  0  0  0
    3.6519   -9.1783   16.9039 C   0  0  0  0  0  0  0  0  0  0  0  0
    7.8675   -7.0096   15.9415 C   0  0  0  0  0  0  0  0  0  0  0  0
    5.9733   -9.6553   17.3832 N   0  0  0  0  0  0  0  0  0  0  0  0
   10.2411   -2.9363   23.4301 C   0  0  0  0  0  0  0  0  0  0  0  0
   10.7288   -3.8197   19.9525 C   0  0  0  0  0  0  0  0  0  0  0  0
   10.1189   -5.0054   19.6987 C   0  0  0  0  0  0  0  0  0  0  0  0
  1  3  4  0
  1  7  4  0
  2 21  4  0
  2 27  4  0
  3  9  4  0
  3 10  4  0
  4  8  4  0
  4 18  4  0
  4 25  1  0
  5  9  4  0
  5 12  4  0
  6 13  1  0
  6 27  1  0
  7 28  4  0
  8 11  4  0
  9 29  4  0
 10 12  4  0
 11 24  1  0
 11 26  4  0
 12 25  1  0
 13 28  1  0
 14 20  4  0
 14 23  4  0
 15 17  4  0
 15 21  4  0
 16 19  4  0
 16 23  4  0
 17 22  4  0
 18 26  4  0
 19 24  4  0
 20 24  4  0
 22 27  4  0
 28 29  4  0
M  END
$$$$

 Created by Python create_sdf_string function

 29 33  0  0  0  0  0  0  0  0999 V2000
   10.7215   -3.3326   17.6437 C   0  0  0  0  0  0  0  0  0  0  0  0
    9.9489   -3.4675   24.6487 N   0  0  0  0  0  0  0  0  0  0  0  0
   10.0172   -4.4740   17.4101 C   0  0  0  0  0  0  0  0  0  0  0  0
    6.9051   -7.9575   16.4222 C   0  0  0  0  0  0  0  0  0  0  0  0
    8.9969   -6.3552   17.9668 N   0  0  0  0  0  0  0  0  0  0  0  0
   10.6702   -3.9051   22.4070 C   0  0  0  0  0  0  0  0  0  0  0  0
   11.0625   -3.0028   18.8894 C   0  0  0  0  0  0  0  0  0  0  0  0
    5.6180   -7.9194   16.1754 O   0  0  0  0  0  0  0  0  0  0  0  0
    9.7259   -5.3080   18.4485 C   0  0  0  0  0  0  0  0  0  0  0  0
    9.4578   -5.0200   16.3036 N   0  0  0  0  0  0  0  0  0  0  0  0
    5.0287   -8.9365   16.8223 C   0  0  0  0  0  0  0  0  0  0  0  0
    8.7742   -6.1498   16.6764 C   0  0  0  0  0  0  0  0  0  0  0  0
   10.9418   -3.4032   21.2053 O   0  0  0  0  0  0  0  0  0  0  0  0
    1.4797   -8.6258   16.2950 C   0  0  0  0  0  0  0  0  0  0  0  0
    9.2861   -1.2743   25.3585 C   0  0  0  0  0  0  0  0  0  0  0  0
    1.8892  -10.3985   17.7511 N   0  0  0  0  0  0  0  0  0  0  0  0
    9.6210   -0.6952   24.0976 C   0  0  0  0  0  0  0  0  0  0  0  0
    7.0792   -9.0217   17.1429 C   0  0  0  0  0  0  0  0  0  0  0  0
    3.1713  -10.1816   17.6634 C   0  0  0  0  0  0  0  0  0  0  0  0
    2.7878   -8.3822   16.2137 C   0  0  0  0  0  0  0  0  0  0  0  0
    9.4601   -2.6590   25.6528 C   0  0  0  0  0  0  0  0  0  0  0  0
   10.1182   -1.5672   23.1165 C   0  0  0  0  0  0  0  0  0  0  0  0
    1.0552   -9.6360   17.0650 C   0  0  0  0  0  0  0  0  0  0  0  0
    3.6519   -9.1783   16.9039 C   0  0  0  0  0  0  0  0  0  0  0  0
    7.8675   -7.0096   15.9415 C   0  0  0  0  0  0  0  0  0  0  0  0
    5.9733   -9.6553   17.3832 N   0  0  0  0  0  0  0  0  0  0  0  0
   10.2411   -2.9363   23.4301 C   0  0  0  0  0  0  0  0  0  0  0  0
   10.7288   -3.8197   19.9525 C   0  0  0  0  0  0  0  0  0  0  0  0
   10.1189   -5.0054   19.6987 C   0  0  0  0  0  0  0  0  0  0  0  0
  1  3  4  0
  1  7  4  0
  2 21  4  0
  2 27  4  0
  3  9  4  0
  3 10  4  0
  4  8  4  0
  4 18  4  0
  4 25  1  0
  5  9  4  0
  5 12  4  0
  6 13  1  0
  6 27  1  0
  7 28  4  0
  8 11  4  0
  9 29  4  0
 10 12  4  0
 11 24  1  0
 11 26  4  0
 12 25  1  0
 13 28  1  0
 14 20  4  0
 14 23  4  0
 15 17  4  0
 15 21  4  0
 16 19  4  0
 16 23  4  0
 17 22  4  0
 18 26  4  0
 19 24  4  0
 20 24  4  0
 22 27  4  0
 28 29  4  0
M  END
$$$$

 Created by Python create_sdf_string function

 29 33  0  0  0  0  0  0  0  0999 V2000
   10.7215   -3.3326   17.6437 C   0  0  0  0  0  0  0  0  0  0  0  0
    9.9489   -3.4675   24.6487 N   0  0  0  0  0  0  0  0  0  0  0  0
   10.0172   -4.4740   17.4101 C   0  0  0  0  0  0  0  0  0  0  0  0
    6.9051   -7.9575   16.4222 C   0  0  0  0  0  0  0  0  0  0  0  0
    8.9969   -6.3552   17.9668 N   0  0  0  0  0  0  0  0  0  0  0  0
   10.6702   -3.9051   22.4070 C   0  0  0  0  0  0  0  0  0  0  0  0
   11.0625   -3.0028   18.8894 C   0  0  0  0  0  0  0  0  0  0  0  0
    5.6180   -7.9194   16.1754 O   0  0  0  0  0  0  0  0  0  0  0  0
    9.7259   -5.3080   18.4485 C   0  0  0  0  0  0  0  0  0  0  0  0
    9.4578   -5.0200   16.3036 N   0  0  0  0  0  0  0  0  0  0  0  0
    5.0287   -8.9365   16.8223 C   0  0  0  0  0  0  0  0  0  0  0  0
    8.7742   -6.1498   16.6764 C   0  0  0  0  0  0  0  0  0  0  0  0
   10.9418   -3.4032   21.2053 O   0  0  0  0  0  0  0  0  0  0  0  0
    1.4797   -8.6258   16.2950 C   0  0  0  0  0  0  0  0  0  0  0  0
    9.2861   -1.2743   25.3585 C   0  0  0  0  0  0  0  0  0  0  0  0
    1.8892  -10.3985   17.7511 N   0  0  0  0  0  0  0  0  0  0  0  0
    9.6210   -0.6952   24.0976 C   0  0  0  0  0  0  0  0  0  0  0  0
    7.0792   -9.0217   17.1429 C   0  0  0  0  0  0  0  0  0  0  0  0
    3.1713  -10.1816   17.6634 C   0  0  0  0  0  0  0  0  0  0  0  0
    2.7878   -8.3822   16.2137 C   0  0  0  0  0  0  0  0  0  0  0  0
    9.4601   -2.6590   25.6528 C   0  0  0  0  0  0  0  0  0  0  0  0
   10.1182   -1.5672   23.1165 C   0  0  0  0  0  0  0  0  0  0  0  0
    1.0552   -9.6360   17.0650 C   0  0  0  0  0  0  0  0  0  0  0  0
    3.6519   -9.1783   16.9039 C   0  0  0  0  0  0  0  0  0  0  0  0
    7.8675   -7.0096   15.9415 C   0  0  0  0  0  0  0  0  0  0  0  0
    5.9733   -9.6553   17.3832 N   0  0  0  0  0  0  0  0  0  0  0  0
   10.2411   -2.9363   23.4301 C   0  0  0  0  0  0  0  0  0  0  0  0
   10.7288   -3.8197   19.9525 C   0  0  0  0  0  0  0  0  0  0  0  0
   10.1189   -5.0054   19.6987 C   0  0  0  0  0  0  0  0  0  0  0  0
  1  3  4  0
  1  7  4  0
  2 21  4  0
  2 27  4  0
  3  9  4  0
  3 10  4  0
  4  8  4  0
  4 18  4  0
  4 25  1  0
  5  9  4  0
  5 12  4  0
  6 13  1  0
  6 27  1  0
  7 28  4  0
  8 11  4  0
  9 29  4  0
 10 12  4  0
 11 24  1  0
 11 26  4  0
 12 25  1  0
 13 28  1  0
 14 20  4  0
 14 23  4  0
 15 17  4  0
 15 21  4  0
 16 19  4  0
 16 23  4  0
 17 22  4  0
 18 26  4  0
 19 24  4  0
 20 24  4  0
 22 27  4  0
 28 29  4  0
M  END
$$$$

 Created by Python create_sdf_string function

 29 33  0  0  0  0  0  0  0  0999 V2000
   10.7215   -3.3326   17.6437 C   0  0  0  0  0  0  0  0  0  0  0  0
    9.9489   -3.4675   24.6487 N   0  0  0  0  0  0  0  0  0  0  0  0
   10.0172   -4.4740   17.4101 C   0  0  0  0  0  0  0  0  0  0  0  0
    6.9051   -7.9575   16.4222 C   0  0  0  0  0  0  0  0  0  0  0  0
    8.9969   -6.3552   17.9668 N   0  0  0  0  0  0  0  0  0  0  0  0
   10.6702   -3.9051   22.4070 C   0  0  0  0  0  0  0  0  0  0  0  0
   11.0625   -3.0028   18.8894 C   0  0  0  0  0  0  0  0  0  0  0  0
    5.6180   -7.9194   16.1754 O   0  0  0  0  0  0  0  0  0  0  0  0
    9.7259   -5.3080   18.4485 C   0  0  0  0  0  0  0  0  0  0  0  0
    9.4578   -5.0200   16.3036 N   0  0  0  0  0  0  0  0  0  0  0  0
    5.0287   -8.9365   16.8223 C   0  0  0  0  0  0  0  0  0  0  0  0
    8.7742   -6.1498   16.6764 C   0  0  0  0  0  0  0  0  0  0  0  0
   10.9418   -3.4032   21.2053 O   0  0  0  0  0  0  0  0  0  0  0  0
    1.4797   -8.6258   16.2950 C   0  0  0  0  0  0  0  0  0  0  0  0
    9.2861   -1.2743   25.3585 C   0  0  0  0  0  0  0  0  0  0  0  0
    1.8892  -10.3985   17.7511 N   0  0  0  0  0  0  0  0  0  0  0  0
    9.6210   -0.6952   24.0976 C   0  0  0  0  0  0  0  0  0  0  0  0
    7.0792   -9.0217   17.1429 C   0  0  0  0  0  0  0  0  0  0  0  0
    3.1713  -10.1816   17.6634 C   0  0  0  0  0  0  0  0  0  0  0  0
    2.7878   -8.3822   16.2137 C   0  0  0  0  0  0  0  0  0  0  0  0
    9.4601   -2.6590   25.6528 C   0  0  0  0  0  0  0  0  0  0  0  0
   10.1182   -1.5672   23.1165 C   0  0  0  0  0  0  0  0  0  0  0  0
    1.0552   -9.6360   17.0650 C   0  0  0  0  0  0  0  0  0  0  0  0
    3.6519   -9.1783   16.9039 C   0  0  0  0  0  0  0  0  0  0  0  0
    7.8675   -7.0096   15.9415 C   0  0  0  0  0  0  0  0  0  0  0  0
    5.9733   -9.6553   17.3832 N   0  0  0  0  0  0  0  0  0  0  0  0
   10.2411   -2.9363   23.4301 C   0  0  0  0  0  0  0  0  0  0  0  0
   10.7288   -3.8197   19.9525 C   0  0  0  0  0  0  0  0  0  0  0  0
   10.1189   -5.0054   19.6987 C   0  0  0  0  0  0  0  0  0  0  0  0
  1  3  4  0
  1  7  4  0
  2 21  4  0
  2 27  4  0
  3  9  4  0
  3 10  4  0
  4  8  4  0
  4 18  4  0
  4 25  1  0
  5  9  4  0
  5 12  4  0
  6 13  1  0
  6 27  1  0
  7 28  4  0
  8 11  4  0
  9 29  4  0
 10 12  4  0
 11 24  1  0
 11 26  4  0
 12 25  1  0
 13 28  1  0
 14 20  4  0
 14 23  4  0
 15 17  4  0
 15 21  4  0
 16 19  4  0
 16 23  4  0
 17 22  4  0
 18 26  4  0
 19 24  4  0
 20 24  4  0
 22 27  4  0
 28 29  4  0
M  END
$$$$

 Created by Python create_sdf_string function

 29 33  0  0  0  0  0  0  0  0999 V2000
   10.7215   -3.3326   17.6437 C   0  0  0  0  0  0  0  0  0  0  0  0
    9.9489   -3.4675   24.6487 N   0  0  0  0  0  0  0  0  0  0  0  0
   10.0172   -4.4740   17.4101 C   0  0  0  0  0  0  0  0  0  0  0  0
    6.9051   -7.9575   16.4222 C   0  0  0  0  0  0  0  0  0  0  0  0
    8.9969   -6.3552   17.9668 N   0  0  0  0  0  0  0  0  0  0  0  0
   10.6702   -3.9051   22.4070 C   0  0  0  0  0  0  0  0  0  0  0  0
   11.0625   -3.0028   18.8894 C   0  0  0  0  0  0  0  0  0  0  0  0
    5.6180   -7.9194   16.1754 O   0  0  0  0  0  0  0  0  0  0  0  0
    9.7259   -5.3080   18.4485 C   0  0  0  0  0  0  0  0  0  0  0  0
    9.4578   -5.0200   16.3036 N   0  0  0  0  0  0  0  0  0  0  0  0
    5.0287   -8.9365   16.8223 C   0  0  0  0  0  0  0  0  0  0  0  0
    8.7742   -6.1498   16.6764 C   0  0  0  0  0  0  0  0  0  0  0  0
   10.9418   -3.4032   21.2053 O   0  0  0  0  0  0  0  0  0  0  0  0
    1.4797   -8.6258   16.2950 C   0  0  0  0  0  0  0  0  0  0  0  0
    9.2861   -1.2743   25.3585 C   0  0  0  0  0  0  0  0  0  0  0  0
    1.8892  -10.3985   17.7511 N   0  0  0  0  0  0  0  0  0  0  0  0
    9.6210   -0.6952   24.0976 C   0  0  0  0  0  0  0  0  0  0  0  0
    7.0792   -9.0217   17.1429 C   0  0  0  0  0  0  0  0  0  0  0  0
    3.1713  -10.1816   17.6634 C   0  0  0  0  0  0  0  0  0  0  0  0
    2.7878   -8.3822   16.2137 C   0  0  0  0  0  0  0  0  0  0  0  0
    9.4601   -2.6590   25.6528 C   0  0  0  0  0  0  0  0  0  0  0  0
   10.1182   -1.5672   23.1165 C   0  0  0  0  0  0  0  0  0  0  0  0
    1.0552   -9.6360   17.0650 C   0  0  0  0  0  0  0  0  0  0  0  0
    3.6519   -9.1783   16.9039 C   0  0  0  0  0  0  0  0  0  0  0  0
    7.8675   -7.0096   15.9415 C   0  0  0  0  0  0  0  0  0  0  0  0
    5.9733   -9.6553   17.3832 N   0  0  0  0  0  0  0  0  0  0  0  0
   10.2411   -2.9363   23.4301 C   0  0  0  0  0  0  0  0  0  0  0  0
   10.7288   -3.8197   19.9525 C   0  0  0  0  0  0  0  0  0  0  0  0
   10.1189   -5.0054   19.6987 C   0  0  0  0  0  0  0  0  0  0  0  0
  1  3  4  0
  1  7  4  0
  2 21  4  0
  2 27  4  0
  3  9  4  0
  3 10  4  0
  4  8  4  0
  4 18  4  0
  4 25  1  0
  5  9  4  0
  5 12  4  0
  6 13  1  0
  6 27  1  0
  7 28  4  0
  8 11  4  0
  9 29  4  0
 10 12  4  0
 11 24  1  0
 11 26  4  0
 12 25  1  0
 13 28  1  0
 14 20  4  0
 14 23  4  0
 15 17  4  0
 15 21  4  0
 16 19  4  0
 16 23  4  0
 17 22  4  0
 18 26  4  0
 19 24  4  0
 20 24  4  0
 22 27  4  0
 28 29  4  0
M  END
$$$$

 Created by Python create_sdf_string function

 29 33  0  0  0  0  0  0  0  0999 V2000
   10.7215   -3.3326   17.6437 C   0  0  0  0  0  0  0  0  0  0  0  0
    9.9489   -3.4675   24.6487 N   0  0  0  0  0  0  0  0  0  0  0  0
   10.0172   -4.4740   17.4101 C   0  0  0  0  0  0  0  0  0  0  0  0
    6.9051   -7.9575   16.4222 C   0  0  0  0  0  0  0  0  0  0  0  0
    8.9969   -6.3552   17.9668 N   0  0  0  0  0  0  0  0  0  0  0  0
   10.6702   -3.9051   22.4070 C   0  0  0  0  0  0  0  0  0  0  0  0
   11.0625   -3.0028   18.8894 C   0  0  0  0  0  0  0  0  0  0  0  0
    5.6180   -7.9194   16.1754 O   0  0  0  0  0  0  0  0  0  0  0  0
    9.7259   -5.3080   18.4485 C   0  0  0  0  0  0  0  0  0  0  0  0
    9.4578   -5.0200   16.3036 N   0  0  0  0  0  0  0  0  0  0  0  0
    5.0287   -8.9365   16.8223 C   0  0  0  0  0  0  0  0  0  0  0  0
    8.7742   -6.1498   16.6764 C   0  0  0  0  0  0  0  0  0  0  0  0
   10.9418   -3.4032   21.2053 O   0  0  0  0  0  0  0  0  0  0  0  0
    1.4797   -8.6258   16.2950 C   0  0  0  0  0  0  0  0  0  0  0  0
    9.2861   -1.2743   25.3585 C   0  0  0  0  0  0  0  0  0  0  0  0
    1.8892  -10.3985   17.7511 N   0  0  0  0  0  0  0  0  0  0  0  0
    9.6210   -0.6952   24.0976 C   0  0  0  0  0  0  0  0  0  0  0  0
    7.0792   -9.0217   17.1429 C   0  0  0  0  0  0  0  0  0  0  0  0
    3.1713  -10.1816   17.6634 C   0  0  0  0  0  0  0  0  0  0  0  0
    2.7878   -8.3822   16.2137 C   0  0  0  0  0  0  0  0  0  0  0  0
    9.4601   -2.6590   25.6528 C   0  0  0  0  0  0  0  0  0  0  0  0
   10.1182   -1.5672   23.1165 C   0  0  0  0  0  0  0  0  0  0  0  0
    1.0552   -9.6360   17.0650 C   0  0  0  0  0  0  0  0  0  0  0  0
    3.6519   -9.1783   16.9039 C   0  0  0  0  0  0  0  0  0  0  0  0
    7.8675   -7.0096   15.9415 C   0  0  0  0  0  0  0  0  0  0  0  0
    5.9733   -9.6553   17.3832 N   0  0  0  0  0  0  0  0  0  0  0  0
   10.2411   -2.9363   23.4301 C   0  0  0  0  0  0  0  0  0  0  0  0
   10.7288   -3.8197   19.9525 C   0  0  0  0  0  0  0  0  0  0  0  0
   10.1189   -5.0054   19.6987 C   0  0  0  0  0  0  0  0  0  0  0  0
  1  3  4  0
  1  7  4  0
  2 21  4  0
  2 27  4  0
  3  9  4  0
  3 10  4  0
  4  8  4  0
  4 18  4  0
  4 25  1  0
  5  9  4  0
  5 12  4  0
  6 13  1  0
  6 27  1  0
  7 28  4  0
  8 11  4  0
  9 29  4  0
 10 12  4  0
 11 24  1  0
 11 26  4  0
 12 25  1  0
 13 28  1  0
 14 20  4  0
 14 23  4  0
 15 17  4  0
 15 21  4  0
 16 19  4  0
 16 23  4  0
 17 22  4  0
 18 26  4  0
 19 24  4  0
 20 24  4  0
 22 27  4  0
 28 29  4  0
M  END
$$$$

 Created by Python create_sdf_string function

 29 33  0  0  0  0  0  0  0  0999 V2000
   10.7215   -3.3326   17.6437 C   0  0  0  0  0  0  0  0  0  0  0  0
    9.9489   -3.4675   24.6487 N   0  0  0  0  0  0  0  0  0  0  0  0
   10.0172   -4.4740   17.4101 C   0  0  0  0  0  0  0  0  0  0  0  0
    6.9051   -7.9575   16.4222 C   0  0  0  0  0  0  0  0  0  0  0  0
    8.9969   -6.3552   17.9668 N   0  0  0  0  0  0  0  0  0  0  0  0
   10.6702   -3.9051   22.4070 C   0  0  0  0  0  0  0  0  0  0  0  0
   11.0625   -3.0028   18.8894 C   0  0  0  0  0  0  0  0  0  0  0  0
    5.6180   -7.9194   16.1754 O   0  0  0  0  0  0  0  0  0  0  0  0
    9.7259   -5.3080   18.4485 C   0  0  0  0  0  0  0  0  0  0  0  0
    9.4578   -5.0200   16.3036 N   0  0  0  0  0  0  0  0  0  0  0  0
    5.0287   -8.9365   16.8223 C   0  0  0  0  0  0  0  0  0  0  0  0
    8.7742   -6.1498   16.6764 C   0  0  0  0  0  0  0  0  0  0  0  0
   10.9418   -3.4032   21.2053 O   0  0  0  0  0  0  0  0  0  0  0  0
    1.4797   -8.6258   16.2950 C   0  0  0  0  0  0  0  0  0  0  0  0
    9.2861   -1.2743   25.3585 C   0  0  0  0  0  0  0  0  0  0  0  0
    1.8892  -10.3985   17.7511 N   0  0  0  0  0  0  0  0  0  0  0  0
    9.6210   -0.6952   24.0976 C   0  0  0  0  0  0  0  0  0  0  0  0
    7.0792   -9.0217   17.1429 C   0  0  0  0  0  0  0  0  0  0  0  0
    3.1713  -10.1816   17.6634 C   0  0  0  0  0  0  0  0  0  0  0  0
    2.7878   -8.3822   16.2137 C   0  0  0  0  0  0  0  0  0  0  0  0
    9.4601   -2.6590   25.6528 C   0  0  0  0  0  0  0  0  0  0  0  0
   10.1182   -1.5672   23.1165 C   0  0  0  0  0  0  0  0  0  0  0  0
    1.0552   -9.6360   17.0650 C   0  0  0  0  0  0  0  0  0  0  0  0
    3.6519   -9.1783   16.9039 C   0  0  0  0  0  0  0  0  0  0  0  0
    7.8675   -7.0096   15.9415 C   0  0  0  0  0  0  0  0  0  0  0  0
    5.9733   -9.6553   17.3832 N   0  0  0  0  0  0  0  0  0  0  0  0
   10.2411   -2.9363   23.4301 C   0  0  0  0  0  0  0  0  0  0  0  0
   10.7288   -3.8197   19.9525 C   0  0  0  0  0  0  0  0  0  0  0  0
   10.1189   -5.0054   19.6987 C   0  0  0  0  0  0  0  0  0  0  0  0
  1  3  4  0
  1  7  4  0
  2 21  4  0
  2 27  4  0
  3  9  4  0
  3 10  4  0
  4  8  4  0
  4 18  4  0
  4 25  1  0
  5  9  4  0
  5 12  4  0
  6 13  1  0
  6 27  1  0
  7 28  4  0
  8 11  4  0
  9 29  4  0
 10 12  4  0
 11 24  1  0
 11 26  4  0
 12 25  1  0
 13 28  1  0
 14 20  4  0
 14 23  4  0
 15 17  4  0
 15 21  4  0
 16 19  4  0
 16 23  4  0
 17 22  4  0
 18 26  4  0
 19 24  4  0
 20 24  4  0
 22 27  4  0
 28 29  4  0
M  END
$$$$

 Created by Python create_sdf_string function

 29 33  0  0  0  0  0  0  0  0999 V2000
   10.7215   -3.3326   17.6437 C   0  0  0  0  0  0  0  0  0  0  0  0
    9.9489   -3.4675   24.6487 N   0  0  0  0  0  0  0  0  0  0  0  0
   10.0172   -4.4740   17.4101 C   0  0  0  0  0  0  0  0  0  0  0  0
    6.9051   -7.9575   16.4222 C   0  0  0  0  0  0  0  0  0  0  0  0
    8.9969   -6.3552   17.9668 N   0  0  0  0  0  0  0  0  0  0  0  0
   10.6702   -3.9051   22.4070 C   0  0  0  0  0  0  0  0  0  0  0  0
   11.0625   -3.0028   18.8894 C   0  0  0  0  0  0  0  0  0  0  0  0
    5.6180   -7.9194   16.1754 O   0  0  0  0  0  0  0  0  0  0  0  0
    9.7259   -5.3080   18.4485 C   0  0  0  0  0  0  0  0  0  0  0  0
    9.4578   -5.0200   16.3036 N   0  0  0  0  0  0  0  0  0  0  0  0
    5.0287   -8.9365   16.8223 C   0  0  0  0  0  0  0  0  0  0  0  0
    8.7742   -6.1498   16.6764 C   0  0  0  0  0  0  0  0  0  0  0  0
   10.9418   -3.4032   21.2053 O   0  0  0  0  0  0  0  0  0  0  0  0
    1.4797   -8.6258   16.2950 C   0  0  0  0  0  0  0  0  0  0  0  0
    9.2861   -1.2743   25.3585 C   0  0  0  0  0  0  0  0  0  0  0  0
    1.8892  -10.3985   17.7511 N   0  0  0  0  0  0  0  0  0  0  0  0
    9.6210   -0.6952   24.0976 C   0  0  0  0  0  0  0  0  0  0  0  0
    7.0792   -9.0217   17.1429 C   0  0  0  0  0  0  0  0  0  0  0  0
    3.1713  -10.1816   17.6634 C   0  0  0  0  0  0  0  0  0  0  0  0
    2.7878   -8.3822   16.2137 C   0  0  0  0  0  0  0  0  0  0  0  0
    9.4601   -2.6590   25.6528 C   0  0  0  0  0  0  0  0  0  0  0  0
   10.1182   -1.5672   23.1165 C   0  0  0  0  0  0  0  0  0  0  0  0
    1.0552   -9.6360   17.0650 C   0  0  0  0  0  0  0  0  0  0  0  0
    3.6519   -9.1783   16.9039 C   0  0  0  0  0  0  0  0  0  0  0  0
    7.8675   -7.0096   15.9415 C   0  0  0  0  0  0  0  0  0  0  0  0
    5.9733   -9.6553   17.3832 N   0  0  0  0  0  0  0  0  0  0  0  0
   10.2411   -2.9363   23.4301 C   0  0  0  0  0  0  0  0  0  0  0  0
   10.7288   -3.8197   19.9525 C   0  0  0  0  0  0  0  0  0  0  0  0
   10.1189   -5.0054   19.6987 C   0  0  0  0  0  0  0  0  0  0  0  0
  1  3  4  0
  1  7  4  0
  2 21  4  0
  2 27  4  0
  3  9  4  0
  3 10  4  0
  4  8  4  0
  4 18  4  0
  4 25  1  0
  5  9  4  0
  5 12  4  0
  6 13  1  0
  6 27  1  0
  7 28  4  0
  8 11  4  0
  9 29  4  0
 10 12  4  0
 11 24  1  0
 11 26  4  0
 12 25  1  0
 13 28  1  0
 14 20  4  0
 14 23  4  0
 15 17  4  0
 15 21  4  0
 16 19  4  0
 16 23  4  0
 17 22  4  0
 18 26  4  0
 19 24  4  0
 20 24  4  0
 22 27  4  0
 28 29  4  0
M  END
$$$$

 Created by Python create_sdf_string function

 29 33  0  0  0  0  0  0  0  0999 V2000
   10.7215   -3.3326   17.6437 C   0  0  0  0  0  0  0  0  0  0  0  0
    9.9489   -3.4675   24.6487 N   0  0  0  0  0  0  0  0  0  0  0  0
   10.0172   -4.4740   17.4101 C   0  0  0  0  0  0  0  0  0  0  0  0
    6.9051   -7.9575   16.4222 C   0  0  0  0  0  0  0  0  0  0  0  0
    8.9969   -6.3552   17.9668 N   0  0  0  0  0  0  0  0  0  0  0  0
   10.6702   -3.9051   22.4070 C   0  0  0  0  0  0  0  0  0  0  0  0
   11.0625   -3.0028   18.8894 C   0  0  0  0  0  0  0  0  0  0  0  0
    5.6180   -7.9194   16.1754 O   0  0  0  0  0  0  0  0  0  0  0  0
    9.7259   -5.3080   18.4485 C   0  0  0  0  0  0  0  0  0  0  0  0
    9.4578   -5.0200   16.3036 N   0  0  0  0  0  0  0  0  0  0  0  0
    5.0287   -8.9365   16.8223 C   0  0  0  0  0  0  0  0  0  0  0  0
    8.7742   -6.1498   16.6764 C   0  0  0  0  0  0  0  0  0  0  0  0
   10.9418   -3.4032   21.2053 O   0  0  0  0  0  0  0  0  0  0  0  0
    1.4797   -8.6258   16.2950 C   0  0  0  0  0  0  0  0  0  0  0  0
    9.2861   -1.2743   25.3585 C   0  0  0  0  0  0  0  0  0  0  0  0
    1.8892  -10.3985   17.7511 N   0  0  0  0  0  0  0  0  0  0  0  0
    9.6210   -0.6952   24.0976 C   0  0  0  0  0  0  0  0  0  0  0  0
    7.0792   -9.0217   17.1429 C   0  0  0  0  0  0  0  0  0  0  0  0
    3.1713  -10.1816   17.6634 C   0  0  0  0  0  0  0  0  0  0  0  0
    2.7878   -8.3822   16.2137 C   0  0  0  0  0  0  0  0  0  0  0  0
    9.4601   -2.6590   25.6528 C   0  0  0  0  0  0  0  0  0  0  0  0
   10.1182   -1.5672   23.1165 C   0  0  0  0  0  0  0  0  0  0  0  0
    1.0552   -9.6360   17.0650 C   0  0  0  0  0  0  0  0  0  0  0  0
    3.6519   -9.1783   16.9039 C   0  0  0  0  0  0  0  0  0  0  0  0
    7.8675   -7.0096   15.9415 C   0  0  0  0  0  0  0  0  0  0  0  0
    5.9733   -9.6553   17.3832 N   0  0  0  0  0  0  0  0  0  0  0  0
   10.2411   -2.9363   23.4301 C   0  0  0  0  0  0  0  0  0  0  0  0
   10.7288   -3.8197   19.9525 C   0  0  0  0  0  0  0  0  0  0  0  0
   10.1189   -5.0054   19.6987 C   0  0  0  0  0  0  0  0  0  0  0  0
  1  3  4  0
  1  7  4  0
  2 21  4  0
  2 27  4  0
  3  9  4  0
  3 10  4  0
  4  8  4  0
  4 18  4  0
  4 25  1  0
  5  9  4  0
  5 12  4  0
  6 13  1  0
  6 27  1  0
  7 28  4  0
  8 11  4  0
  9 29  4  0
 10 12  4  0
 11 24  1  0
 11 26  4  0
 12 25  1  0
 13 28  1  0
 14 20  4  0
 14 23  4  0
 15 17  4  0
 15 21  4  0
 16 19  4  0
 16 23  4  0
 17 22  4  0
 18 26  4  0
 19 24  4  0
 20 24  4  0
 22 27  4  0
 28 29  4  0
M  END
$$$$

 Created by Python create_sdf_string function

 29 33  0  0  0  0  0  0  0  0999 V2000
   10.7215   -3.3326   17.6437 C   0  0  0  0  0  0  0  0  0  0  0  0
    9.9489   -3.4675   24.6487 N   0  0  0  0  0  0  0  0  0  0  0  0
   10.0172   -4.4740   17.4101 C   0  0  0  0  0  0  0  0  0  0  0  0
    6.9051   -7.9575   16.4222 C   0  0  0  0  0  0  0  0  0  0  0  0
    8.9969   -6.3552   17.9668 N   0  0  0  0  0  0  0  0  0  0  0  0
   10.6702   -3.9051   22.4070 C   0  0  0  0  0  0  0  0  0  0  0  0
   11.0625   -3.0028   18.8894 C   0  0  0  0  0  0  0  0  0  0  0  0
    5.6180   -7.9194   16.1754 O   0  0  0  0  0  0  0  0  0  0  0  0
    9.7259   -5.3080   18.4485 C   0  0  0  0  0  0  0  0  0  0  0  0
    9.4578   -5.0200   16.3036 N   0  0  0  0  0  0  0  0  0  0  0  0
    5.0287   -8.9365   16.8223 C   0  0  0  0  0  0  0  0  0  0  0  0
    8.7742   -6.1498   16.6764 C   0  0  0  0  0  0  0  0  0  0  0  0
   10.9418   -3.4032   21.2053 O   0  0  0  0  0  0  0  0  0  0  0  0
    1.4797   -8.6258   16.2950 C   0  0  0  0  0  0  0  0  0  0  0  0
    9.2861   -1.2743   25.3585 C   0  0  0  0  0  0  0  0  0  0  0  0
    1.8892  -10.3985   17.7511 N   0  0  0  0  0  0  0  0  0  0  0  0
    9.6210   -0.6952   24.0976 C   0  0  0  0  0  0  0  0  0  0  0  0
    7.0792   -9.0217   17.1429 C   0  0  0  0  0  0  0  0  0  0  0  0
    3.1713  -10.1816   17.6634 C   0  0  0  0  0  0  0  0  0  0  0  0
    2.7878   -8.3822   16.2137 C   0  0  0  0  0  0  0  0  0  0  0  0
    9.4601   -2.6590   25.6528 C   0  0  0  0  0  0  0  0  0  0  0  0
   10.1182   -1.5672   23.1165 C   0  0  0  0  0  0  0  0  0  0  0  0
    1.0552   -9.6360   17.0650 C   0  0  0  0  0  0  0  0  0  0  0  0
    3.6519   -9.1783   16.9039 C   0  0  0  0  0  0  0  0  0  0  0  0
    7.8675   -7.0096   15.9415 C   0  0  0  0  0  0  0  0  0  0  0  0
    5.9733   -9.6553   17.3832 N   0  0  0  0  0  0  0  0  0  0  0  0
   10.2411   -2.9363   23.4301 C   0  0  0  0  0  0  0  0  0  0  0  0
   10.7288   -3.8197   19.9525 C   0  0  0  0  0  0  0  0  0  0  0  0
   10.1189   -5.0054   19.6987 C   0  0  0  0  0  0  0  0  0  0  0  0
  1  3  4  0
  1  7  4  0
  2 21  4  0
  2 27  4  0
  3  9  4  0
  3 10  4  0
  4  8  4  0
  4 18  4  0
  4 25  1  0
  5  9  4  0
  5 12  4  0
  6 13  1  0
  6 27  1  0
  7 28  4  0
  8 11  4  0
  9 29  4  0
 10 12  4  0
 11 24  1  0
 11 26  4  0
 12 25  1  0
 13 28  1  0
 14 20  4  0
 14 23  4  0
 15 17  4  0
 15 21  4  0
 16 19  4  0
 16 23  4  0
 17 22  4  0
 18 26  4  0
 19 24  4  0
 20 24  4  0
 22 27  4  0
 28 29  4  0
M  END
$$$$

 Created by Python create_sdf_string function

 29 33  0  0  0  0  0  0  0  0999 V2000
   10.7215   -3.3326   17.6437 C   0  0  0  0  0  0  0  0  0  0  0  0
    9.9489   -3.4675   24.6487 N   0  0  0  0  0  0  0  0  0  0  0  0
   10.0172   -4.4740   17.4101 C   0  0  0  0  0  0  0  0  0  0  0  0
    6.9051   -7.9575   16.4222 C   0  0  0  0  0  0  0  0  0  0  0  0
    8.9969   -6.3552   17.9668 N   0  0  0  0  0  0  0  0  0  0  0  0
   10.6702   -3.9051   22.4070 C   0  0  0  0  0  0  0  0  0  0  0  0
   11.0625   -3.0028   18.8894 C   0  0  0  0  0  0  0  0  0  0  0  0
    5.6180   -7.9194   16.1754 O   0  0  0  0  0  0  0  0  0  0  0  0
    9.7259   -5.3080   18.4485 C   0  0  0  0  0  0  0  0  0  0  0  0
    9.4578   -5.0200   16.3036 N   0  0  0  0  0  0  0  0  0  0  0  0
    5.0287   -8.9365   16.8223 C   0  0  0  0  0  0  0  0  0  0  0  0
    8.7742   -6.1498   16.6764 C   0  0  0  0  0  0  0  0  0  0  0  0
   10.9418   -3.4032   21.2053 O   0  0  0  0  0  0  0  0  0  0  0  0
    1.4797   -8.6258   16.2950 C   0  0  0  0  0  0  0  0  0  0  0  0
    9.2861   -1.2743   25.3585 C   0  0  0  0  0  0  0  0  0  0  0  0
    1.8892  -10.3985   17.7511 N   0  0  0  0  0  0  0  0  0  0  0  0
    9.6210   -0.6952   24.0976 C   0  0  0  0  0  0  0  0  0  0  0  0
    7.0792   -9.0217   17.1429 C   0  0  0  0  0  0  0  0  0  0  0  0
    3.1713  -10.1816   17.6634 C   0  0  0  0  0  0  0  0  0  0  0  0
    2.7878   -8.3822   16.2137 C   0  0  0  0  0  0  0  0  0  0  0  0
    9.4601   -2.6590   25.6528 C   0  0  0  0  0  0  0  0  0  0  0  0
   10.1182   -1.5672   23.1165 C   0  0  0  0  0  0  0  0  0  0  0  0
    1.0552   -9.6360   17.0650 C   0  0  0  0  0  0  0  0  0  0  0  0
    3.6519   -9.1783   16.9039 C   0  0  0  0  0  0  0  0  0  0  0  0
    7.8675   -7.0096   15.9415 C   0  0  0  0  0  0  0  0  0  0  0  0
    5.9733   -9.6553   17.3832 N   0  0  0  0  0  0  0  0  0  0  0  0
   10.2411   -2.9363   23.4301 C   0  0  0  0  0  0  0  0  0  0  0  0
   10.7288   -3.8197   19.9525 C   0  0  0  0  0  0  0  0  0  0  0  0
   10.1189   -5.0054   19.6987 C   0  0  0  0  0  0  0  0  0  0  0  0
  1  3  4  0
  1  7  4  0
  2 21  4  0
  2 27  4  0
  3  9  4  0
  3 10  4  0
  4  8  4  0
  4 18  4  0
  4 25  1  0
  5  9  4  0
  5 12  4  0
  6 13  1  0
  6 27  1  0
  7 28  4  0
  8 11  4  0
  9 29  4  0
 10 12  4  0
 11 24  1  0
 11 26  4  0
 12 25  1  0
 13 28  1  0
 14 20  4  0
 14 23  4  0
 15 17  4  0
 15 21  4  0
 16 19  4  0
 16 23  4  0
 17 22  4  0
 18 26  4  0
 19 24  4  0
 20 24  4  0
 22 27  4  0
 28 29  4  0
M  END
$$$$

 Created by Python create_sdf_string function

 29 33  0  0  0  0  0  0  0  0999 V2000
   10.7215   -3.3326   17.6437 C   0  0  0  0  0  0  0  0  0  0  0  0
    9.9489   -3.4675   24.6487 N   0  0  0  0  0  0  0  0  0  0  0  0
   10.0172   -4.4740   17.4101 C   0  0  0  0  0  0  0  0  0  0  0  0
    6.9051   -7.9575   16.4222 C   0  0  0  0  0  0  0  0  0  0  0  0
    8.9969   -6.3552   17.9668 N   0  0  0  0  0  0  0  0  0  0  0  0
   10.6702   -3.9051   22.4070 C   0  0  0  0  0  0  0  0  0  0  0  0
   11.0625   -3.0028   18.8894 C   0  0  0  0  0  0  0  0  0  0  0  0
    5.6180   -7.9194   16.1754 O   0  0  0  0  0  0  0  0  0  0  0  0
    9.7259   -5.3080   18.4485 C   0  0  0  0  0  0  0  0  0  0  0  0
    9.4578   -5.0200   16.3036 N   0  0  0  0  0  0  0  0  0  0  0  0
    5.0287   -8.9365   16.8223 C   0  0  0  0  0  0  0  0  0  0  0  0
    8.7742   -6.1498   16.6764 C   0  0  0  0  0  0  0  0  0  0  0  0
   10.9418   -3.4032   21.2053 O   0  0  0  0  0  0  0  0  0  0  0  0
    1.4797   -8.6258   16.2950 C   0  0  0  0  0  0  0  0  0  0  0  0
    9.2861   -1.2743   25.3585 C   0  0  0  0  0  0  0  0  0  0  0  0
    1.8892  -10.3985   17.7511 N   0  0  0  0  0  0  0  0  0  0  0  0
    9.6210   -0.6952   24.0976 C   0  0  0  0  0  0  0  0  0  0  0  0
    7.0792   -9.0217   17.1429 C   0  0  0  0  0  0  0  0  0  0  0  0
    3.1713  -10.1816   17.6634 C   0  0  0  0  0  0  0  0  0  0  0  0
    2.7878   -8.3822   16.2137 C   0  0  0  0  0  0  0  0  0  0  0  0
    9.4601   -2.6590   25.6528 C   0  0  0  0  0  0  0  0  0  0  0  0
   10.1182   -1.5672   23.1165 C   0  0  0  0  0  0  0  0  0  0  0  0
    1.0552   -9.6360   17.0650 C   0  0  0  0  0  0  0  0  0  0  0  0
    3.6519   -9.1783   16.9039 C   0  0  0  0  0  0  0  0  0  0  0  0
    7.8675   -7.0096   15.9415 C   0  0  0  0  0  0  0  0  0  0  0  0
    5.9733   -9.6553   17.3832 N   0  0  0  0  0  0  0  0  0  0  0  0
   10.2411   -2.9363   23.4301 C   0  0  0  0  0  0  0  0  0  0  0  0
   10.7288   -3.8197   19.9525 C   0  0  0  0  0  0  0  0  0  0  0  0
   10.1189   -5.0054   19.6987 C   0  0  0  0  0  0  0  0  0  0  0  0
  1  3  4  0
  1  7  4  0
  2 21  4  0
  2 27  4  0
  3  9  4  0
  3 10  4  0
  4  8  4  0
  4 18  4  0
  4 25  1  0
  5  9  4  0
  5 12  4  0
  6 13  1  0
  6 27  1  0
  7 28  4  0
  8 11  4  0
  9 29  4  0
 10 12  4  0
 11 24  1  0
 11 26  4  0
 12 25  1  0
 13 28  1  0
 14 20  4  0
 14 23  4  0
 15 17  4  0
 15 21  4  0
 16 19  4  0
 16 23  4  0
 17 22  4  0
 18 26  4  0
 19 24  4  0
 20 24  4  0
 22 27  4  0
 28 29  4  0
M  END
$$$$

 Created by Python create_sdf_string function

 29 33  0  0  0  0  0  0  0  0999 V2000
   10.7215   -3.3326   17.6437 C   0  0  0  0  0  0  0  0  0  0  0  0
    9.9489   -3.4675   24.6487 N   0  0  0  0  0  0  0  0  0  0  0  0
   10.0172   -4.4740   17.4101 C   0  0  0  0  0  0  0  0  0  0  0  0
    6.9051   -7.9575   16.4222 C   0  0  0  0  0  0  0  0  0  0  0  0
    8.9969   -6.3552   17.9668 N   0  0  0  0  0  0  0  0  0  0  0  0
   10.6702   -3.9051   22.4070 C   0  0  0  0  0  0  0  0  0  0  0  0
   11.0625   -3.0028   18.8894 C   0  0  0  0  0  0  0  0  0  0  0  0
    5.6180   -7.9194   16.1754 O   0  0  0  0  0  0  0  0  0  0  0  0
    9.7259   -5.3080   18.4485 C   0  0  0  0  0  0  0  0  0  0  0  0
    9.4578   -5.0200   16.3036 N   0  0  0  0  0  0  0  0  0  0  0  0
    5.0287   -8.9365   16.8223 C   0  0  0  0  0  0  0  0  0  0  0  0
    8.7742   -6.1498   16.6764 C   0  0  0  0  0  0  0  0  0  0  0  0
   10.9418   -3.4032   21.2053 O   0  0  0  0  0  0  0  0  0  0  0  0
    1.4797   -8.6258   16.2950 C   0  0  0  0  0  0  0  0  0  0  0  0
    9.2861   -1.2743   25.3585 C   0  0  0  0  0  0  0  0  0  0  0  0
    1.8892  -10.3985   17.7511 N   0  0  0  0  0  0  0  0  0  0  0  0
    9.6210   -0.6952   24.0976 C   0  0  0  0  0  0  0  0  0  0  0  0
    7.0792   -9.0217   17.1429 C   0  0  0  0  0  0  0  0  0  0  0  0
    3.1713  -10.1816   17.6634 C   0  0  0  0  0  0  0  0  0  0  0  0
    2.7878   -8.3822   16.2137 C   0  0  0  0  0  0  0  0  0  0  0  0
    9.4601   -2.6590   25.6528 C   0  0  0  0  0  0  0  0  0  0  0  0
   10.1182   -1.5672   23.1165 C   0  0  0  0  0  0  0  0  0  0  0  0
    1.0552   -9.6360   17.0650 C   0  0  0  0  0  0  0  0  0  0  0  0
    3.6519   -9.1783   16.9039 C   0  0  0  0  0  0  0  0  0  0  0  0
    7.8675   -7.0096   15.9415 C   0  0  0  0  0  0  0  0  0  0  0  0
    5.9733   -9.6553   17.3832 N   0  0  0  0  0  0  0  0  0  0  0  0
   10.2411   -2.9363   23.4301 C   0  0  0  0  0  0  0  0  0  0  0  0
   10.7288   -3.8197   19.9525 C   0  0  0  0  0  0  0  0  0  0  0  0
   10.1189   -5.0054   19.6987 C   0  0  0  0  0  0  0  0  0  0  0  0
  1  3  4  0
  1  7  4  0
  2 21  4  0
  2 27  4  0
  3  9  4  0
  3 10  4  0
  4  8  4  0
  4 18  4  0
  4 25  1  0
  5  9  4  0
  5 12  4  0
  6 13  1  0
  6 27  1  0
  7 28  4  0
  8 11  4  0
  9 29  4  0
 10 12  4  0
 11 24  1  0
 11 26  4  0
 12 25  1  0
 13 28  1  0
 14 20  4  0
 14 23  4  0
 15 17  4  0
 15 21  4  0
 16 19  4  0
 16 23  4  0
 17 22  4  0
 18 26  4  0
 19 24  4  0
 20 24  4  0
 22 27  4  0
 28 29  4  0
M  END
$$$$

 Created by Python create_sdf_string function

 29 33  0  0  0  0  0  0  0  0999 V2000
   10.7215   -3.3326   17.6437 C   0  0  0  0  0  0  0  0  0  0  0  0
    9.9489   -3.4675   24.6487 N   0  0  0  0  0  0  0  0  0  0  0  0
   10.0172   -4.4740   17.4101 C   0  0  0  0  0  0  0  0  0  0  0  0
    6.9051   -7.9575   16.4222 C   0  0  0  0  0  0  0  0  0  0  0  0
    8.9969   -6.3552   17.9668 N   0  0  0  0  0  0  0  0  0  0  0  0
   10.6702   -3.9051   22.4070 C   0  0  0  0  0  0  0  0  0  0  0  0
   11.0625   -3.0028   18.8894 C   0  0  0  0  0  0  0  0  0  0  0  0
    5.6180   -7.9194   16.1754 O   0  0  0  0  0  0  0  0  0  0  0  0
    9.7259   -5.3080   18.4485 C   0  0  0  0  0  0  0  0  0  0  0  0
    9.4578   -5.0200   16.3036 N   0  0  0  0  0  0  0  0  0  0  0  0
    5.0287   -8.9365   16.8223 C   0  0  0  0  0  0  0  0  0  0  0  0
    8.7742   -6.1498   16.6764 C   0  0  0  0  0  0  0  0  0  0  0  0
   10.9418   -3.4032   21.2053 O   0  0  0  0  0  0  0  0  0  0  0  0
    1.4797   -8.6258   16.2950 C   0  0  0  0  0  0  0  0  0  0  0  0
    9.2861   -1.2743   25.3585 C   0  0  0  0  0  0  0  0  0  0  0  0
    1.8892  -10.3985   17.7511 N   0  0  0  0  0  0  0  0  0  0  0  0
    9.6210   -0.6952   24.0976 C   0  0  0  0  0  0  0  0  0  0  0  0
    7.0792   -9.0217   17.1429 C   0  0  0  0  0  0  0  0  0  0  0  0
    3.1713  -10.1816   17.6634 C   0  0  0  0  0  0  0  0  0  0  0  0
    2.7878   -8.3822   16.2137 C   0  0  0  0  0  0  0  0  0  0  0  0
    9.4601   -2.6590   25.6528 C   0  0  0  0  0  0  0  0  0  0  0  0
   10.1182   -1.5672   23.1165 C   0  0  0  0  0  0  0  0  0  0  0  0
    1.0552   -9.6360   17.0650 C   0  0  0  0  0  0  0  0  0  0  0  0
    3.6519   -9.1783   16.9039 C   0  0  0  0  0  0  0  0  0  0  0  0
    7.8675   -7.0096   15.9415 C   0  0  0  0  0  0  0  0  0  0  0  0
    5.9733   -9.6553   17.3832 N   0  0  0  0  0  0  0  0  0  0  0  0
   10.2411   -2.9363   23.4301 C   0  0  0  0  0  0  0  0  0  0  0  0
   10.7288   -3.8197   19.9525 C   0  0  0  0  0  0  0  0  0  0  0  0
   10.1189   -5.0054   19.6987 C   0  0  0  0  0  0  0  0  0  0  0  0
  1  3  4  0
  1  7  4  0
  2 21  4  0
  2 27  4  0
  3  9  4  0
  3 10  4  0
  4  8  4  0
  4 18  4  0
  4 25  1  0
  5  9  4  0
  5 12  4  0
  6 13  1  0
  6 27  1  0
  7 28  4  0
  8 11  4  0
  9 29  4  0
 10 12  4  0
 11 24  1  0
 11 26  4  0
 12 25  1  0
 13 28  1  0
 14 20  4  0
 14 23  4  0
 15 17  4  0
 15 21  4  0
 16 19  4  0
 16 23  4  0
 17 22  4  0
 18 26  4  0
 19 24  4  0
 20 24  4  0
 22 27  4  0
 28 29  4  0
M  END
$$$$

 Created by Python create_sdf_string function

 29 33  0  0  0  0  0  0  0  0999 V2000
   10.7215   -3.3326   17.6437 C   0  0  0  0  0  0  0  0  0  0  0  0
    9.9489   -3.4675   24.6487 N   0  0  0  0  0  0  0  0  0  0  0  0
   10.0172   -4.4740   17.4101 C   0  0  0  0  0  0  0  0  0  0  0  0
    6.9051   -7.9575   16.4222 C   0  0  0  0  0  0  0  0  0  0  0  0
    8.9969   -6.3552   17.9668 N   0  0  0  0  0  0  0  0  0  0  0  0
   10.6702   -3.9051   22.4070 C   0  0  0  0  0  0  0  0  0  0  0  0
   11.0625   -3.0028   18.8894 C   0  0  0  0  0  0  0  0  0  0  0  0
    5.6180   -7.9194   16.1754 O   0  0  0  0  0  0  0  0  0  0  0  0
    9.7259   -5.3080   18.4485 C   0  0  0  0  0  0  0  0  0  0  0  0
    9.4578   -5.0200   16.3036 N   0  0  0  0  0  0  0  0  0  0  0  0
    5.0287   -8.9365   16.8223 C   0  0  0  0  0  0  0  0  0  0  0  0
    8.7742   -6.1498   16.6764 C   0  0  0  0  0  0  0  0  0  0  0  0
   10.9418   -3.4032   21.2053 O   0  0  0  0  0  0  0  0  0  0  0  0
    1.4797   -8.6258   16.2950 C   0  0  0  0  0  0  0  0  0  0  0  0
    9.2861   -1.2743   25.3585 C   0  0  0  0  0  0  0  0  0  0  0  0
    1.8892  -10.3985   17.7511 N   0  0  0  0  0  0  0  0  0  0  0  0
    9.6210   -0.6952   24.0976 C   0  0  0  0  0  0  0  0  0  0  0  0
    7.0792   -9.0217   17.1429 C   0  0  0  0  0  0  0  0  0  0  0  0
    3.1713  -10.1816   17.6634 C   0  0  0  0  0  0  0  0  0  0  0  0
    2.7878   -8.3822   16.2137 C   0  0  0  0  0  0  0  0  0  0  0  0
    9.4601   -2.6590   25.6528 C   0  0  0  0  0  0  0  0  0  0  0  0
   10.1182   -1.5672   23.1165 C   0  0  0  0  0  0  0  0  0  0  0  0
    1.0552   -9.6360   17.0650 C   0  0  0  0  0  0  0  0  0  0  0  0
    3.6519   -9.1783   16.9039 C   0  0  0  0  0  0  0  0  0  0  0  0
    7.8675   -7.0096   15.9415 C   0  0  0  0  0  0  0  0  0  0  0  0
    5.9733   -9.6553   17.3832 N   0  0  0  0  0  0  0  0  0  0  0  0
   10.2411   -2.9363   23.4301 C   0  0  0  0  0  0  0  0  0  0  0  0
   10.7288   -3.8197   19.9525 C   0  0  0  0  0  0  0  0  0  0  0  0
   10.1189   -5.0054   19.6987 C   0  0  0  0  0  0  0  0  0  0  0  0
  1  3  4  0
  1  7  4  0
  2 21  4  0
  2 27  4  0
  3  9  4  0
  3 10  4  0
  4  8  4  0
  4 18  4  0
  4 25  1  0
  5  9  4  0
  5 12  4  0
  6 13  1  0
  6 27  1  0
  7 28  4  0
  8 11  4  0
  9 29  4  0
 10 12  4  0
 11 24  1  0
 11 26  4  0
 12 25  1  0
 13 28  1  0
 14 20  4  0
 14 23  4  0
 15 17  4  0
 15 21  4  0
 16 19  4  0
 16 23  4  0
 17 22  4  0
 18 26  4  0
 19 24  4  0
 20 24  4  0
 22 27  4  0
 28 29  4  0
M  END
$$$$

 Created by Python create_sdf_string function

 29 33  0  0  0  0  0  0  0  0999 V2000
   10.7215   -3.3326   17.6437 C   0  0  0  0  0  0  0  0  0  0  0  0
    9.9489   -3.4675   24.6487 N   0  0  0  0  0  0  0  0  0  0  0  0
   10.0172   -4.4740   17.4101 C   0  0  0  0  0  0  0  0  0  0  0  0
    6.9051   -7.9575   16.4222 C   0  0  0  0  0  0  0  0  0  0  0  0
    8.9969   -6.3552   17.9668 N   0  0  0  0  0  0  0  0  0  0  0  0
   10.6702   -3.9051   22.4070 C   0  0  0  0  0  0  0  0  0  0  0  0
   11.0625   -3.0028   18.8894 C   0  0  0  0  0  0  0  0  0  0  0  0
    5.6180   -7.9194   16.1754 O   0  0  0  0  0  0  0  0  0  0  0  0
    9.7259   -5.3080   18.4485 C   0  0  0  0  0  0  0  0  0  0  0  0
    9.4578   -5.0200   16.3036 N   0  0  0  0  0  0  0  0  0  0  0  0
    5.0287   -8.9365   16.8223 C   0  0  0  0  0  0  0  0  0  0  0  0
    8.7742   -6.1498   16.6764 C   0  0  0  0  0  0  0  0  0  0  0  0
   10.9418   -3.4032   21.2053 O   0  0  0  0  0  0  0  0  0  0  0  0
    1.4797   -8.6258   16.2950 C   0  0  0  0  0  0  0  0  0  0  0  0
    9.2861   -1.2743   25.3585 C   0  0  0  0  0  0  0  0  0  0  0  0
    1.8892  -10.3985   17.7511 N   0  0  0  0  0  0  0  0  0  0  0  0
    9.6210   -0.6952   24.0976 C   0  0  0  0  0  0  0  0  0  0  0  0
    7.0792   -9.0217   17.1429 C   0  0  0  0  0  0  0  0  0  0  0  0
    3.1713  -10.1816   17.6634 C   0  0  0  0  0  0  0  0  0  0  0  0
    2.7878   -8.3822   16.2137 C   0  0  0  0  0  0  0  0  0  0  0  0
    9.4601   -2.6590   25.6528 C   0  0  0  0  0  0  0  0  0  0  0  0
   10.1182   -1.5672   23.1165 C   0  0  0  0  0  0  0  0  0  0  0  0
    1.0552   -9.6360   17.0650 C   0  0  0  0  0  0  0  0  0  0  0  0
    3.6519   -9.1783   16.9039 C   0  0  0  0  0  0  0  0  0  0  0  0
    7.8675   -7.0096   15.9415 C   0  0  0  0  0  0  0  0  0  0  0  0
    5.9733   -9.6553   17.3832 N   0  0  0  0  0  0  0  0  0  0  0  0
   10.2411   -2.9363   23.4301 C   0  0  0  0  0  0  0  0  0  0  0  0
   10.7288   -3.8197   19.9525 C   0  0  0  0  0  0  0  0  0  0  0  0
   10.1189   -5.0054   19.6987 C   0  0  0  0  0  0  0  0  0  0  0  0
  1  3  4  0
  1  7  4  0
  2 21  4  0
  2 27  4  0
  3  9  4  0
  3 10  4  0
  4  8  4  0
  4 18  4  0
  4 25  1  0
  5  9  4  0
  5 12  4  0
  6 13  1  0
  6 27  1  0
  7 28  4  0
  8 11  4  0
  9 29  4  0
 10 12  4  0
 11 24  1  0
 11 26  4  0
 12 25  1  0
 13 28  1  0
 14 20  4  0
 14 23  4  0
 15 17  4  0
 15 21  4  0
 16 19  4  0
 16 23  4  0
 17 22  4  0
 18 26  4  0
 19 24  4  0
 20 24  4  0
 22 27  4  0
 28 29  4  0
M  END
$$$$

 Created by Python create_sdf_string function

 29 33  0  0  0  0  0  0  0  0999 V2000
   10.7215   -3.3326   17.6437 C   0  0  0  0  0  0  0  0  0  0  0  0
    9.9489   -3.4675   24.6487 N   0  0  0  0  0  0  0  0  0  0  0  0
   10.0172   -4.4740   17.4101 C   0  0  0  0  0  0  0  0  0  0  0  0
    6.9051   -7.9575   16.4222 C   0  0  0  0  0  0  0  0  0  0  0  0
    8.9969   -6.3552   17.9668 N   0  0  0  0  0  0  0  0  0  0  0  0
   10.6702   -3.9051   22.4070 C   0  0  0  0  0  0  0  0  0  0  0  0
   11.0625   -3.0028   18.8894 C   0  0  0  0  0  0  0  0  0  0  0  0
    5.6180   -7.9194   16.1754 O   0  0  0  0  0  0  0  0  0  0  0  0
    9.7259   -5.3080   18.4485 C   0  0  0  0  0  0  0  0  0  0  0  0
    9.4578   -5.0200   16.3036 N   0  0  0  0  0  0  0  0  0  0  0  0
    5.0287   -8.9365   16.8223 C   0  0  0  0  0  0  0  0  0  0  0  0
    8.7742   -6.1498   16.6764 C   0  0  0  0  0  0  0  0  0  0  0  0
   10.9418   -3.4032   21.2053 O   0  0  0  0  0  0  0  0  0  0  0  0
    1.4797   -8.6258   16.2950 C   0  0  0  0  0  0  0  0  0  0  0  0
    9.2861   -1.2743   25.3585 C   0  0  0  0  0  0  0  0  0  0  0  0
    1.8892  -10.3985   17.7511 N   0  0  0  0  0  0  0  0  0  0  0  0
    9.6210   -0.6952   24.0976 C   0  0  0  0  0  0  0  0  0  0  0  0
    7.0792   -9.0217   17.1429 C   0  0  0  0  0  0  0  0  0  0  0  0
    3.1713  -10.1816   17.6634 C   0  0  0  0  0  0  0  0  0  0  0  0
    2.7878   -8.3822   16.2137 C   0  0  0  0  0  0  0  0  0  0  0  0
    9.4601   -2.6590   25.6528 C   0  0  0  0  0  0  0  0  0  0  0  0
   10.1182   -1.5672   23.1165 C   0  0  0  0  0  0  0  0  0  0  0  0
    1.0552   -9.6360   17.0650 C   0  0  0  0  0  0  0  0  0  0  0  0
    3.6519   -9.1783   16.9039 C   0  0  0  0  0  0  0  0  0  0  0  0
    7.8675   -7.0096   15.9415 C   0  0  0  0  0  0  0  0  0  0  0  0
    5.9733   -9.6553   17.3832 N   0  0  0  0  0  0  0  0  0  0  0  0
   10.2411   -2.9363   23.4301 C   0  0  0  0  0  0  0  0  0  0  0  0
   10.7288   -3.8197   19.9525 C   0  0  0  0  0  0  0  0  0  0  0  0
   10.1189   -5.0054   19.6987 C   0  0  0  0  0  0  0  0  0  0  0  0
  1  3  4  0
  1  7  4  0
  2 21  4  0
  2 27  4  0
  3  9  4  0
  3 10  4  0
  4  8  4  0
  4 18  4  0
  4 25  1  0
  5  9  4  0
  5 12  4  0
  6 13  1  0
  6 27  1  0
  7 28  4  0
  8 11  4  0
  9 29  4  0
 10 12  4  0
 11 24  1  0
 11 26  4  0
 12 25  1  0
 13 28  1  0
 14 20  4  0
 14 23  4  0
 15 17  4  0
 15 21  4  0
 16 19  4  0
 16 23  4  0
 17 22  4  0
 18 26  4  0
 19 24  4  0
 20 24  4  0
 22 27  4  0
 28 29  4  0
M  END
$$$$

 Created by Python create_sdf_string function

 29 33  0  0  0  0  0  0  0  0999 V2000
   10.7215   -3.3326   17.6437 C   0  0  0  0  0  0  0  0  0  0  0  0
    9.9489   -3.4675   24.6487 N   0  0  0  0  0  0  0  0  0  0  0  0
   10.0172   -4.4740   17.4101 C   0  0  0  0  0  0  0  0  0  0  0  0
    6.9051   -7.9575   16.4222 C   0  0  0  0  0  0  0  0  0  0  0  0
    8.9969   -6.3552   17.9668 N   0  0  0  0  0  0  0  0  0  0  0  0
   10.6702   -3.9051   22.4070 C   0  0  0  0  0  0  0  0  0  0  0  0
   11.0625   -3.0028   18.8894 C   0  0  0  0  0  0  0  0  0  0  0  0
    5.6180   -7.9194   16.1754 O   0  0  0  0  0  0  0  0  0  0  0  0
    9.7259   -5.3080   18.4485 C   0  0  0  0  0  0  0  0  0  0  0  0
    9.4578   -5.0200   16.3036 N   0  0  0  0  0  0  0  0  0  0  0  0
    5.0287   -8.9365   16.8223 C   0  0  0  0  0  0  0  0  0  0  0  0
    8.7742   -6.1498   16.6764 C   0  0  0  0  0  0  0  0  0  0  0  0
   10.9418   -3.4032   21.2053 O   0  0  0  0  0  0  0  0  0  0  0  0
    1.4797   -8.6258   16.2950 C   0  0  0  0  0  0  0  0  0  0  0  0
    9.2861   -1.2743   25.3585 C   0  0  0  0  0  0  0  0  0  0  0  0
    1.8892  -10.3985   17.7511 N   0  0  0  0  0  0  0  0  0  0  0  0
    9.6210   -0.6952   24.0976 C   0  0  0  0  0  0  0  0  0  0  0  0
    7.0792   -9.0217   17.1429 C   0  0  0  0  0  0  0  0  0  0  0  0
    3.1713  -10.1816   17.6634 C   0  0  0  0  0  0  0  0  0  0  0  0
    2.7878   -8.3822   16.2137 C   0  0  0  0  0  0  0  0  0  0  0  0
    9.4601   -2.6590   25.6528 C   0  0  0  0  0  0  0  0  0  0  0  0
   10.1182   -1.5672   23.1165 C   0  0  0  0  0  0  0  0  0  0  0  0
    1.0552   -9.6360   17.0650 C   0  0  0  0  0  0  0  0  0  0  0  0
    3.6519   -9.1783   16.9039 C   0  0  0  0  0  0  0  0  0  0  0  0
    7.8675   -7.0096   15.9415 C   0  0  0  0  0  0  0  0  0  0  0  0
    5.9733   -9.6553   17.3832 N   0  0  0  0  0  0  0  0  0  0  0  0
   10.2411   -2.9363   23.4301 C   0  0  0  0  0  0  0  0  0  0  0  0
   10.7288   -3.8197   19.9525 C   0  0  0  0  0  0  0  0  0  0  0  0
   10.1189   -5.0054   19.6987 C   0  0  0  0  0  0  0  0  0  0  0  0
  1  3  4  0
  1  7  4  0
  2 21  4  0
  2 27  4  0
  3  9  4  0
  3 10  4  0
  4  8  4  0
  4 18  4  0
  4 25  1  0
  5  9  4  0
  5 12  4  0
  6 13  1  0
  6 27  1  0
  7 28  4  0
  8 11  4  0
  9 29  4  0
 10 12  4  0
 11 24  1  0
 11 26  4  0
 12 25  1  0
 13 28  1  0
 14 20  4  0
 14 23  4  0
 15 17  4  0
 15 21  4  0
 16 19  4  0
 16 23  4  0
 17 22  4  0
 18 26  4  0
 19 24  4  0
 20 24  4  0
 22 27  4  0
 28 29  4  0
M  END
$$$$

 Created by Python create_sdf_string function

 29 33  0  0  0  0  0  0  0  0999 V2000
   10.7215   -3.3326   17.6437 C   0  0  0  0  0  0  0  0  0  0  0  0
    9.9489   -3.4675   24.6487 N   0  0  0  0  0  0  0  0  0  0  0  0
   10.0172   -4.4740   17.4101 C   0  0  0  0  0  0  0  0  0  0  0  0
    6.9051   -7.9575   16.4222 C   0  0  0  0  0  0  0  0  0  0  0  0
    8.9969   -6.3552   17.9668 N   0  0  0  0  0  0  0  0  0  0  0  0
   10.6702   -3.9051   22.4070 C   0  0  0  0  0  0  0  0  0  0  0  0
   11.0625   -3.0028   18.8894 C   0  0  0  0  0  0  0  0  0  0  0  0
    5.6180   -7.9194   16.1754 O   0  0  0  0  0  0  0  0  0  0  0  0
    9.7259   -5.3080   18.4485 C   0  0  0  0  0  0  0  0  0  0  0  0
    9.4578   -5.0200   16.3036 N   0  0  0  0  0  0  0  0  0  0  0  0
    5.0287   -8.9365   16.8223 C   0  0  0  0  0  0  0  0  0  0  0  0
    8.7742   -6.1498   16.6764 C   0  0  0  0  0  0  0  0  0  0  0  0
   10.9418   -3.4032   21.2053 O   0  0  0  0  0  0  0  0  0  0  0  0
    1.4797   -8.6258   16.2950 C   0  0  0  0  0  0  0  0  0  0  0  0
    9.2861   -1.2743   25.3585 C   0  0  0  0  0  0  0  0  0  0  0  0
    1.8892  -10.3985   17.7511 N   0  0  0  0  0  0  0  0  0  0  0  0
    9.6210   -0.6952   24.0976 C   0  0  0  0  0  0  0  0  0  0  0  0
    7.0792   -9.0217   17.1429 C   0  0  0  0  0  0  0  0  0  0  0  0
    3.1713  -10.1816   17.6634 C   0  0  0  0  0  0  0  0  0  0  0  0
    2.7878   -8.3822   16.2137 C   0  0  0  0  0  0  0  0  0  0  0  0
    9.4601   -2.6590   25.6528 C   0  0  0  0  0  0  0  0  0  0  0  0
   10.1182   -1.5672   23.1165 C   0  0  0  0  0  0  0  0  0  0  0  0
    1.0552   -9.6360   17.0650 C   0  0  0  0  0  0  0  0  0  0  0  0
    3.6519   -9.1783   16.9039 C   0  0  0  0  0  0  0  0  0  0  0  0
    7.8675   -7.0096   15.9415 C   0  0  0  0  0  0  0  0  0  0  0  0
    5.9733   -9.6553   17.3832 N   0  0  0  0  0  0  0  0  0  0  0  0
   10.2411   -2.9363   23.4301 C   0  0  0  0  0  0  0  0  0  0  0  0
   10.7288   -3.8197   19.9525 C   0  0  0  0  0  0  0  0  0  0  0  0
   10.1189   -5.0054   19.6987 C   0  0  0  0  0  0  0  0  0  0  0  0
  1  3  4  0
  1  7  4  0
  2 21  4  0
  2 27  4  0
  3  9  4  0
  3 10  4  0
  4  8  4  0
  4 18  4  0
  4 25  1  0
  5  9  4  0
  5 12  4  0
  6 13  1  0
  6 27  1  0
  7 28  4  0
  8 11  4  0
  9 29  4  0
 10 12  4  0
 11 24  1  0
 11 26  4  0
 12 25  1  0
 13 28  1  0
 14 20  4  0
 14 23  4  0
 15 17  4  0
 15 21  4  0
 16 19  4  0
 16 23  4  0
 17 22  4  0
 18 26  4  0
 19 24  4  0
 20 24  4  0
 22 27  4  0
 28 29  4  0
M  END
$$$$

 Created by Python create_sdf_string function

 29 33  0  0  0  0  0  0  0  0999 V2000
   10.7215   -3.3326   17.6437 C   0  0  0  0  0  0  0  0  0  0  0  0
    9.9489   -3.4675   24.6487 N   0  0  0  0  0  0  0  0  0  0  0  0
   10.0172   -4.4740   17.4101 C   0  0  0  0  0  0  0  0  0  0  0  0
    6.9051   -7.9575   16.4222 C   0  0  0  0  0  0  0  0  0  0  0  0
    8.9969   -6.3552   17.9668 N   0  0  0  0  0  0  0  0  0  0  0  0
   10.6702   -3.9051   22.4070 C   0  0  0  0  0  0  0  0  0  0  0  0
   11.0625   -3.0028   18.8894 C   0  0  0  0  0  0  0  0  0  0  0  0
    5.6180   -7.9194   16.1754 O   0  0  0  0  0  0  0  0  0  0  0  0
    9.7259   -5.3080   18.4485 C   0  0  0  0  0  0  0  0  0  0  0  0
    9.4578   -5.0200   16.3036 N   0  0  0  0  0  0  0  0  0  0  0  0
    5.0287   -8.9365   16.8223 C   0  0  0  0  0  0  0  0  0  0  0  0
    8.7742   -6.1498   16.6764 C   0  0  0  0  0  0  0  0  0  0  0  0
   10.9418   -3.4032   21.2053 O   0  0  0  0  0  0  0  0  0  0  0  0
    1.4797   -8.6258   16.2950 C   0  0  0  0  0  0  0  0  0  0  0  0
    9.2861   -1.2743   25.3585 C   0  0  0  0  0  0  0  0  0  0  0  0
    1.8892  -10.3985   17.7511 N   0  0  0  0  0  0  0  0  0  0  0  0
    9.6210   -0.6952   24.0976 C   0  0  0  0  0  0  0  0  0  0  0  0
    7.0792   -9.0217   17.1429 C   0  0  0  0  0  0  0  0  0  0  0  0
    3.1713  -10.1816   17.6634 C   0  0  0  0  0  0  0  0  0  0  0  0
    2.7878   -8.3822   16.2137 C   0  0  0  0  0  0  0  0  0  0  0  0
    9.4601   -2.6590   25.6528 C   0  0  0  0  0  0  0  0  0  0  0  0
   10.1182   -1.5672   23.1165 C   0  0  0  0  0  0  0  0  0  0  0  0
    1.0552   -9.6360   17.0650 C   0  0  0  0  0  0  0  0  0  0  0  0
    3.6519   -9.1783   16.9039 C   0  0  0  0  0  0  0  0  0  0  0  0
    7.8675   -7.0096   15.9415 C   0  0  0  0  0  0  0  0  0  0  0  0
    5.9733   -9.6553   17.3832 N   0  0  0  0  0  0  0  0  0  0  0  0
   10.2411   -2.9363   23.4301 C   0  0  0  0  0  0  0  0  0  0  0  0
   10.7288   -3.8197   19.9525 C   0  0  0  0  0  0  0  0  0  0  0  0
   10.1189   -5.0054   19.6987 C   0  0  0  0  0  0  0  0  0  0  0  0
  1  3  4  0
  1  7  4  0
  2 21  4  0
  2 27  4  0
  3  9  4  0
  3 10  4  0
  4  8  4  0
  4 18  4  0
  4 25  1  0
  5  9  4  0
  5 12  4  0
  6 13  1  0
  6 27  1  0
  7 28  4  0
  8 11  4  0
  9 29  4  0
 10 12  4  0
 11 24  1  0
 11 26  4  0
 12 25  1  0
 13 28  1  0
 14 20  4  0
 14 23  4  0
 15 17  4  0
 15 21  4  0
 16 19  4  0
 16 23  4  0
 17 22  4  0
 18 26  4  0
 19 24  4  0
 20 24  4  0
 22 27  4  0
 28 29  4  0
M  END
$$$$

 Created by Python create_sdf_string function

 29 33  0  0  0  0  0  0  0  0999 V2000
   10.7215   -3.3326   17.6437 C   0  0  0  0  0  0  0  0  0  0  0  0
    9.9489   -3.4675   24.6487 N   0  0  0  0  0  0  0  0  0  0  0  0
   10.0172   -4.4740   17.4101 C   0  0  0  0  0  0  0  0  0  0  0  0
    6.9051   -7.9575   16.4222 C   0  0  0  0  0  0  0  0  0  0  0  0
    8.9969   -6.3552   17.9668 N   0  0  0  0  0  0  0  0  0  0  0  0
   10.6702   -3.9051   22.4070 C   0  0  0  0  0  0  0  0  0  0  0  0
   11.0625   -3.0028   18.8894 C   0  0  0  0  0  0  0  0  0  0  0  0
    5.6180   -7.9194   16.1754 O   0  0  0  0  0  0  0  0  0  0  0  0
    9.7259   -5.3080   18.4485 C   0  0  0  0  0  0  0  0  0  0  0  0
    9.4578   -5.0200   16.3036 N   0  0  0  0  0  0  0  0  0  0  0  0
    5.0287   -8.9365   16.8223 C   0  0  0  0  0  0  0  0  0  0  0  0
    8.7742   -6.1498   16.6764 C   0  0  0  0  0  0  0  0  0  0  0  0
   10.9418   -3.4032   21.2053 O   0  0  0  0  0  0  0  0  0  0  0  0
    1.4797   -8.6258   16.2950 C   0  0  0  0  0  0  0  0  0  0  0  0
    9.2861   -1.2743   25.3585 C   0  0  0  0  0  0  0  0  0  0  0  0
    1.8892  -10.3985   17.7511 N   0  0  0  0  0  0  0  0  0  0  0  0
    9.6210   -0.6952   24.0976 C   0  0  0  0  0  0  0  0  0  0  0  0
    7.0792   -9.0217   17.1429 C   0  0  0  0  0  0  0  0  0  0  0  0
    3.1713  -10.1816   17.6634 C   0  0  0  0  0  0  0  0  0  0  0  0
    2.7878   -8.3822   16.2137 C   0  0  0  0  0  0  0  0  0  0  0  0
    9.4601   -2.6590   25.6528 C   0  0  0  0  0  0  0  0  0  0  0  0
   10.1182   -1.5672   23.1165 C   0  0  0  0  0  0  0  0  0  0  0  0
    1.0552   -9.6360   17.0650 C   0  0  0  0  0  0  0  0  0  0  0  0
    3.6519   -9.1783   16.9039 C   0  0  0  0  0  0  0  0  0  0  0  0
    7.8675   -7.0096   15.9415 C   0  0  0  0  0  0  0  0  0  0  0  0
    5.9733   -9.6553   17.3832 N   0  0  0  0  0  0  0  0  0  0  0  0
   10.2411   -2.9363   23.4301 C   0  0  0  0  0  0  0  0  0  0  0  0
   10.7288   -3.8197   19.9525 C   0  0  0  0  0  0  0  0  0  0  0  0
   10.1189   -5.0054   19.6987 C   0  0  0  0  0  0  0  0  0  0  0  0
  1  3  4  0
  1  7  4  0
  2 21  4  0
  2 27  4  0
  3  9  4  0
  3 10  4  0
  4  8  4  0
  4 18  4  0
  4 25  1  0
  5  9  4  0
  5 12  4  0
  6 13  1  0
  6 27  1  0
  7 28  4  0
  8 11  4  0
  9 29  4  0
 10 12  4  0
 11 24  1  0
 11 26  4  0
 12 25  1  0
 13 28  1  0
 14 20  4  0
 14 23  4  0
 15 17  4  0
 15 21  4  0
 16 19  4  0
 16 23  4  0
 17 22  4  0
 18 26  4  0
 19 24  4  0
 20 24  4  0
 22 27  4  0
 28 29  4  0
M  END
$$$$

 Created by Python create_sdf_string function

 29 33  0  0  0  0  0  0  0  0999 V2000
   10.7215   -3.3326   17.6437 C   0  0  0  0  0  0  0  0  0  0  0  0
    9.9489   -3.4675   24.6487 N   0  0  0  0  0  0  0  0  0  0  0  0
   10.0172   -4.4740   17.4101 C   0  0  0  0  0  0  0  0  0  0  0  0
    6.9051   -7.9575   16.4222 C   0  0  0  0  0  0  0  0  0  0  0  0
    8.9969   -6.3552   17.9668 N   0  0  0  0  0  0  0  0  0  0  0  0
   10.6702   -3.9051   22.4070 C   0  0  0  0  0  0  0  0  0  0  0  0
   11.0625   -3.0028   18.8894 C   0  0  0  0  0  0  0  0  0  0  0  0
    5.6180   -7.9194   16.1754 O   0  0  0  0  0  0  0  0  0  0  0  0
    9.7259   -5.3080   18.4485 C   0  0  0  0  0  0  0  0  0  0  0  0
    9.4578   -5.0200   16.3036 N   0  0  0  0  0  0  0  0  0  0  0  0
    5.0287   -8.9365   16.8223 C   0  0  0  0  0  0  0  0  0  0  0  0
    8.7742   -6.1498   16.6764 C   0  0  0  0  0  0  0  0  0  0  0  0
   10.9418   -3.4032   21.2053 O   0  0  0  0  0  0  0  0  0  0  0  0
    1.4797   -8.6258   16.2950 C   0  0  0  0  0  0  0  0  0  0  0  0
    9.2861   -1.2743   25.3585 C   0  0  0  0  0  0  0  0  0  0  0  0
    1.8892  -10.3985   17.7511 N   0  0  0  0  0  0  0  0  0  0  0  0
    9.6210   -0.6952   24.0976 C   0  0  0  0  0  0  0  0  0  0  0  0
    7.0792   -9.0217   17.1429 C   0  0  0  0  0  0  0  0  0  0  0  0
    3.1713  -10.1816   17.6634 C   0  0  0  0  0  0  0  0  0  0  0  0
    2.7878   -8.3822   16.2137 C   0  0  0  0  0  0  0  0  0  0  0  0
    9.4601   -2.6590   25.6528 C   0  0  0  0  0  0  0  0  0  0  0  0
   10.1182   -1.5672   23.1165 C   0  0  0  0  0  0  0  0  0  0  0  0
    1.0552   -9.6360   17.0650 C   0  0  0  0  0  0  0  0  0  0  0  0
    3.6519   -9.1783   16.9039 C   0  0  0  0  0  0  0  0  0  0  0  0
    7.8675   -7.0096   15.9415 C   0  0  0  0  0  0  0  0  0  0  0  0
    5.9733   -9.6553   17.3832 N   0  0  0  0  0  0  0  0  0  0  0  0
   10.2411   -2.9363   23.4301 C   0  0  0  0  0  0  0  0  0  0  0  0
   10.7288   -3.8197   19.9525 C   0  0  0  0  0  0  0  0  0  0  0  0
   10.1189   -5.0054   19.6987 C   0  0  0  0  0  0  0  0  0  0  0  0
  1  3  4  0
  1  7  4  0
  2 21  4  0
  2 27  4  0
  3  9  4  0
  3 10  4  0
  4  8  4  0
  4 18  4  0
  4 25  1  0
  5  9  4  0
  5 12  4  0
  6 13  1  0
  6 27  1  0
  7 28  4  0
  8 11  4  0
  9 29  4  0
 10 12  4  0
 11 24  1  0
 11 26  4  0
 12 25  1  0
 13 28  1  0
 14 20  4  0
 14 23  4  0
 15 17  4  0
 15 21  4  0
 16 19  4  0
 16 23  4  0
 17 22  4  0
 18 26  4  0
 19 24  4  0
 20 24  4  0
 22 27  4  0
 28 29  4  0
M  END
$$$$

 Created by Python create_sdf_string function

 29 33  0  0  0  0  0  0  0  0999 V2000
   10.7215   -3.3326   17.6437 C   0  0  0  0  0  0  0  0  0  0  0  0
    9.9489   -3.4675   24.6487 N   0  0  0  0  0  0  0  0  0  0  0  0
   10.0172   -4.4740   17.4101 C   0  0  0  0  0  0  0  0  0  0  0  0
    6.9051   -7.9575   16.4222 C   0  0  0  0  0  0  0  0  0  0  0  0
    8.9969   -6.3552   17.9668 N   0  0  0  0  0  0  0  0  0  0  0  0
   10.6702   -3.9051   22.4070 C   0  0  0  0  0  0  0  0  0  0  0  0
   11.0625   -3.0028   18.8894 C   0  0  0  0  0  0  0  0  0  0  0  0
    5.6180   -7.9194   16.1754 O   0  0  0  0  0  0  0  0  0  0  0  0
    9.7259   -5.3080   18.4485 C   0  0  0  0  0  0  0  0  0  0  0  0
    9.4578   -5.0200   16.3036 N   0  0  0  0  0  0  0  0  0  0  0  0
    5.0287   -8.9365   16.8223 C   0  0  0  0  0  0  0  0  0  0  0  0
    8.7742   -6.1498   16.6764 C   0  0  0  0  0  0  0  0  0  0  0  0
   10.9418   -3.4032   21.2053 O   0  0  0  0  0  0  0  0  0  0  0  0
    1.4797   -8.6258   16.2950 C   0  0  0  0  0  0  0  0  0  0  0  0
    9.2861   -1.2743   25.3585 C   0  0  0  0  0  0  0  0  0  0  0  0
    1.8892  -10.3985   17.7511 N   0  0  0  0  0  0  0  0  0  0  0  0
    9.6210   -0.6952   24.0976 C   0  0  0  0  0  0  0  0  0  0  0  0
    7.0792   -9.0217   17.1429 C   0  0  0  0  0  0  0  0  0  0  0  0
    3.1713  -10.1816   17.6634 C   0  0  0  0  0  0  0  0  0  0  0  0
    2.7878   -8.3822   16.2137 C   0  0  0  0  0  0  0  0  0  0  0  0
    9.4601   -2.6590   25.6528 C   0  0  0  0  0  0  0  0  0  0  0  0
   10.1182   -1.5672   23.1165 C   0  0  0  0  0  0  0  0  0  0  0  0
    1.0552   -9.6360   17.0650 C   0  0  0  0  0  0  0  0  0  0  0  0
    3.6519   -9.1783   16.9039 C   0  0  0  0  0  0  0  0  0  0  0  0
    7.8675   -7.0096   15.9415 C   0  0  0  0  0  0  0  0  0  0  0  0
    5.9733   -9.6553   17.3832 N   0  0  0  0  0  0  0  0  0  0  0  0
   10.2411   -2.9363   23.4301 C   0  0  0  0  0  0  0  0  0  0  0  0
   10.7288   -3.8197   19.9525 C   0  0  0  0  0  0  0  0  0  0  0  0
   10.1189   -5.0054   19.6987 C   0  0  0  0  0  0  0  0  0  0  0  0
  1  3  4  0
  1  7  4  0
  2 21  4  0
  2 27  4  0
  3  9  4  0
  3 10  4  0
  4  8  4  0
  4 18  4  0
  4 25  1  0
  5  9  4  0
  5 12  4  0
  6 13  1  0
  6 27  1  0
  7 28  4  0
  8 11  4  0
  9 29  4  0
 10 12  4  0
 11 24  1  0
 11 26  4  0
 12 25  1  0
 13 28  1  0
 14 20  4  0
 14 23  4  0
 15 17  4  0
 15 21  4  0
 16 19  4  0
 16 23  4  0
 17 22  4  0
 18 26  4  0
 19 24  4  0
 20 24  4  0
 22 27  4  0
 28 29  4  0
M  END
$$$$

 Created by Python create_sdf_string function

 29 33  0  0  0  0  0  0  0  0999 V2000
   10.7215   -3.3326   17.6437 C   0  0  0  0  0  0  0  0  0  0  0  0
    9.9489   -3.4675   24.6487 N   0  0  0  0  0  0  0  0  0  0  0  0
   10.0172   -4.4740   17.4101 C   0  0  0  0  0  0  0  0  0  0  0  0
    6.9051   -7.9575   16.4222 C   0  0  0  0  0  0  0  0  0  0  0  0
    8.9969   -6.3552   17.9668 N   0  0  0  0  0  0  0  0  0  0  0  0
   10.6702   -3.9051   22.4070 C   0  0  0  0  0  0  0  0  0  0  0  0
   11.0625   -3.0028   18.8894 C   0  0  0  0  0  0  0  0  0  0  0  0
    5.6180   -7.9194   16.1754 O   0  0  0  0  0  0  0  0  0  0  0  0
    9.7259   -5.3080   18.4485 C   0  0  0  0  0  0  0  0  0  0  0  0
    9.4578   -5.0200   16.3036 N   0  0  0  0  0  0  0  0  0  0  0  0
    5.0287   -8.9365   16.8223 C   0  0  0  0  0  0  0  0  0  0  0  0
    8.7742   -6.1498   16.6764 C   0  0  0  0  0  0  0  0  0  0  0  0
   10.9418   -3.4032   21.2053 O   0  0  0  0  0  0  0  0  0  0  0  0
    1.4797   -8.6258   16.2950 C   0  0  0  0  0  0  0  0  0  0  0  0
    9.2861   -1.2743   25.3585 C   0  0  0  0  0  0  0  0  0  0  0  0
    1.8892  -10.3985   17.7511 N   0  0  0  0  0  0  0  0  0  0  0  0
    9.6210   -0.6952   24.0976 C   0  0  0  0  0  0  0  0  0  0  0  0
    7.0792   -9.0217   17.1429 C   0  0  0  0  0  0  0  0  0  0  0  0
    3.1713  -10.1816   17.6634 C   0  0  0  0  0  0  0  0  0  0  0  0
    2.7878   -8.3822   16.2137 C   0  0  0  0  0  0  0  0  0  0  0  0
    9.4601   -2.6590   25.6528 C   0  0  0  0  0  0  0  0  0  0  0  0
   10.1182   -1.5672   23.1165 C   0  0  0  0  0  0  0  0  0  0  0  0
    1.0552   -9.6360   17.0650 C   0  0  0  0  0  0  0  0  0  0  0  0
    3.6519   -9.1783   16.9039 C   0  0  0  0  0  0  0  0  0  0  0  0
    7.8675   -7.0096   15.9415 C   0  0  0  0  0  0  0  0  0  0  0  0
    5.9733   -9.6553   17.3832 N   0  0  0  0  0  0  0  0  0  0  0  0
   10.2411   -2.9363   23.4301 C   0  0  0  0  0  0  0  0  0  0  0  0
   10.7288   -3.8197   19.9525 C   0  0  0  0  0  0  0  0  0  0  0  0
   10.1189   -5.0054   19.6987 C   0  0  0  0  0  0  0  0  0  0  0  0
  1  3  4  0
  1  7  4  0
  2 21  4  0
  2 27  4  0
  3  9  4  0
  3 10  4  0
  4  8  4  0
  4 18  4  0
  4 25  1  0
  5  9  4  0
  5 12  4  0
  6 13  1  0
  6 27  1  0
  7 28  4  0
  8 11  4  0
  9 29  4  0
 10 12  4  0
 11 24  1  0
 11 26  4  0
 12 25  1  0
 13 28  1  0
 14 20  4  0
 14 23  4  0
 15 17  4  0
 15 21  4  0
 16 19  4  0
 16 23  4  0
 17 22  4  0
 18 26  4  0
 19 24  4  0
 20 24  4  0
 22 27  4  0
 28 29  4  0
M  END
$$$$

 Created by Python create_sdf_string function

 29 33  0  0  0  0  0  0  0  0999 V2000
   10.7215   -3.3326   17.6437 C   0  0  0  0  0  0  0  0  0  0  0  0
    9.9489   -3.4675   24.6487 N   0  0  0  0  0  0  0  0  0  0  0  0
   10.0172   -4.4740   17.4101 C   0  0  0  0  0  0  0  0  0  0  0  0
    6.9051   -7.9575   16.4222 C   0  0  0  0  0  0  0  0  0  0  0  0
    8.9969   -6.3552   17.9668 N   0  0  0  0  0  0  0  0  0  0  0  0
   10.6702   -3.9051   22.4070 C   0  0  0  0  0  0  0  0  0  0  0  0
   11.0625   -3.0028   18.8894 C   0  0  0  0  0  0  0  0  0  0  0  0
    5.6180   -7.9194   16.1754 O   0  0  0  0  0  0  0  0  0  0  0  0
    9.7259   -5.3080   18.4485 C   0  0  0  0  0  0  0  0  0  0  0  0
    9.4578   -5.0200   16.3036 N   0  0  0  0  0  0  0  0  0  0  0  0
    5.0287   -8.9365   16.8223 C   0  0  0  0  0  0  0  0  0  0  0  0
    8.7742   -6.1498   16.6764 C   0  0  0  0  0  0  0  0  0  0  0  0
   10.9418   -3.4032   21.2053 O   0  0  0  0  0  0  0  0  0  0  0  0
    1.4797   -8.6258   16.2950 C   0  0  0  0  0  0  0  0  0  0  0  0
    9.2861   -1.2743   25.3585 C   0  0  0  0  0  0  0  0  0  0  0  0
    1.8892  -10.3985   17.7511 N   0  0  0  0  0  0  0  0  0  0  0  0
    9.6210   -0.6952   24.0976 C   0  0  0  0  0  0  0  0  0  0  0  0
    7.0792   -9.0217   17.1429 C   0  0  0  0  0  0  0  0  0  0  0  0
    3.1713  -10.1816   17.6634 C   0  0  0  0  0  0  0  0  0  0  0  0
    2.7878   -8.3822   16.2137 C   0  0  0  0  0  0  0  0  0  0  0  0
    9.4601   -2.6590   25.6528 C   0  0  0  0  0  0  0  0  0  0  0  0
   10.1182   -1.5672   23.1165 C   0  0  0  0  0  0  0  0  0  0  0  0
    1.0552   -9.6360   17.0650 C   0  0  0  0  0  0  0  0  0  0  0  0
    3.6519   -9.1783   16.9039 C   0  0  0  0  0  0  0  0  0  0  0  0
    7.8675   -7.0096   15.9415 C   0  0  0  0  0  0  0  0  0  0  0  0
    5.9733   -9.6553   17.3832 N   0  0  0  0  0  0  0  0  0  0  0  0
   10.2411   -2.9363   23.4301 C   0  0  0  0  0  0  0  0  0  0  0  0
   10.7288   -3.8197   19.9525 C   0  0  0  0  0  0  0  0  0  0  0  0
   10.1189   -5.0054   19.6987 C   0  0  0  0  0  0  0  0  0  0  0  0
  1  3  4  0
  1  7  4  0
  2 21  4  0
  2 27  4  0
  3  9  4  0
  3 10  4  0
  4  8  4  0
  4 18  4  0
  4 25  1  0
  5  9  4  0
  5 12  4  0
  6 13  1  0
  6 27  1  0
  7 28  4  0
  8 11  4  0
  9 29  4  0
 10 12  4  0
 11 24  1  0
 11 26  4  0
 12 25  1  0
 13 28  1  0
 14 20  4  0
 14 23  4  0
 15 17  4  0
 15 21  4  0
 16 19  4  0
 16 23  4  0
 17 22  4  0
 18 26  4  0
 19 24  4  0
 20 24  4  0
 22 27  4  0
 28 29  4  0
M  END
$$$$

 Created by Python create_sdf_string function

 29 33  0  0  0  0  0  0  0  0999 V2000
   10.7215   -3.3326   17.6437 C   0  0  0  0  0  0  0  0  0  0  0  0
    9.9489   -3.4675   24.6487 N   0  0  0  0  0  0  0  0  0  0  0  0
   10.0172   -4.4740   17.4101 C   0  0  0  0  0  0  0  0  0  0  0  0
    6.9051   -7.9575   16.4222 C   0  0  0  0  0  0  0  0  0  0  0  0
    8.9969   -6.3552   17.9668 N   0  0  0  0  0  0  0  0  0  0  0  0
   10.6702   -3.9051   22.4070 C   0  0  0  0  0  0  0  0  0  0  0  0
   11.0625   -3.0028   18.8894 C   0  0  0  0  0  0  0  0  0  0  0  0
    5.6180   -7.9194   16.1754 O   0  0  0  0  0  0  0  0  0  0  0  0
    9.7259   -5.3080   18.4485 C   0  0  0  0  0  0  0  0  0  0  0  0
    9.4578   -5.0200   16.3036 N   0  0  0  0  0  0  0  0  0  0  0  0
    5.0287   -8.9365   16.8223 C   0  0  0  0  0  0  0  0  0  0  0  0
    8.7742   -6.1498   16.6764 C   0  0  0  0  0  0  0  0  0  0  0  0
   10.9418   -3.4032   21.2053 O   0  0  0  0  0  0  0  0  0  0  0  0
    1.4797   -8.6258   16.2950 C   0  0  0  0  0  0  0  0  0  0  0  0
    9.2861   -1.2743   25.3585 C   0  0  0  0  0  0  0  0  0  0  0  0
    1.8892  -10.3985   17.7511 N   0  0  0  0  0  0  0  0  0  0  0  0
    9.6210   -0.6952   24.0976 C   0  0  0  0  0  0  0  0  0  0  0  0
    7.0792   -9.0217   17.1429 C   0  0  0  0  0  0  0  0  0  0  0  0
    3.1713  -10.1816   17.6634 C   0  0  0  0  0  0  0  0  0  0  0  0
    2.7878   -8.3822   16.2137 C   0  0  0  0  0  0  0  0  0  0  0  0
    9.4601   -2.6590   25.6528 C   0  0  0  0  0  0  0  0  0  0  0  0
   10.1182   -1.5672   23.1165 C   0  0  0  0  0  0  0  0  0  0  0  0
    1.0552   -9.6360   17.0650 C   0  0  0  0  0  0  0  0  0  0  0  0
    3.6519   -9.1783   16.9039 C   0  0  0  0  0  0  0  0  0  0  0  0
    7.8675   -7.0096   15.9415 C   0  0  0  0  0  0  0  0  0  0  0  0
    5.9733   -9.6553   17.3832 N   0  0  0  0  0  0  0  0  0  0  0  0
   10.2411   -2.9363   23.4301 C   0  0  0  0  0  0  0  0  0  0  0  0
   10.7288   -3.8197   19.9525 C   0  0  0  0  0  0  0  0  0  0  0  0
   10.1189   -5.0054   19.6987 C   0  0  0  0  0  0  0  0  0  0  0  0
  1  3  4  0
  1  7  4  0
  2 21  4  0
  2 27  4  0
  3  9  4  0
  3 10  4  0
  4  8  4  0
  4 18  4  0
  4 25  1  0
  5  9  4  0
  5 12  4  0
  6 13  1  0
  6 27  1  0
  7 28  4  0
  8 11  4  0
  9 29  4  0
 10 12  4  0
 11 24  1  0
 11 26  4  0
 12 25  1  0
 13 28  1  0
 14 20  4  0
 14 23  4  0
 15 17  4  0
 15 21  4  0
 16 19  4  0
 16 23  4  0
 17 22  4  0
 18 26  4  0
 19 24  4  0
 20 24  4  0
 22 27  4  0
 28 29  4  0
M  END
$$$$

 Created by Python create_sdf_string function

 29 33  0  0  0  0  0  0  0  0999 V2000
   10.7215   -3.3326   17.6437 C   0  0  0  0  0  0  0  0  0  0  0  0
    9.9489   -3.4675   24.6487 N   0  0  0  0  0  0  0  0  0  0  0  0
   10.0172   -4.4740   17.4101 C   0  0  0  0  0  0  0  0  0  0  0  0
    6.9051   -7.9575   16.4222 C   0  0  0  0  0  0  0  0  0  0  0  0
    8.9969   -6.3552   17.9668 N   0  0  0  0  0  0  0  0  0  0  0  0
   10.6702   -3.9051   22.4070 C   0  0  0  0  0  0  0  0  0  0  0  0
   11.0625   -3.0028   18.8894 C   0  0  0  0  0  0  0  0  0  0  0  0
    5.6180   -7.9194   16.1754 O   0  0  0  0  0  0  0  0  0  0  0  0
    9.7259   -5.3080   18.4485 C   0  0  0  0  0  0  0  0  0  0  0  0
    9.4578   -5.0200   16.3036 N   0  0  0  0  0  0  0  0  0  0  0  0
    5.0287   -8.9365   16.8223 C   0  0  0  0  0  0  0  0  0  0  0  0
    8.7742   -6.1498   16.6764 C   0  0  0  0  0  0  0  0  0  0  0  0
   10.9418   -3.4032   21.2053 O   0  0  0  0  0  0  0  0  0  0  0  0
    1.4797   -8.6258   16.2950 C   0  0  0  0  0  0  0  0  0  0  0  0
    9.2861   -1.2743   25.3585 C   0  0  0  0  0  0  0  0  0  0  0  0
    1.8892  -10.3985   17.7511 N   0  0  0  0  0  0  0  0  0  0  0  0
    9.6210   -0.6952   24.0976 C   0  0  0  0  0  0  0  0  0  0  0  0
    7.0792   -9.0217   17.1429 C   0  0  0  0  0  0  0  0  0  0  0  0
    3.1713  -10.1816   17.6634 C   0  0  0  0  0  0  0  0  0  0  0  0
    2.7878   -8.3822   16.2137 C   0  0  0  0  0  0  0  0  0  0  0  0
    9.4601   -2.6590   25.6528 C   0  0  0  0  0  0  0  0  0  0  0  0
   10.1182   -1.5672   23.1165 C   0  0  0  0  0  0  0  0  0  0  0  0
    1.0552   -9.6360   17.0650 C   0  0  0  0  0  0  0  0  0  0  0  0
    3.6519   -9.1783   16.9039 C   0  0  0  0  0  0  0  0  0  0  0  0
    7.8675   -7.0096   15.9415 C   0  0  0  0  0  0  0  0  0  0  0  0
    5.9733   -9.6553   17.3832 N   0  0  0  0  0  0  0  0  0  0  0  0
   10.2411   -2.9363   23.4301 C   0  0  0  0  0  0  0  0  0  0  0  0
   10.7288   -3.8197   19.9525 C   0  0  0  0  0  0  0  0  0  0  0  0
   10.1189   -5.0054   19.6987 C   0  0  0  0  0  0  0  0  0  0  0  0
  1  3  4  0
  1  7  4  0
  2 21  4  0
  2 27  4  0
  3  9  4  0
  3 10  4  0
  4  8  4  0
  4 18  4  0
  4 25  1  0
  5  9  4  0
  5 12  4  0
  6 13  1  0
  6 27  1  0
  7 28  4  0
  8 11  4  0
  9 29  4  0
 10 12  4  0
 11 24  1  0
 11 26  4  0
 12 25  1  0
 13 28  1  0
 14 20  4  0
 14 23  4  0
 15 17  4  0
 15 21  4  0
 16 19  4  0
 16 23  4  0
 17 22  4  0
 18 26  4  0
 19 24  4  0
 20 24  4  0
 22 27  4  0
 28 29  4  0
M  END
$$$$

 Created by Python create_sdf_string function

 29 33  0  0  0  0  0  0  0  0999 V2000
   10.7215   -3.3326   17.6437 C   0  0  0  0  0  0  0  0  0  0  0  0
    9.9489   -3.4675   24.6487 N   0  0  0  0  0  0  0  0  0  0  0  0
   10.0172   -4.4740   17.4101 C   0  0  0  0  0  0  0  0  0  0  0  0
    6.9051   -7.9575   16.4222 C   0  0  0  0  0  0  0  0  0  0  0  0
    8.9969   -6.3552   17.9668 N   0  0  0  0  0  0  0  0  0  0  0  0
   10.6702   -3.9051   22.4070 C   0  0  0  0  0  0  0  0  0  0  0  0
   11.0625   -3.0028   18.8894 C   0  0  0  0  0  0  0  0  0  0  0  0
    5.6180   -7.9194   16.1754 O   0  0  0  0  0  0  0  0  0  0  0  0
    9.7259   -5.3080   18.4485 C   0  0  0  0  0  0  0  0  0  0  0  0
    9.4578   -5.0200   16.3036 N   0  0  0  0  0  0  0  0  0  0  0  0
    5.0287   -8.9365   16.8223 C   0  0  0  0  0  0  0  0  0  0  0  0
    8.7742   -6.1498   16.6764 C   0  0  0  0  0  0  0  0  0  0  0  0
   10.9418   -3.4032   21.2053 O   0  0  0  0  0  0  0  0  0  0  0  0
    1.4797   -8.6258   16.2950 C   0  0  0  0  0  0  0  0  0  0  0  0
    9.2861   -1.2743   25.3585 C   0  0  0  0  0  0  0  0  0  0  0  0
    1.8892  -10.3985   17.7511 N   0  0  0  0  0  0  0  0  0  0  0  0
    9.6210   -0.6952   24.0976 C   0  0  0  0  0  0  0  0  0  0  0  0
    7.0792   -9.0217   17.1429 C   0  0  0  0  0  0  0  0  0  0  0  0
    3.1713  -10.1816   17.6634 C   0  0  0  0  0  0  0  0  0  0  0  0
    2.7878   -8.3822   16.2137 C   0  0  0  0  0  0  0  0  0  0  0  0
    9.4601   -2.6590   25.6528 C   0  0  0  0  0  0  0  0  0  0  0  0
   10.1182   -1.5672   23.1165 C   0  0  0  0  0  0  0  0  0  0  0  0
    1.0552   -9.6360   17.0650 C   0  0  0  0  0  0  0  0  0  0  0  0
    3.6519   -9.1783   16.9039 C   0  0  0  0  0  0  0  0  0  0  0  0
    7.8675   -7.0096   15.9415 C   0  0  0  0  0  0  0  0  0  0  0  0
    5.9733   -9.6553   17.3832 N   0  0  0  0  0  0  0  0  0  0  0  0
   10.2411   -2.9363   23.4301 C   0  0  0  0  0  0  0  0  0  0  0  0
   10.7288   -3.8197   19.9525 C   0  0  0  0  0  0  0  0  0  0  0  0
   10.1189   -5.0054   19.6987 C   0  0  0  0  0  0  0  0  0  0  0  0
  1  3  4  0
  1  7  4  0
  2 21  4  0
  2 27  4  0
  3  9  4  0
  3 10  4  0
  4  8  4  0
  4 18  4  0
  4 25  1  0
  5  9  4  0
  5 12  4  0
  6 13  1  0
  6 27  1  0
  7 28  4  0
  8 11  4  0
  9 29  4  0
 10 12  4  0
 11 24  1  0
 11 26  4  0
 12 25  1  0
 13 28  1  0
 14 20  4  0
 14 23  4  0
 15 17  4  0
 15 21  4  0
 16 19  4  0
 16 23  4  0
 17 22  4  0
 18 26  4  0
 19 24  4  0
 20 24  4  0
 22 27  4  0
 28 29  4  0
M  END
$$$$

 Created by Python create_sdf_string function

 29 33  0  0  0  0  0  0  0  0999 V2000
   10.7215   -3.3326   17.6437 C   0  0  0  0  0  0  0  0  0  0  0  0
    9.9489   -3.4675   24.6487 N   0  0  0  0  0  0  0  0  0  0  0  0
   10.0172   -4.4740   17.4101 C   0  0  0  0  0  0  0  0  0  0  0  0
    6.9051   -7.9575   16.4222 C   0  0  0  0  0  0  0  0  0  0  0  0
    8.9969   -6.3552   17.9668 N   0  0  0  0  0  0  0  0  0  0  0  0
   10.6702   -3.9051   22.4070 C   0  0  0  0  0  0  0  0  0  0  0  0
   11.0625   -3.0028   18.8894 C   0  0  0  0  0  0  0  0  0  0  0  0
    5.6180   -7.9194   16.1754 O   0  0  0  0  0  0  0  0  0  0  0  0
    9.7259   -5.3080   18.4485 C   0  0  0  0  0  0  0  0  0  0  0  0
    9.4578   -5.0200   16.3036 N   0  0  0  0  0  0  0  0  0  0  0  0
    5.0287   -8.9365   16.8223 C   0  0  0  0  0  0  0  0  0  0  0  0
    8.7742   -6.1498   16.6764 C   0  0  0  0  0  0  0  0  0  0  0  0
   10.9418   -3.4032   21.2053 O   0  0  0  0  0  0  0  0  0  0  0  0
    1.4797   -8.6258   16.2950 C   0  0  0  0  0  0  0  0  0  0  0  0
    9.2861   -1.2743   25.3585 C   0  0  0  0  0  0  0  0  0  0  0  0
    1.8892  -10.3985   17.7511 N   0  0  0  0  0  0  0  0  0  0  0  0
    9.6210   -0.6952   24.0976 C   0  0  0  0  0  0  0  0  0  0  0  0
    7.0792   -9.0217   17.1429 C   0  0  0  0  0  0  0  0  0  0  0  0
    3.1713  -10.1816   17.6634 C   0  0  0  0  0  0  0  0  0  0  0  0
    2.7878   -8.3822   16.2137 C   0  0  0  0  0  0  0  0  0  0  0  0
    9.4601   -2.6590   25.6528 C   0  0  0  0  0  0  0  0  0  0  0  0
   10.1182   -1.5672   23.1165 C   0  0  0  0  0  0  0  0  0  0  0  0
    1.0552   -9.6360   17.0650 C   0  0  0  0  0  0  0  0  0  0  0  0
    3.6519   -9.1783   16.9039 C   0  0  0  0  0  0  0  0  0  0  0  0
    7.8675   -7.0096   15.9415 C   0  0  0  0  0  0  0  0  0  0  0  0
    5.9733   -9.6553   17.3832 N   0  0  0  0  0  0  0  0  0  0  0  0
   10.2411   -2.9363   23.4301 C   0  0  0  0  0  0  0  0  0  0  0  0
   10.7288   -3.8197   19.9525 C   0  0  0  0  0  0  0  0  0  0  0  0
   10.1189   -5.0054   19.6987 C   0  0  0  0  0  0  0  0  0  0  0  0
  1  3  4  0
  1  7  4  0
  2 21  4  0
  2 27  4  0
  3  9  4  0
  3 10  4  0
  4  8  4  0
  4 18  4  0
  4 25  1  0
  5  9  4  0
  5 12  4  0
  6 13  1  0
  6 27  1  0
  7 28  4  0
  8 11  4  0
  9 29  4  0
 10 12  4  0
 11 24  1  0
 11 26  4  0
 12 25  1  0
 13 28  1  0
 14 20  4  0
 14 23  4  0
 15 17  4  0
 15 21  4  0
 16 19  4  0
 16 23  4  0
 17 22  4  0
 18 26  4  0
 19 24  4  0
 20 24  4  0
 22 27  4  0
 28 29  4  0
M  END
$$$$

 Created by Python create_sdf_string function

 29 33  0  0  0  0  0  0  0  0999 V2000
   10.7215   -3.3326   17.6437 C   0  0  0  0  0  0  0  0  0  0  0  0
    9.9489   -3.4675   24.6487 N   0  0  0  0  0  0  0  0  0  0  0  0
   10.0172   -4.4740   17.4101 C   0  0  0  0  0  0  0  0  0  0  0  0
    6.9051   -7.9575   16.4222 C   0  0  0  0  0  0  0  0  0  0  0  0
    8.9969   -6.3552   17.9668 N   0  0  0  0  0  0  0  0  0  0  0  0
   10.6702   -3.9051   22.4070 C   0  0  0  0  0  0  0  0  0  0  0  0
   11.0625   -3.0028   18.8894 C   0  0  0  0  0  0  0  0  0  0  0  0
    5.6180   -7.9194   16.1754 O   0  0  0  0  0  0  0  0  0  0  0  0
    9.7259   -5.3080   18.4485 C   0  0  0  0  0  0  0  0  0  0  0  0
    9.4578   -5.0200   16.3036 N   0  0  0  0  0  0  0  0  0  0  0  0
    5.0287   -8.9365   16.8223 C   0  0  0  0  0  0  0  0  0  0  0  0
    8.7742   -6.1498   16.6764 C   0  0  0  0  0  0  0  0  0  0  0  0
   10.9418   -3.4032   21.2053 O   0  0  0  0  0  0  0  0  0  0  0  0
    1.4797   -8.6258   16.2950 C   0  0  0  0  0  0  0  0  0  0  0  0
    9.2861   -1.2743   25.3585 C   0  0  0  0  0  0  0  0  0  0  0  0
    1.8892  -10.3985   17.7511 N   0  0  0  0  0  0  0  0  0  0  0  0
    9.6210   -0.6952   24.0976 C   0  0  0  0  0  0  0  0  0  0  0  0
    7.0792   -9.0217   17.1429 C   0  0  0  0  0  0  0  0  0  0  0  0
    3.1713  -10.1816   17.6634 C   0  0  0  0  0  0  0  0  0  0  0  0
    2.7878   -8.3822   16.2137 C   0  0  0  0  0  0  0  0  0  0  0  0
    9.4601   -2.6590   25.6528 C   0  0  0  0  0  0  0  0  0  0  0  0
   10.1182   -1.5672   23.1165 C   0  0  0  0  0  0  0  0  0  0  0  0
    1.0552   -9.6360   17.0650 C   0  0  0  0  0  0  0  0  0  0  0  0
    3.6519   -9.1783   16.9039 C   0  0  0  0  0  0  0  0  0  0  0  0
    7.8675   -7.0096   15.9415 C   0  0  0  0  0  0  0  0  0  0  0  0
    5.9733   -9.6553   17.3832 N   0  0  0  0  0  0  0  0  0  0  0  0
   10.2411   -2.9363   23.4301 C   0  0  0  0  0  0  0  0  0  0  0  0
   10.7288   -3.8197   19.9525 C   0  0  0  0  0  0  0  0  0  0  0  0
   10.1189   -5.0054   19.6987 C   0  0  0  0  0  0  0  0  0  0  0  0
  1  3  4  0
  1  7  4  0
  2 21  4  0
  2 27  4  0
  3  9  4  0
  3 10  4  0
  4  8  4  0
  4 18  4  0
  4 25  1  0
  5  9  4  0
  5 12  4  0
  6 13  1  0
  6 27  1  0
  7 28  4  0
  8 11  4  0
  9 29  4  0
 10 12  4  0
 11 24  1  0
 11 26  4  0
 12 25  1  0
 13 28  1  0
 14 20  4  0
 14 23  4  0
 15 17  4  0
 15 21  4  0
 16 19  4  0
 16 23  4  0
 17 22  4  0
 18 26  4  0
 19 24  4  0
 20 24  4  0
 22 27  4  0
 28 29  4  0
M  END
$$$$

 Created by Python create_sdf_string function

 29 33  0  0  0  0  0  0  0  0999 V2000
   10.7215   -3.3326   17.6437 C   0  0  0  0  0  0  0  0  0  0  0  0
    9.9489   -3.4675   24.6487 N   0  0  0  0  0  0  0  0  0  0  0  0
   10.0172   -4.4740   17.4101 C   0  0  0  0  0  0  0  0  0  0  0  0
    6.9051   -7.9575   16.4222 C   0  0  0  0  0  0  0  0  0  0  0  0
    8.9969   -6.3552   17.9668 N   0  0  0  0  0  0  0  0  0  0  0  0
   10.6702   -3.9051   22.4070 C   0  0  0  0  0  0  0  0  0  0  0  0
   11.0625   -3.0028   18.8894 C   0  0  0  0  0  0  0  0  0  0  0  0
    5.6180   -7.9194   16.1754 O   0  0  0  0  0  0  0  0  0  0  0  0
    9.7259   -5.3080   18.4485 C   0  0  0  0  0  0  0  0  0  0  0  0
    9.4578   -5.0200   16.3036 N   0  0  0  0  0  0  0  0  0  0  0  0
    5.0287   -8.9365   16.8223 C   0  0  0  0  0  0  0  0  0  0  0  0
    8.7742   -6.1498   16.6764 C   0  0  0  0  0  0  0  0  0  0  0  0
   10.9418   -3.4032   21.2053 O   0  0  0  0  0  0  0  0  0  0  0  0
    1.4797   -8.6258   16.2950 C   0  0  0  0  0  0  0  0  0  0  0  0
    9.2861   -1.2743   25.3585 C   0  0  0  0  0  0  0  0  0  0  0  0
    1.8892  -10.3985   17.7511 N   0  0  0  0  0  0  0  0  0  0  0  0
    9.6210   -0.6952   24.0976 C   0  0  0  0  0  0  0  0  0  0  0  0
    7.0792   -9.0217   17.1429 C   0  0  0  0  0  0  0  0  0  0  0  0
    3.1713  -10.1816   17.6634 C   0  0  0  0  0  0  0  0  0  0  0  0
    2.7878   -8.3822   16.2137 C   0  0  0  0  0  0  0  0  0  0  0  0
    9.4601   -2.6590   25.6528 C   0  0  0  0  0  0  0  0  0  0  0  0
   10.1182   -1.5672   23.1165 C   0  0  0  0  0  0  0  0  0  0  0  0
    1.0552   -9.6360   17.0650 C   0  0  0  0  0  0  0  0  0  0  0  0
    3.6519   -9.1783   16.9039 C   0  0  0  0  0  0  0  0  0  0  0  0
    7.8675   -7.0096   15.9415 C   0  0  0  0  0  0  0  0  0  0  0  0
    5.9733   -9.6553   17.3832 N   0  0  0  0  0  0  0  0  0  0  0  0
   10.2411   -2.9363   23.4301 C   0  0  0  0  0  0  0  0  0  0  0  0
   10.7288   -3.8197   19.9525 C   0  0  0  0  0  0  0  0  0  0  0  0
   10.1189   -5.0054   19.6987 C   0  0  0  0  0  0  0  0  0  0  0  0
  1  3  4  0
  1  7  4  0
  2 21  4  0
  2 27  4  0
  3  9  4  0
  3 10  4  0
  4  8  4  0
  4 18  4  0
  4 25  1  0
  5  9  4  0
  5 12  4  0
  6 13  1  0
  6 27  1  0
  7 28  4  0
  8 11  4  0
  9 29  4  0
 10 12  4  0
 11 24  1  0
 11 26  4  0
 12 25  1  0
 13 28  1  0
 14 20  4  0
 14 23  4  0
 15 17  4  0
 15 21  4  0
 16 19  4  0
 16 23  4  0
 17 22  4  0
 18 26  4  0
 19 24  4  0
 20 24  4  0
 22 27  4  0
 28 29  4  0
M  END
$$$$

 Created by Python create_sdf_string function

 29 33  0  0  0  0  0  0  0  0999 V2000
   10.7215   -3.3326   17.6437 C   0  0  0  0  0  0  0  0  0  0  0  0
    9.9489   -3.4675   24.6487 N   0  0  0  0  0  0  0  0  0  0  0  0
   10.0172   -4.4740   17.4101 C   0  0  0  0  0  0  0  0  0  0  0  0
    6.9051   -7.9575   16.4222 C   0  0  0  0  0  0  0  0  0  0  0  0
    8.9969   -6.3552   17.9668 N   0  0  0  0  0  0  0  0  0  0  0  0
   10.6702   -3.9051   22.4070 C   0  0  0  0  0  0  0  0  0  0  0  0
   11.0625   -3.0028   18.8894 C   0  0  0  0  0  0  0  0  0  0  0  0
    5.6180   -7.9194   16.1754 O   0  0  0  0  0  0  0  0  0  0  0  0
    9.7259   -5.3080   18.4485 C   0  0  0  0  0  0  0  0  0  0  0  0
    9.4578   -5.0200   16.3036 N   0  0  0  0  0  0  0  0  0  0  0  0
    5.0287   -8.9365   16.8223 C   0  0  0  0  0  0  0  0  0  0  0  0
    8.7742   -6.1498   16.6764 C   0  0  0  0  0  0  0  0  0  0  0  0
   10.9418   -3.4032   21.2053 O   0  0  0  0  0  0  0  0  0  0  0  0
    1.4797   -8.6258   16.2950 C   0  0  0  0  0  0  0  0  0  0  0  0
    9.2861   -1.2743   25.3585 C   0  0  0  0  0  0  0  0  0  0  0  0
    1.8892  -10.3985   17.7511 N   0  0  0  0  0  0  0  0  0  0  0  0
    9.6210   -0.6952   24.0976 C   0  0  0  0  0  0  0  0  0  0  0  0
    7.0792   -9.0217   17.1429 C   0  0  0  0  0  0  0  0  0  0  0  0
    3.1713  -10.1816   17.6634 C   0  0  0  0  0  0  0  0  0  0  0  0
    2.7878   -8.3822   16.2137 C   0  0  0  0  0  0  0  0  0  0  0  0
    9.4601   -2.6590   25.6528 C   0  0  0  0  0  0  0  0  0  0  0  0
   10.1182   -1.5672   23.1165 C   0  0  0  0  0  0  0  0  0  0  0  0
    1.0552   -9.6360   17.0650 C   0  0  0  0  0  0  0  0  0  0  0  0
    3.6519   -9.1783   16.9039 C   0  0  0  0  0  0  0  0  0  0  0  0
    7.8675   -7.0096   15.9415 C   0  0  0  0  0  0  0  0  0  0  0  0
    5.9733   -9.6553   17.3832 N   0  0  0  0  0  0  0  0  0  0  0  0
   10.2411   -2.9363   23.4301 C   0  0  0  0  0  0  0  0  0  0  0  0
   10.7288   -3.8197   19.9525 C   0  0  0  0  0  0  0  0  0  0  0  0
   10.1189   -5.0054   19.6987 C   0  0  0  0  0  0  0  0  0  0  0  0
  1  3  4  0
  1  7  4  0
  2 21  4  0
  2 27  4  0
  3  9  4  0
  3 10  4  0
  4  8  4  0
  4 18  4  0
  4 25  1  0
  5  9  4  0
  5 12  4  0
  6 13  1  0
  6 27  1  0
  7 28  4  0
  8 11  4  0
  9 29  4  0
 10 12  4  0
 11 24  1  0
 11 26  4  0
 12 25  1  0
 13 28  1  0
 14 20  4  0
 14 23  4  0
 15 17  4  0
 15 21  4  0
 16 19  4  0
 16 23  4  0
 17 22  4  0
 18 26  4  0
 19 24  4  0
 20 24  4  0
 22 27  4  0
 28 29  4  0
M  END
$$$$

 Created by Python create_sdf_string function

 29 33  0  0  0  0  0  0  0  0999 V2000
   10.7215   -3.3326   17.6437 C   0  0  0  0  0  0  0  0  0  0  0  0
    9.9489   -3.4675   24.6487 N   0  0  0  0  0  0  0  0  0  0  0  0
   10.0172   -4.4740   17.4101 C   0  0  0  0  0  0  0  0  0  0  0  0
    6.9051   -7.9575   16.4222 C   0  0  0  0  0  0  0  0  0  0  0  0
    8.9969   -6.3552   17.9668 N   0  0  0  0  0  0  0  0  0  0  0  0
   10.6702   -3.9051   22.4070 C   0  0  0  0  0  0  0  0  0  0  0  0
   11.0625   -3.0028   18.8894 C   0  0  0  0  0  0  0  0  0  0  0  0
    5.6180   -7.9194   16.1754 O   0  0  0  0  0  0  0  0  0  0  0  0
    9.7259   -5.3080   18.4485 C   0  0  0  0  0  0  0  0  0  0  0  0
    9.4578   -5.0200   16.3036 N   0  0  0  0  0  0  0  0  0  0  0  0
    5.0287   -8.9365   16.8223 C   0  0  0  0  0  0  0  0  0  0  0  0
    8.7742   -6.1498   16.6764 C   0  0  0  0  0  0  0  0  0  0  0  0
   10.9418   -3.4032   21.2053 O   0  0  0  0  0  0  0  0  0  0  0  0
    1.4797   -8.6258   16.2950 C   0  0  0  0  0  0  0  0  0  0  0  0
    9.2861   -1.2743   25.3585 C   0  0  0  0  0  0  0  0  0  0  0  0
    1.8892  -10.3985   17.7511 N   0  0  0  0  0  0  0  0  0  0  0  0
    9.6210   -0.6952   24.0976 C   0  0  0  0  0  0  0  0  0  0  0  0
    7.0792   -9.0217   17.1429 C   0  0  0  0  0  0  0  0  0  0  0  0
    3.1713  -10.1816   17.6634 C   0  0  0  0  0  0  0  0  0  0  0  0
    2.7878   -8.3822   16.2137 C   0  0  0  0  0  0  0  0  0  0  0  0
    9.4601   -2.6590   25.6528 C   0  0  0  0  0  0  0  0  0  0  0  0
   10.1182   -1.5672   23.1165 C   0  0  0  0  0  0  0  0  0  0  0  0
    1.0552   -9.6360   17.0650 C   0  0  0  0  0  0  0  0  0  0  0  0
    3.6519   -9.1783   16.9039 C   0  0  0  0  0  0  0  0  0  0  0  0
    7.8675   -7.0096   15.9415 C   0  0  0  0  0  0  0  0  0  0  0  0
    5.9733   -9.6553   17.3832 N   0  0  0  0  0  0  0  0  0  0  0  0
   10.2411   -2.9363   23.4301 C   0  0  0  0  0  0  0  0  0  0  0  0
   10.7288   -3.8197   19.9525 C   0  0  0  0  0  0  0  0  0  0  0  0
   10.1189   -5.0054   19.6987 C   0  0  0  0  0  0  0  0  0  0  0  0
  1  3  4  0
  1  7  4  0
  2 21  4  0
  2 27  4  0
  3  9  4  0
  3 10  4  0
  4  8  4  0
  4 18  4  0
  4 25  1  0
  5  9  4  0
  5 12  4  0
  6 13  1  0
  6 27  1  0
  7 28  4  0
  8 11  4  0
  9 29  4  0
 10 12  4  0
 11 24  1  0
 11 26  4  0
 12 25  1  0
 13 28  1  0
 14 20  4  0
 14 23  4  0
 15 17  4  0
 15 21  4  0
 16 19  4  0
 16 23  4  0
 17 22  4  0
 18 26  4  0
 19 24  4  0
 20 24  4  0
 22 27  4  0
 28 29  4  0
M  END
$$$$

 Created by Python create_sdf_string function

 29 33  0  0  0  0  0  0  0  0999 V2000
   10.7215   -3.3326   17.6437 C   0  0  0  0  0  0  0  0  0  0  0  0
    9.9489   -3.4675   24.6487 N   0  0  0  0  0  0  0  0  0  0  0  0
   10.0172   -4.4740   17.4101 C   0  0  0  0  0  0  0  0  0  0  0  0
    6.9051   -7.9575   16.4222 C   0  0  0  0  0  0  0  0  0  0  0  0
    8.9969   -6.3552   17.9668 N   0  0  0  0  0  0  0  0  0  0  0  0
   10.6702   -3.9051   22.4070 C   0  0  0  0  0  0  0  0  0  0  0  0
   11.0625   -3.0028   18.8894 C   0  0  0  0  0  0  0  0  0  0  0  0
    5.6180   -7.9194   16.1754 O   0  0  0  0  0  0  0  0  0  0  0  0
    9.7259   -5.3080   18.4485 C   0  0  0  0  0  0  0  0  0  0  0  0
    9.4578   -5.0200   16.3036 N   0  0  0  0  0  0  0  0  0  0  0  0
    5.0287   -8.9365   16.8223 C   0  0  0  0  0  0  0  0  0  0  0  0
    8.7742   -6.1498   16.6764 C   0  0  0  0  0  0  0  0  0  0  0  0
   10.9418   -3.4032   21.2053 O   0  0  0  0  0  0  0  0  0  0  0  0
    1.4797   -8.6258   16.2950 C   0  0  0  0  0  0  0  0  0  0  0  0
    9.2861   -1.2743   25.3585 C   0  0  0  0  0  0  0  0  0  0  0  0
    1.8892  -10.3985   17.7511 N   0  0  0  0  0  0  0  0  0  0  0  0
    9.6210   -0.6952   24.0976 C   0  0  0  0  0  0  0  0  0  0  0  0
    7.0792   -9.0217   17.1429 C   0  0  0  0  0  0  0  0  0  0  0  0
    3.1713  -10.1816   17.6634 C   0  0  0  0  0  0  0  0  0  0  0  0
    2.7878   -8.3822   16.2137 C   0  0  0  0  0  0  0  0  0  0  0  0
    9.4601   -2.6590   25.6528 C   0  0  0  0  0  0  0  0  0  0  0  0
   10.1182   -1.5672   23.1165 C   0  0  0  0  0  0  0  0  0  0  0  0
    1.0552   -9.6360   17.0650 C   0  0  0  0  0  0  0  0  0  0  0  0
    3.6519   -9.1783   16.9039 C   0  0  0  0  0  0  0  0  0  0  0  0
    7.8675   -7.0096   15.9415 C   0  0  0  0  0  0  0  0  0  0  0  0
    5.9733   -9.6553   17.3832 N   0  0  0  0  0  0  0  0  0  0  0  0
   10.2411   -2.9363   23.4301 C   0  0  0  0  0  0  0  0  0  0  0  0
   10.7288   -3.8197   19.9525 C   0  0  0  0  0  0  0  0  0  0  0  0
   10.1189   -5.0054   19.6987 C   0  0  0  0  0  0  0  0  0  0  0  0
  1  3  4  0
  1  7  4  0
  2 21  4  0
  2 27  4  0
  3  9  4  0
  3 10  4  0
  4  8  4  0
  4 18  4  0
  4 25  1  0
  5  9  4  0
  5 12  4  0
  6 13  1  0
  6 27  1  0
  7 28  4  0
  8 11  4  0
  9 29  4  0
 10 12  4  0
 11 24  1  0
 11 26  4  0
 12 25  1  0
 13 28  1  0
 14 20  4  0
 14 23  4  0
 15 17  4  0
 15 21  4  0
 16 19  4  0
 16 23  4  0
 17 22  4  0
 18 26  4  0
 19 24  4  0
 20 24  4  0
 22 27  4  0
 28 29  4  0
M  END
$$$$

 Created by Python create_sdf_string function

 29 33  0  0  0  0  0  0  0  0999 V2000
   10.7215   -3.3326   17.6437 C   0  0  0  0  0  0  0  0  0  0  0  0
    9.9489   -3.4675   24.6487 N   0  0  0  0  0  0  0  0  0  0  0  0
   10.0172   -4.4740   17.4101 C   0  0  0  0  0  0  0  0  0  0  0  0
    6.9051   -7.9575   16.4222 C   0  0  0  0  0  0  0  0  0  0  0  0
    8.9969   -6.3552   17.9668 N   0  0  0  0  0  0  0  0  0  0  0  0
   10.6702   -3.9051   22.4070 C   0  0  0  0  0  0  0  0  0  0  0  0
   11.0625   -3.0028   18.8894 C   0  0  0  0  0  0  0  0  0  0  0  0
    5.6180   -7.9194   16.1754 O   0  0  0  0  0  0  0  0  0  0  0  0
    9.7259   -5.3080   18.4485 C   0  0  0  0  0  0  0  0  0  0  0  0
    9.4578   -5.0200   16.3036 N   0  0  0  0  0  0  0  0  0  0  0  0
    5.0287   -8.9365   16.8223 C   0  0  0  0  0  0  0  0  0  0  0  0
    8.7742   -6.1498   16.6764 C   0  0  0  0  0  0  0  0  0  0  0  0
   10.9418   -3.4032   21.2053 O   0  0  0  0  0  0  0  0  0  0  0  0
    1.4797   -8.6258   16.2950 C   0  0  0  0  0  0  0  0  0  0  0  0
    9.2861   -1.2743   25.3585 C   0  0  0  0  0  0  0  0  0  0  0  0
    1.8892  -10.3985   17.7511 N   0  0  0  0  0  0  0  0  0  0  0  0
    9.6210   -0.6952   24.0976 C   0  0  0  0  0  0  0  0  0  0  0  0
    7.0792   -9.0217   17.1429 C   0  0  0  0  0  0  0  0  0  0  0  0
    3.1713  -10.1816   17.6634 C   0  0  0  0  0  0  0  0  0  0  0  0
    2.7878   -8.3822   16.2137 C   0  0  0  0  0  0  0  0  0  0  0  0
    9.4601   -2.6590   25.6528 C   0  0  0  0  0  0  0  0  0  0  0  0
   10.1182   -1.5672   23.1165 C   0  0  0  0  0  0  0  0  0  0  0  0
    1.0552   -9.6360   17.0650 C   0  0  0  0  0  0  0  0  0  0  0  0
    3.6519   -9.1783   16.9039 C   0  0  0  0  0  0  0  0  0  0  0  0
    7.8675   -7.0096   15.9415 C   0  0  0  0  0  0  0  0  0  0  0  0
    5.9733   -9.6553   17.3832 N   0  0  0  0  0  0  0  0  0  0  0  0
   10.2411   -2.9363   23.4301 C   0  0  0  0  0  0  0  0  0  0  0  0
   10.7288   -3.8197   19.9525 C   0  0  0  0  0  0  0  0  0  0  0  0
   10.1189   -5.0054   19.6987 C   0  0  0  0  0  0  0  0  0  0  0  0
  1  3  4  0
  1  7  4  0
  2 21  4  0
  2 27  4  0
  3  9  4  0
  3 10  4  0
  4  8  4  0
  4 18  4  0
  4 25  1  0
  5  9  4  0
  5 12  4  0
  6 13  1  0
  6 27  1  0
  7 28  4  0
  8 11  4  0
  9 29  4  0
 10 12  4  0
 11 24  1  0
 11 26  4  0
 12 25  1  0
 13 28  1  0
 14 20  4  0
 14 23  4  0
 15 17  4  0
 15 21  4  0
 16 19  4  0
 16 23  4  0
 17 22  4  0
 18 26  4  0
 19 24  4  0
 20 24  4  0
 22 27  4  0
 28 29  4  0
M  END
$$$$

 Created by Python create_sdf_string function

 29 33  0  0  0  0  0  0  0  0999 V2000
   10.7215   -3.3326   17.6437 C   0  0  0  0  0  0  0  0  0  0  0  0
    9.9489   -3.4675   24.6487 N   0  0  0  0  0  0  0  0  0  0  0  0
   10.0172   -4.4740   17.4101 C   0  0  0  0  0  0  0  0  0  0  0  0
    6.9051   -7.9575   16.4222 C   0  0  0  0  0  0  0  0  0  0  0  0
    8.9969   -6.3552   17.9668 N   0  0  0  0  0  0  0  0  0  0  0  0
   10.6702   -3.9051   22.4070 C   0  0  0  0  0  0  0  0  0  0  0  0
   11.0625   -3.0028   18.8894 C   0  0  0  0  0  0  0  0  0  0  0  0
    5.6180   -7.9194   16.1754 O   0  0  0  0  0  0  0  0  0  0  0  0
    9.7259   -5.3080   18.4485 C   0  0  0  0  0  0  0  0  0  0  0  0
    9.4578   -5.0200   16.3036 N   0  0  0  0  0  0  0  0  0  0  0  0
    5.0287   -8.9365   16.8223 C   0  0  0  0  0  0  0  0  0  0  0  0
    8.7742   -6.1498   16.6764 C   0  0  0  0  0  0  0  0  0  0  0  0
   10.9418   -3.4032   21.2053 O   0  0  0  0  0  0  0  0  0  0  0  0
    1.4797   -8.6258   16.2950 C   0  0  0  0  0  0  0  0  0  0  0  0
    9.2861   -1.2743   25.3585 C   0  0  0  0  0  0  0  0  0  0  0  0
    1.8892  -10.3985   17.7511 N   0  0  0  0  0  0  0  0  0  0  0  0
    9.6210   -0.6952   24.0976 C   0  0  0  0  0  0  0  0  0  0  0  0
    7.0792   -9.0217   17.1429 C   0  0  0  0  0  0  0  0  0  0  0  0
    3.1713  -10.1816   17.6634 C   0  0  0  0  0  0  0  0  0  0  0  0
    2.7878   -8.3822   16.2137 C   0  0  0  0  0  0  0  0  0  0  0  0
    9.4601   -2.6590   25.6528 C   0  0  0  0  0  0  0  0  0  0  0  0
   10.1182   -1.5672   23.1165 C   0  0  0  0  0  0  0  0  0  0  0  0
    1.0552   -9.6360   17.0650 C   0  0  0  0  0  0  0  0  0  0  0  0
    3.6519   -9.1783   16.9039 C   0  0  0  0  0  0  0  0  0  0  0  0
    7.8675   -7.0096   15.9415 C   0  0  0  0  0  0  0  0  0  0  0  0
    5.9733   -9.6553   17.3832 N   0  0  0  0  0  0  0  0  0  0  0  0
   10.2411   -2.9363   23.4301 C   0  0  0  0  0  0  0  0  0  0  0  0
   10.7288   -3.8197   19.9525 C   0  0  0  0  0  0  0  0  0  0  0  0
   10.1189   -5.0054   19.6987 C   0  0  0  0  0  0  0  0  0  0  0  0
  1  3  4  0
  1  7  4  0
  2 21  4  0
  2 27  4  0
  3  9  4  0
  3 10  4  0
  4  8  4  0
  4 18  4  0
  4 25  1  0
  5  9  4  0
  5 12  4  0
  6 13  1  0
  6 27  1  0
  7 28  4  0
  8 11  4  0
  9 29  4  0
 10 12  4  0
 11 24  1  0
 11 26  4  0
 12 25  1  0
 13 28  1  0
 14 20  4  0
 14 23  4  0
 15 17  4  0
 15 21  4  0
 16 19  4  0
 16 23  4  0
 17 22  4  0
 18 26  4  0
 19 24  4  0
 20 24  4  0
 22 27  4  0
 28 29  4  0
M  END
$$$$

 Created by Python create_sdf_string function

 29 33  0  0  0  0  0  0  0  0999 V2000
   10.7215   -3.3326   17.6437 C   0  0  0  0  0  0  0  0  0  0  0  0
    9.9489   -3.4675   24.6487 N   0  0  0  0  0  0  0  0  0  0  0  0
   10.0172   -4.4740   17.4101 C   0  0  0  0  0  0  0  0  0  0  0  0
    6.9051   -7.9575   16.4222 C   0  0  0  0  0  0  0  0  0  0  0  0
    8.9969   -6.3552   17.9668 N   0  0  0  0  0  0  0  0  0  0  0  0
   10.6702   -3.9051   22.4070 C   0  0  0  0  0  0  0  0  0  0  0  0
   11.0625   -3.0028   18.8894 C   0  0  0  0  0  0  0  0  0  0  0  0
    5.6180   -7.9194   16.1754 O   0  0  0  0  0  0  0  0  0  0  0  0
    9.7259   -5.3080   18.4485 C   0  0  0  0  0  0  0  0  0  0  0  0
    9.4578   -5.0200   16.3036 N   0  0  0  0  0  0  0  0  0  0  0  0
    5.0287   -8.9365   16.8223 C   0  0  0  0  0  0  0  0  0  0  0  0
    8.7742   -6.1498   16.6764 C   0  0  0  0  0  0  0  0  0  0  0  0
   10.9418   -3.4032   21.2053 O   0  0  0  0  0  0  0  0  0  0  0  0
    1.4797   -8.6258   16.2950 C   0  0  0  0  0  0  0  0  0  0  0  0
    9.2861   -1.2743   25.3585 C   0  0  0  0  0  0  0  0  0  0  0  0
    1.8892  -10.3985   17.7511 N   0  0  0  0  0  0  0  0  0  0  0  0
    9.6210   -0.6952   24.0976 C   0  0  0  0  0  0  0  0  0  0  0  0
    7.0792   -9.0217   17.1429 C   0  0  0  0  0  0  0  0  0  0  0  0
    3.1713  -10.1816   17.6634 C   0  0  0  0  0  0  0  0  0  0  0  0
    2.7878   -8.3822   16.2137 C   0  0  0  0  0  0  0  0  0  0  0  0
    9.4601   -2.6590   25.6528 C   0  0  0  0  0  0  0  0  0  0  0  0
   10.1182   -1.5672   23.1165 C   0  0  0  0  0  0  0  0  0  0  0  0
    1.0552   -9.6360   17.0650 C   0  0  0  0  0  0  0  0  0  0  0  0
    3.6519   -9.1783   16.9039 C   0  0  0  0  0  0  0  0  0  0  0  0
    7.8675   -7.0096   15.9415 C   0  0  0  0  0  0  0  0  0  0  0  0
    5.9733   -9.6553   17.3832 N   0  0  0  0  0  0  0  0  0  0  0  0
   10.2411   -2.9363   23.4301 C   0  0  0  0  0  0  0  0  0  0  0  0
   10.7288   -3.8197   19.9525 C   0  0  0  0  0  0  0  0  0  0  0  0
   10.1189   -5.0054   19.6987 C   0  0  0  0  0  0  0  0  0  0  0  0
  1  3  4  0
  1  7  4  0
  2 21  4  0
  2 27  4  0
  3  9  4  0
  3 10  4  0
  4  8  4  0
  4 18  4  0
  4 25  1  0
  5  9  4  0
  5 12  4  0
  6 13  1  0
  6 27  1  0
  7 28  4  0
  8 11  4  0
  9 29  4  0
 10 12  4  0
 11 24  1  0
 11 26  4  0
 12 25  1  0
 13 28  1  0
 14 20  4  0
 14 23  4  0
 15 17  4  0
 15 21  4  0
 16 19  4  0
 16 23  4  0
 17 22  4  0
 18 26  4  0
 19 24  4  0
 20 24  4  0
 22 27  4  0
 28 29  4  0
M  END
$$$$

 Created by Python create_sdf_string function

 29 33  0  0  0  0  0  0  0  0999 V2000
   10.7215   -3.3326   17.6437 C   0  0  0  0  0  0  0  0  0  0  0  0
    9.9489   -3.4675   24.6487 N   0  0  0  0  0  0  0  0  0  0  0  0
   10.0172   -4.4740   17.4101 C   0  0  0  0  0  0  0  0  0  0  0  0
    6.9051   -7.9575   16.4222 C   0  0  0  0  0  0  0  0  0  0  0  0
    8.9969   -6.3552   17.9668 N   0  0  0  0  0  0  0  0  0  0  0  0
   10.6702   -3.9051   22.4070 C   0  0  0  0  0  0  0  0  0  0  0  0
   11.0625   -3.0028   18.8894 C   0  0  0  0  0  0  0  0  0  0  0  0
    5.6180   -7.9194   16.1754 O   0  0  0  0  0  0  0  0  0  0  0  0
    9.7259   -5.3080   18.4485 C   0  0  0  0  0  0  0  0  0  0  0  0
    9.4578   -5.0200   16.3036 N   0  0  0  0  0  0  0  0  0  0  0  0
    5.0287   -8.9365   16.8223 C   0  0  0  0  0  0  0  0  0  0  0  0
    8.7742   -6.1498   16.6764 C   0  0  0  0  0  0  0  0  0  0  0  0
   10.9418   -3.4032   21.2053 O   0  0  0  0  0  0  0  0  0  0  0  0
    1.4797   -8.6258   16.2950 C   0  0  0  0  0  0  0  0  0  0  0  0
    9.2861   -1.2743   25.3585 C   0  0  0  0  0  0  0  0  0  0  0  0
    1.8892  -10.3985   17.7511 N   0  0  0  0  0  0  0  0  0  0  0  0
    9.6210   -0.6952   24.0976 C   0  0  0  0  0  0  0  0  0  0  0  0
    7.0792   -9.0217   17.1429 C   0  0  0  0  0  0  0  0  0  0  0  0
    3.1713  -10.1816   17.6634 C   0  0  0  0  0  0  0  0  0  0  0  0
    2.7878   -8.3822   16.2137 C   0  0  0  0  0  0  0  0  0  0  0  0
    9.4601   -2.6590   25.6528 C   0  0  0  0  0  0  0  0  0  0  0  0
   10.1182   -1.5672   23.1165 C   0  0  0  0  0  0  0  0  0  0  0  0
    1.0552   -9.6360   17.0650 C   0  0  0  0  0  0  0  0  0  0  0  0
    3.6519   -9.1783   16.9039 C   0  0  0  0  0  0  0  0  0  0  0  0
    7.8675   -7.0096   15.9415 C   0  0  0  0  0  0  0  0  0  0  0  0
    5.9733   -9.6553   17.3832 N   0  0  0  0  0  0  0  0  0  0  0  0
   10.2411   -2.9363   23.4301 C   0  0  0  0  0  0  0  0  0  0  0  0
   10.7288   -3.8197   19.9525 C   0  0  0  0  0  0  0  0  0  0  0  0
   10.1189   -5.0054   19.6987 C   0  0  0  0  0  0  0  0  0  0  0  0
  1  3  4  0
  1  7  4  0
  2 21  4  0
  2 27  4  0
  3  9  4  0
  3 10  4  0
  4  8  4  0
  4 18  4  0
  4 25  1  0
  5  9  4  0
  5 12  4  0
  6 13  1  0
  6 27  1  0
  7 28  4  0
  8 11  4  0
  9 29  4  0
 10 12  4  0
 11 24  1  0
 11 26  4  0
 12 25  1  0
 13 28  1  0
 14 20  4  0
 14 23  4  0
 15 17  4  0
 15 21  4  0
 16 19  4  0
 16 23  4  0
 17 22  4  0
 18 26  4  0
 19 24  4  0
 20 24  4  0
 22 27  4  0
 28 29  4  0
M  END
$$$$

 Created by Python create_sdf_string function

 29 33  0  0  0  0  0  0  0  0999 V2000
   10.7215   -3.3326   17.6437 C   0  0  0  0  0  0  0  0  0  0  0  0
    9.9489   -3.4675   24.6487 N   0  0  0  0  0  0  0  0  0  0  0  0
   10.0172   -4.4740   17.4101 C   0  0  0  0  0  0  0  0  0  0  0  0
    6.9051   -7.9575   16.4222 C   0  0  0  0  0  0  0  0  0  0  0  0
    8.9969   -6.3552   17.9668 N   0  0  0  0  0  0  0  0  0  0  0  0
   10.6702   -3.9051   22.4070 C   0  0  0  0  0  0  0  0  0  0  0  0
   11.0625   -3.0028   18.8894 C   0  0  0  0  0  0  0  0  0  0  0  0
    5.6180   -7.9194   16.1754 O   0  0  0  0  0  0  0  0  0  0  0  0
    9.7259   -5.3080   18.4485 C   0  0  0  0  0  0  0  0  0  0  0  0
    9.4578   -5.0200   16.3036 N   0  0  0  0  0  0  0  0  0  0  0  0
    5.0287   -8.9365   16.8223 C   0  0  0  0  0  0  0  0  0  0  0  0
    8.7742   -6.1498   16.6764 C   0  0  0  0  0  0  0  0  0  0  0  0
   10.9418   -3.4032   21.2053 O   0  0  0  0  0  0  0  0  0  0  0  0
    1.4797   -8.6258   16.2950 C   0  0  0  0  0  0  0  0  0  0  0  0
    9.2861   -1.2743   25.3585 C   0  0  0  0  0  0  0  0  0  0  0  0
    1.8892  -10.3985   17.7511 N   0  0  0  0  0  0  0  0  0  0  0  0
    9.6210   -0.6952   24.0976 C   0  0  0  0  0  0  0  0  0  0  0  0
    7.0792   -9.0217   17.1429 C   0  0  0  0  0  0  0  0  0  0  0  0
    3.1713  -10.1816   17.6634 C   0  0  0  0  0  0  0  0  0  0  0  0
    2.7878   -8.3822   16.2137 C   0  0  0  0  0  0  0  0  0  0  0  0
    9.4601   -2.6590   25.6528 C   0  0  0  0  0  0  0  0  0  0  0  0
   10.1182   -1.5672   23.1165 C   0  0  0  0  0  0  0  0  0  0  0  0
    1.0552   -9.6360   17.0650 C   0  0  0  0  0  0  0  0  0  0  0  0
    3.6519   -9.1783   16.9039 C   0  0  0  0  0  0  0  0  0  0  0  0
    7.8675   -7.0096   15.9415 C   0  0  0  0  0  0  0  0  0  0  0  0
    5.9733   -9.6553   17.3832 N   0  0  0  0  0  0  0  0  0  0  0  0
   10.2411   -2.9363   23.4301 C   0  0  0  0  0  0  0  0  0  0  0  0
   10.7288   -3.8197   19.9525 C   0  0  0  0  0  0  0  0  0  0  0  0
   10.1189   -5.0054   19.6987 C   0  0  0  0  0  0  0  0  0  0  0  0
  1  3  4  0
  1  7  4  0
  2 21  4  0
  2 27  4  0
  3  9  4  0
  3 10  4  0
  4  8  4  0
  4 18  4  0
  4 25  1  0
  5  9  4  0
  5 12  4  0
  6 13  1  0
  6 27  1  0
  7 28  4  0
  8 11  4  0
  9 29  4  0
 10 12  4  0
 11 24  1  0
 11 26  4  0
 12 25  1  0
 13 28  1  0
 14 20  4  0
 14 23  4  0
 15 17  4  0
 15 21  4  0
 16 19  4  0
 16 23  4  0
 17 22  4  0
 18 26  4  0
 19 24  4  0
 20 24  4  0
 22 27  4  0
 28 29  4  0
M  END
$$$$

 Created by Python create_sdf_string function

 29 33  0  0  0  0  0  0  0  0999 V2000
   10.7215   -3.3326   17.6437 C   0  0  0  0  0  0  0  0  0  0  0  0
    9.9489   -3.4675   24.6487 N   0  0  0  0  0  0  0  0  0  0  0  0
   10.0172   -4.4740   17.4101 C   0  0  0  0  0  0  0  0  0  0  0  0
    6.9051   -7.9575   16.4222 C   0  0  0  0  0  0  0  0  0  0  0  0
    8.9969   -6.3552   17.9668 N   0  0  0  0  0  0  0  0  0  0  0  0
   10.6702   -3.9051   22.4070 C   0  0  0  0  0  0  0  0  0  0  0  0
   11.0625   -3.0028   18.8894 C   0  0  0  0  0  0  0  0  0  0  0  0
    5.6180   -7.9194   16.1754 O   0  0  0  0  0  0  0  0  0  0  0  0
    9.7259   -5.3080   18.4485 C   0  0  0  0  0  0  0  0  0  0  0  0
    9.4578   -5.0200   16.3036 N   0  0  0  0  0  0  0  0  0  0  0  0
    5.0287   -8.9365   16.8223 C   0  0  0  0  0  0  0  0  0  0  0  0
    8.7742   -6.1498   16.6764 C   0  0  0  0  0  0  0  0  0  0  0  0
   10.9418   -3.4032   21.2053 O   0  0  0  0  0  0  0  0  0  0  0  0
    1.4797   -8.6258   16.2950 C   0  0  0  0  0  0  0  0  0  0  0  0
    9.2861   -1.2743   25.3585 C   0  0  0  0  0  0  0  0  0  0  0  0
    1.8892  -10.3985   17.7511 N   0  0  0  0  0  0  0  0  0  0  0  0
    9.6210   -0.6952   24.0976 C   0  0  0  0  0  0  0  0  0  0  0  0
    7.0792   -9.0217   17.1429 C   0  0  0  0  0  0  0  0  0  0  0  0
    3.1713  -10.1816   17.6634 C   0  0  0  0  0  0  0  0  0  0  0  0
    2.7878   -8.3822   16.2137 C   0  0  0  0  0  0  0  0  0  0  0  0
    9.4601   -2.6590   25.6528 C   0  0  0  0  0  0  0  0  0  0  0  0
   10.1182   -1.5672   23.1165 C   0  0  0  0  0  0  0  0  0  0  0  0
    1.0552   -9.6360   17.0650 C   0  0  0  0  0  0  0  0  0  0  0  0
    3.6519   -9.1783   16.9039 C   0  0  0  0  0  0  0  0  0  0  0  0
    7.8675   -7.0096   15.9415 C   0  0  0  0  0  0  0  0  0  0  0  0
    5.9733   -9.6553   17.3832 N   0  0  0  0  0  0  0  0  0  0  0  0
   10.2411   -2.9363   23.4301 C   0  0  0  0  0  0  0  0  0  0  0  0
   10.7288   -3.8197   19.9525 C   0  0  0  0  0  0  0  0  0  0  0  0
   10.1189   -5.0054   19.6987 C   0  0  0  0  0  0  0  0  0  0  0  0
  1  3  4  0
  1  7  4  0
  2 21  4  0
  2 27  4  0
  3  9  4  0
  3 10  4  0
  4  8  4  0
  4 18  4  0
  4 25  1  0
  5  9  4  0
  5 12  4  0
  6 13  1  0
  6 27  1  0
  7 28  4  0
  8 11  4  0
  9 29  4  0
 10 12  4  0
 11 24  1  0
 11 26  4  0
 12 25  1  0
 13 28  1  0
 14 20  4  0
 14 23  4  0
 15 17  4  0
 15 21  4  0
 16 19  4  0
 16 23  4  0
 17 22  4  0
 18 26  4  0
 19 24  4  0
 20 24  4  0
 22 27  4  0
 28 29  4  0
M  END
$$$$

 Created by Python create_sdf_string function

 29 33  0  0  0  0  0  0  0  0999 V2000
   10.7215   -3.3326   17.6437 C   0  0  0  0  0  0  0  0  0  0  0  0
    9.9489   -3.4675   24.6487 N   0  0  0  0  0  0  0  0  0  0  0  0
   10.0172   -4.4740   17.4101 C   0  0  0  0  0  0  0  0  0  0  0  0
    6.9051   -7.9575   16.4222 C   0  0  0  0  0  0  0  0  0  0  0  0
    8.9969   -6.3552   17.9668 N   0  0  0  0  0  0  0  0  0  0  0  0
   10.6702   -3.9051   22.4070 C   0  0  0  0  0  0  0  0  0  0  0  0
   11.0625   -3.0028   18.8894 C   0  0  0  0  0  0  0  0  0  0  0  0
    5.6180   -7.9194   16.1754 O   0  0  0  0  0  0  0  0  0  0  0  0
    9.7259   -5.3080   18.4485 C   0  0  0  0  0  0  0  0  0  0  0  0
    9.4578   -5.0200   16.3036 N   0  0  0  0  0  0  0  0  0  0  0  0
    5.0287   -8.9365   16.8223 C   0  0  0  0  0  0  0  0  0  0  0  0
    8.7742   -6.1498   16.6764 C   0  0  0  0  0  0  0  0  0  0  0  0
   10.9418   -3.4032   21.2053 O   0  0  0  0  0  0  0  0  0  0  0  0
    1.4797   -8.6258   16.2950 C   0  0  0  0  0  0  0  0  0  0  0  0
    9.2861   -1.2743   25.3585 C   0  0  0  0  0  0  0  0  0  0  0  0
    1.8892  -10.3985   17.7511 N   0  0  0  0  0  0  0  0  0  0  0  0
    9.6210   -0.6952   24.0976 C   0  0  0  0  0  0  0  0  0  0  0  0
    7.0792   -9.0217   17.1429 C   0  0  0  0  0  0  0  0  0  0  0  0
    3.1713  -10.1816   17.6634 C   0  0  0  0  0  0  0  0  0  0  0  0
    2.7878   -8.3822   16.2137 C   0  0  0  0  0  0  0  0  0  0  0  0
    9.4601   -2.6590   25.6528 C   0  0  0  0  0  0  0  0  0  0  0  0
   10.1182   -1.5672   23.1165 C   0  0  0  0  0  0  0  0  0  0  0  0
    1.0552   -9.6360   17.0650 C   0  0  0  0  0  0  0  0  0  0  0  0
    3.6519   -9.1783   16.9039 C   0  0  0  0  0  0  0  0  0  0  0  0
    7.8675   -7.0096   15.9415 C   0  0  0  0  0  0  0  0  0  0  0  0
    5.9733   -9.6553   17.3832 N   0  0  0  0  0  0  0  0  0  0  0  0
   10.2411   -2.9363   23.4301 C   0  0  0  0  0  0  0  0  0  0  0  0
   10.7288   -3.8197   19.9525 C   0  0  0  0  0  0  0  0  0  0  0  0
   10.1189   -5.0054   19.6987 C   0  0  0  0  0  0  0  0  0  0  0  0
  1  3  4  0
  1  7  4  0
  2 21  4  0
  2 27  4  0
  3  9  4  0
  3 10  4  0
  4  8  4  0
  4 18  4  0
  4 25  1  0
  5  9  4  0
  5 12  4  0
  6 13  1  0
  6 27  1  0
  7 28  4  0
  8 11  4  0
  9 29  4  0
 10 12  4  0
 11 24  1  0
 11 26  4  0
 12 25  1  0
 13 28  1  0
 14 20  4  0
 14 23  4  0
 15 17  4  0
 15 21  4  0
 16 19  4  0
 16 23  4  0
 17 22  4  0
 18 26  4  0
 19 24  4  0
 20 24  4  0
 22 27  4  0
 28 29  4  0
M  END
$$$$

 Created by Python create_sdf_string function

 29 33  0  0  0  0  0  0  0  0999 V2000
   10.7215   -3.3326   17.6437 C   0  0  0  0  0  0  0  0  0  0  0  0
    9.9489   -3.4675   24.6487 N   0  0  0  0  0  0  0  0  0  0  0  0
   10.0172   -4.4740   17.4101 C   0  0  0  0  0  0  0  0  0  0  0  0
    6.9051   -7.9575   16.4222 C   0  0  0  0  0  0  0  0  0  0  0  0
    8.9969   -6.3552   17.9668 N   0  0  0  0  0  0  0  0  0  0  0  0
   10.6702   -3.9051   22.4070 C   0  0  0  0  0  0  0  0  0  0  0  0
   11.0625   -3.0028   18.8894 C   0  0  0  0  0  0  0  0  0  0  0  0
    5.6180   -7.9194   16.1754 O   0  0  0  0  0  0  0  0  0  0  0  0
    9.7259   -5.3080   18.4485 C   0  0  0  0  0  0  0  0  0  0  0  0
    9.4578   -5.0200   16.3036 N   0  0  0  0  0  0  0  0  0  0  0  0
    5.0287   -8.9365   16.8223 C   0  0  0  0  0  0  0  0  0  0  0  0
    8.7742   -6.1498   16.6764 C   0  0  0  0  0  0  0  0  0  0  0  0
   10.9418   -3.4032   21.2053 O   0  0  0  0  0  0  0  0  0  0  0  0
    1.4797   -8.6258   16.2950 C   0  0  0  0  0  0  0  0  0  0  0  0
    9.2861   -1.2743   25.3585 C   0  0  0  0  0  0  0  0  0  0  0  0
    1.8892  -10.3985   17.7511 N   0  0  0  0  0  0  0  0  0  0  0  0
    9.6210   -0.6952   24.0976 C   0  0  0  0  0  0  0  0  0  0  0  0
    7.0792   -9.0217   17.1429 C   0  0  0  0  0  0  0  0  0  0  0  0
    3.1713  -10.1816   17.6634 C   0  0  0  0  0  0  0  0  0  0  0  0
    2.7878   -8.3822   16.2137 C   0  0  0  0  0  0  0  0  0  0  0  0
    9.4601   -2.6590   25.6528 C   0  0  0  0  0  0  0  0  0  0  0  0
   10.1182   -1.5672   23.1165 C   0  0  0  0  0  0  0  0  0  0  0  0
    1.0552   -9.6360   17.0650 C   0  0  0  0  0  0  0  0  0  0  0  0
    3.6519   -9.1783   16.9039 C   0  0  0  0  0  0  0  0  0  0  0  0
    7.8675   -7.0096   15.9415 C   0  0  0  0  0  0  0  0  0  0  0  0
    5.9733   -9.6553   17.3832 N   0  0  0  0  0  0  0  0  0  0  0  0
   10.2411   -2.9363   23.4301 C   0  0  0  0  0  0  0  0  0  0  0  0
   10.7288   -3.8197   19.9525 C   0  0  0  0  0  0  0  0  0  0  0  0
   10.1189   -5.0054   19.6987 C   0  0  0  0  0  0  0  0  0  0  0  0
  1  3  4  0
  1  7  4  0
  2 21  4  0
  2 27  4  0
  3  9  4  0
  3 10  4  0
  4  8  4  0
  4 18  4  0
  4 25  1  0
  5  9  4  0
  5 12  4  0
  6 13  1  0
  6 27  1  0
  7 28  4  0
  8 11  4  0
  9 29  4  0
 10 12  4  0
 11 24  1  0
 11 26  4  0
 12 25  1  0
 13 28  1  0
 14 20  4  0
 14 23  4  0
 15 17  4  0
 15 21  4  0
 16 19  4  0
 16 23  4  0
 17 22  4  0
 18 26  4  0
 19 24  4  0
 20 24  4  0
 22 27  4  0
 28 29  4  0
M  END
$$$$

 Created by Python create_sdf_string function

 29 33  0  0  0  0  0  0  0  0999 V2000
   10.7215   -3.3326   17.6437 C   0  0  0  0  0  0  0  0  0  0  0  0
    9.9489   -3.4675   24.6487 N   0  0  0  0  0  0  0  0  0  0  0  0
   10.0172   -4.4740   17.4101 C   0  0  0  0  0  0  0  0  0  0  0  0
    6.9051   -7.9575   16.4222 C   0  0  0  0  0  0  0  0  0  0  0  0
    8.9969   -6.3552   17.9668 N   0  0  0  0  0  0  0  0  0  0  0  0
   10.6702   -3.9051   22.4070 C   0  0  0  0  0  0  0  0  0  0  0  0
   11.0625   -3.0028   18.8894 C   0  0  0  0  0  0  0  0  0  0  0  0
    5.6180   -7.9194   16.1754 O   0  0  0  0  0  0  0  0  0  0  0  0
    9.7259   -5.3080   18.4485 C   0  0  0  0  0  0  0  0  0  0  0  0
    9.4578   -5.0200   16.3036 N   0  0  0  0  0  0  0  0  0  0  0  0
    5.0287   -8.9365   16.8223 C   0  0  0  0  0  0  0  0  0  0  0  0
    8.7742   -6.1498   16.6764 C   0  0  0  0  0  0  0  0  0  0  0  0
   10.9418   -3.4032   21.2053 O   0  0  0  0  0  0  0  0  0  0  0  0
    1.4797   -8.6258   16.2950 C   0  0  0  0  0  0  0  0  0  0  0  0
    9.2861   -1.2743   25.3585 C   0  0  0  0  0  0  0  0  0  0  0  0
    1.8892  -10.3985   17.7511 N   0  0  0  0  0  0  0  0  0  0  0  0
    9.6210   -0.6952   24.0976 C   0  0  0  0  0  0  0  0  0  0  0  0
    7.0792   -9.0217   17.1429 C   0  0  0  0  0  0  0  0  0  0  0  0
    3.1713  -10.1816   17.6634 C   0  0  0  0  0  0  0  0  0  0  0  0
    2.7878   -8.3822   16.2137 C   0  0  0  0  0  0  0  0  0  0  0  0
    9.4601   -2.6590   25.6528 C   0  0  0  0  0  0  0  0  0  0  0  0
   10.1182   -1.5672   23.1165 C   0  0  0  0  0  0  0  0  0  0  0  0
    1.0552   -9.6360   17.0650 C   0  0  0  0  0  0  0  0  0  0  0  0
    3.6519   -9.1783   16.9039 C   0  0  0  0  0  0  0  0  0  0  0  0
    7.8675   -7.0096   15.9415 C   0  0  0  0  0  0  0  0  0  0  0  0
    5.9733   -9.6553   17.3832 N   0  0  0  0  0  0  0  0  0  0  0  0
   10.2411   -2.9363   23.4301 C   0  0  0  0  0  0  0  0  0  0  0  0
   10.7288   -3.8197   19.9525 C   0  0  0  0  0  0  0  0  0  0  0  0
   10.1189   -5.0054   19.6987 C   0  0  0  0  0  0  0  0  0  0  0  0
  1  3  4  0
  1  7  4  0
  2 21  4  0
  2 27  4  0
  3  9  4  0
  3 10  4  0
  4  8  4  0
  4 18  4  0
  4 25  1  0
  5  9  4  0
  5 12  4  0
  6 13  1  0
  6 27  1  0
  7 28  4  0
  8 11  4  0
  9 29  4  0
 10 12  4  0
 11 24  1  0
 11 26  4  0
 12 25  1  0
 13 28  1  0
 14 20  4  0
 14 23  4  0
 15 17  4  0
 15 21  4  0
 16 19  4  0
 16 23  4  0
 17 22  4  0
 18 26  4  0
 19 24  4  0
 20 24  4  0
 22 27  4  0
 28 29  4  0
M  END
$$$$

 Created by Python create_sdf_string function

 29 33  0  0  0  0  0  0  0  0999 V2000
   10.7215   -3.3326   17.6437 C   0  0  0  0  0  0  0  0  0  0  0  0
    9.9489   -3.4675   24.6487 N   0  0  0  0  0  0  0  0  0  0  0  0
   10.0172   -4.4740   17.4101 C   0  0  0  0  0  0  0  0  0  0  0  0
    6.9051   -7.9575   16.4222 C   0  0  0  0  0  0  0  0  0  0  0  0
    8.9969   -6.3552   17.9668 N   0  0  0  0  0  0  0  0  0  0  0  0
   10.6702   -3.9051   22.4070 C   0  0  0  0  0  0  0  0  0  0  0  0
   11.0625   -3.0028   18.8894 C   0  0  0  0  0  0  0  0  0  0  0  0
    5.6180   -7.9194   16.1754 O   0  0  0  0  0  0  0  0  0  0  0  0
    9.7259   -5.3080   18.4485 C   0  0  0  0  0  0  0  0  0  0  0  0
    9.4578   -5.0200   16.3036 N   0  0  0  0  0  0  0  0  0  0  0  0
    5.0287   -8.9365   16.8223 C   0  0  0  0  0  0  0  0  0  0  0  0
    8.7742   -6.1498   16.6764 C   0  0  0  0  0  0  0  0  0  0  0  0
   10.9418   -3.4032   21.2053 O   0  0  0  0  0  0  0  0  0  0  0  0
    1.4797   -8.6258   16.2950 C   0  0  0  0  0  0  0  0  0  0  0  0
    9.2861   -1.2743   25.3585 C   0  0  0  0  0  0  0  0  0  0  0  0
    1.8892  -10.3985   17.7511 N   0  0  0  0  0  0  0  0  0  0  0  0
    9.6210   -0.6952   24.0976 C   0  0  0  0  0  0  0  0  0  0  0  0
    7.0792   -9.0217   17.1429 C   0  0  0  0  0  0  0  0  0  0  0  0
    3.1713  -10.1816   17.6634 C   0  0  0  0  0  0  0  0  0  0  0  0
    2.7878   -8.3822   16.2137 C   0  0  0  0  0  0  0  0  0  0  0  0
    9.4601   -2.6590   25.6528 C   0  0  0  0  0  0  0  0  0  0  0  0
   10.1182   -1.5672   23.1165 C   0  0  0  0  0  0  0  0  0  0  0  0
    1.0552   -9.6360   17.0650 C   0  0  0  0  0  0  0  0  0  0  0  0
    3.6519   -9.1783   16.9039 C   0  0  0  0  0  0  0  0  0  0  0  0
    7.8675   -7.0096   15.9415 C   0  0  0  0  0  0  0  0  0  0  0  0
    5.9733   -9.6553   17.3832 N   0  0  0  0  0  0  0  0  0  0  0  0
   10.2411   -2.9363   23.4301 C   0  0  0  0  0  0  0  0  0  0  0  0
   10.7288   -3.8197   19.9525 C   0  0  0  0  0  0  0  0  0  0  0  0
   10.1189   -5.0054   19.6987 C   0  0  0  0  0  0  0  0  0  0  0  0
  1  3  4  0
  1  7  4  0
  2 21  4  0
  2 27  4  0
  3  9  4  0
  3 10  4  0
  4  8  4  0
  4 18  4  0
  4 25  1  0
  5  9  4  0
  5 12  4  0
  6 13  1  0
  6 27  1  0
  7 28  4  0
  8 11  4  0
  9 29  4  0
 10 12  4  0
 11 24  1  0
 11 26  4  0
 12 25  1  0
 13 28  1  0
 14 20  4  0
 14 23  4  0
 15 17  4  0
 15 21  4  0
 16 19  4  0
 16 23  4  0
 17 22  4  0
 18 26  4  0
 19 24  4  0
 20 24  4  0
 22 27  4  0
 28 29  4  0
M  END
$$$$

 Created by Python create_sdf_string function

 29 33  0  0  0  0  0  0  0  0999 V2000
   10.7215   -3.3326   17.6437 C   0  0  0  0  0  0  0  0  0  0  0  0
    9.9489   -3.4675   24.6487 N   0  0  0  0  0  0  0  0  0  0  0  0
   10.0172   -4.4740   17.4101 C   0  0  0  0  0  0  0  0  0  0  0  0
    6.9051   -7.9575   16.4222 C   0  0  0  0  0  0  0  0  0  0  0  0
    8.9969   -6.3552   17.9668 N   0  0  0  0  0  0  0  0  0  0  0  0
   10.6702   -3.9051   22.4070 C   0  0  0  0  0  0  0  0  0  0  0  0
   11.0625   -3.0028   18.8894 C   0  0  0  0  0  0  0  0  0  0  0  0
    5.6180   -7.9194   16.1754 O   0  0  0  0  0  0  0  0  0  0  0  0
    9.7259   -5.3080   18.4485 C   0  0  0  0  0  0  0  0  0  0  0  0
    9.4578   -5.0200   16.3036 N   0  0  0  0  0  0  0  0  0  0  0  0
    5.0287   -8.9365   16.8223 C   0  0  0  0  0  0  0  0  0  0  0  0
    8.7742   -6.1498   16.6764 C   0  0  0  0  0  0  0  0  0  0  0  0
   10.9418   -3.4032   21.2053 O   0  0  0  0  0  0  0  0  0  0  0  0
    1.4797   -8.6258   16.2950 C   0  0  0  0  0  0  0  0  0  0  0  0
    9.2861   -1.2743   25.3585 C   0  0  0  0  0  0  0  0  0  0  0  0
    1.8892  -10.3985   17.7511 N   0  0  0  0  0  0  0  0  0  0  0  0
    9.6210   -0.6952   24.0976 C   0  0  0  0  0  0  0  0  0  0  0  0
    7.0792   -9.0217   17.1429 C   0  0  0  0  0  0  0  0  0  0  0  0
    3.1713  -10.1816   17.6634 C   0  0  0  0  0  0  0  0  0  0  0  0
    2.7878   -8.3822   16.2137 C   0  0  0  0  0  0  0  0  0  0  0  0
    9.4601   -2.6590   25.6528 C   0  0  0  0  0  0  0  0  0  0  0  0
   10.1182   -1.5672   23.1165 C   0  0  0  0  0  0  0  0  0  0  0  0
    1.0552   -9.6360   17.0650 C   0  0  0  0  0  0  0  0  0  0  0  0
    3.6519   -9.1783   16.9039 C   0  0  0  0  0  0  0  0  0  0  0  0
    7.8675   -7.0096   15.9415 C   0  0  0  0  0  0  0  0  0  0  0  0
    5.9733   -9.6553   17.3832 N   0  0  0  0  0  0  0  0  0  0  0  0
   10.2411   -2.9363   23.4301 C   0  0  0  0  0  0  0  0  0  0  0  0
   10.7288   -3.8197   19.9525 C   0  0  0  0  0  0  0  0  0  0  0  0
   10.1189   -5.0054   19.6987 C   0  0  0  0  0  0  0  0  0  0  0  0
  1  3  4  0
  1  7  4  0
  2 21  4  0
  2 27  4  0
  3  9  4  0
  3 10  4  0
  4  8  4  0
  4 18  4  0
  4 25  1  0
  5  9  4  0
  5 12  4  0
  6 13  1  0
  6 27  1  0
  7 28  4  0
  8 11  4  0
  9 29  4  0
 10 12  4  0
 11 24  1  0
 11 26  4  0
 12 25  1  0
 13 28  1  0
 14 20  4  0
 14 23  4  0
 15 17  4  0
 15 21  4  0
 16 19  4  0
 16 23  4  0
 17 22  4  0
 18 26  4  0
 19 24  4  0
 20 24  4  0
 22 27  4  0
 28 29  4  0
M  END
$$$$

 Created by Python create_sdf_string function

 29 33  0  0  0  0  0  0  0  0999 V2000
   10.7215   -3.3326   17.6437 C   0  0  0  0  0  0  0  0  0  0  0  0
    9.9489   -3.4675   24.6487 N   0  0  0  0  0  0  0  0  0  0  0  0
   10.0172   -4.4740   17.4101 C   0  0  0  0  0  0  0  0  0  0  0  0
    6.9051   -7.9575   16.4222 C   0  0  0  0  0  0  0  0  0  0  0  0
    8.9969   -6.3552   17.9668 N   0  0  0  0  0  0  0  0  0  0  0  0
   10.6702   -3.9051   22.4070 C   0  0  0  0  0  0  0  0  0  0  0  0
   11.0625   -3.0028   18.8894 C   0  0  0  0  0  0  0  0  0  0  0  0
    5.6180   -7.9194   16.1754 O   0  0  0  0  0  0  0  0  0  0  0  0
    9.7259   -5.3080   18.4485 C   0  0  0  0  0  0  0  0  0  0  0  0
    9.4578   -5.0200   16.3036 N   0  0  0  0  0  0  0  0  0  0  0  0
    5.0287   -8.9365   16.8223 C   0  0  0  0  0  0  0  0  0  0  0  0
    8.7742   -6.1498   16.6764 C   0  0  0  0  0  0  0  0  0  0  0  0
   10.9418   -3.4032   21.2053 O   0  0  0  0  0  0  0  0  0  0  0  0
    1.4797   -8.6258   16.2950 C   0  0  0  0  0  0  0  0  0  0  0  0
    9.2861   -1.2743   25.3585 C   0  0  0  0  0  0  0  0  0  0  0  0
    1.8892  -10.3985   17.7511 N   0  0  0  0  0  0  0  0  0  0  0  0
    9.6210   -0.6952   24.0976 C   0  0  0  0  0  0  0  0  0  0  0  0
    7.0792   -9.0217   17.1429 C   0  0  0  0  0  0  0  0  0  0  0  0
    3.1713  -10.1816   17.6634 C   0  0  0  0  0  0  0  0  0  0  0  0
    2.7878   -8.3822   16.2137 C   0  0  0  0  0  0  0  0  0  0  0  0
    9.4601   -2.6590   25.6528 C   0  0  0  0  0  0  0  0  0  0  0  0
   10.1182   -1.5672   23.1165 C   0  0  0  0  0  0  0  0  0  0  0  0
    1.0552   -9.6360   17.0650 C   0  0  0  0  0  0  0  0  0  0  0  0
    3.6519   -9.1783   16.9039 C   0  0  0  0  0  0  0  0  0  0  0  0
    7.8675   -7.0096   15.9415 C   0  0  0  0  0  0  0  0  0  0  0  0
    5.9733   -9.6553   17.3832 N   0  0  0  0  0  0  0  0  0  0  0  0
   10.2411   -2.9363   23.4301 C   0  0  0  0  0  0  0  0  0  0  0  0
   10.7288   -3.8197   19.9525 C   0  0  0  0  0  0  0  0  0  0  0  0
   10.1189   -5.0054   19.6987 C   0  0  0  0  0  0  0  0  0  0  0  0
  1  3  4  0
  1  7  4  0
  2 21  4  0
  2 27  4  0
  3  9  4  0
  3 10  4  0
  4  8  4  0
  4 18  4  0
  4 25  1  0
  5  9  4  0
  5 12  4  0
  6 13  1  0
  6 27  1  0
  7 28  4  0
  8 11  4  0
  9 29  4  0
 10 12  4  0
 11 24  1  0
 11 26  4  0
 12 25  1  0
 13 28  1  0
 14 20  4  0
 14 23  4  0
 15 17  4  0
 15 21  4  0
 16 19  4  0
 16 23  4  0
 17 22  4  0
 18 26  4  0
 19 24  4  0
 20 24  4  0
 22 27  4  0
 28 29  4  0
M  END
$$$$

 Created by Python create_sdf_string function

 29 33  0  0  0  0  0  0  0  0999 V2000
   10.7215   -3.3326   17.6437 C   0  0  0  0  0  0  0  0  0  0  0  0
    9.9489   -3.4675   24.6487 N   0  0  0  0  0  0  0  0  0  0  0  0
   10.0172   -4.4740   17.4101 C   0  0  0  0  0  0  0  0  0  0  0  0
    6.9051   -7.9575   16.4222 C   0  0  0  0  0  0  0  0  0  0  0  0
    8.9969   -6.3552   17.9668 N   0  0  0  0  0  0  0  0  0  0  0  0
   10.6702   -3.9051   22.4070 C   0  0  0  0  0  0  0  0  0  0  0  0
   11.0625   -3.0028   18.8894 C   0  0  0  0  0  0  0  0  0  0  0  0
    5.6180   -7.9194   16.1754 O   0  0  0  0  0  0  0  0  0  0  0  0
    9.7259   -5.3080   18.4485 C   0  0  0  0  0  0  0  0  0  0  0  0
    9.4578   -5.0200   16.3036 N   0  0  0  0  0  0  0  0  0  0  0  0
    5.0287   -8.9365   16.8223 C   0  0  0  0  0  0  0  0  0  0  0  0
    8.7742   -6.1498   16.6764 C   0  0  0  0  0  0  0  0  0  0  0  0
   10.9418   -3.4032   21.2053 O   0  0  0  0  0  0  0  0  0  0  0  0
    1.4797   -8.6258   16.2950 C   0  0  0  0  0  0  0  0  0  0  0  0
    9.2861   -1.2743   25.3585 C   0  0  0  0  0  0  0  0  0  0  0  0
    1.8892  -10.3985   17.7511 N   0  0  0  0  0  0  0  0  0  0  0  0
    9.6210   -0.6952   24.0976 C   0  0  0  0  0  0  0  0  0  0  0  0
    7.0792   -9.0217   17.1429 C   0  0  0  0  0  0  0  0  0  0  0  0
    3.1713  -10.1816   17.6634 C   0  0  0  0  0  0  0  0  0  0  0  0
    2.7878   -8.3822   16.2137 C   0  0  0  0  0  0  0  0  0  0  0  0
    9.4601   -2.6590   25.6528 C   0  0  0  0  0  0  0  0  0  0  0  0
   10.1182   -1.5672   23.1165 C   0  0  0  0  0  0  0  0  0  0  0  0
    1.0552   -9.6360   17.0650 C   0  0  0  0  0  0  0  0  0  0  0  0
    3.6519   -9.1783   16.9039 C   0  0  0  0  0  0  0  0  0  0  0  0
    7.8675   -7.0096   15.9415 C   0  0  0  0  0  0  0  0  0  0  0  0
    5.9733   -9.6553   17.3832 N   0  0  0  0  0  0  0  0  0  0  0  0
   10.2411   -2.9363   23.4301 C   0  0  0  0  0  0  0  0  0  0  0  0
   10.7288   -3.8197   19.9525 C   0  0  0  0  0  0  0  0  0  0  0  0
   10.1189   -5.0054   19.6987 C   0  0  0  0  0  0  0  0  0  0  0  0
  1  3  4  0
  1  7  4  0
  2 21  4  0
  2 27  4  0
  3  9  4  0
  3 10  4  0
  4  8  4  0
  4 18  4  0
  4 25  1  0
  5  9  4  0
  5 12  4  0
  6 13  1  0
  6 27  1  0
  7 28  4  0
  8 11  4  0
  9 29  4  0
 10 12  4  0
 11 24  1  0
 11 26  4  0
 12 25  1  0
 13 28  1  0
 14 20  4  0
 14 23  4  0
 15 17  4  0
 15 21  4  0
 16 19  4  0
 16 23  4  0
 17 22  4  0
 18 26  4  0
 19 24  4  0
 20 24  4  0
 22 27  4  0
 28 29  4  0
M  END
$$$$

 Created by Python create_sdf_string function

 29 33  0  0  0  0  0  0  0  0999 V2000
   10.7215   -3.3326   17.6437 C   0  0  0  0  0  0  0  0  0  0  0  0
    9.9489   -3.4675   24.6487 N   0  0  0  0  0  0  0  0  0  0  0  0
   10.0172   -4.4740   17.4101 C   0  0  0  0  0  0  0  0  0  0  0  0
    6.9051   -7.9575   16.4222 C   0  0  0  0  0  0  0  0  0  0  0  0
    8.9969   -6.3552   17.9668 N   0  0  0  0  0  0  0  0  0  0  0  0
   10.6702   -3.9051   22.4070 C   0  0  0  0  0  0  0  0  0  0  0  0
   11.0625   -3.0028   18.8894 C   0  0  0  0  0  0  0  0  0  0  0  0
    5.6180   -7.9194   16.1754 O   0  0  0  0  0  0  0  0  0  0  0  0
    9.7259   -5.3080   18.4485 C   0  0  0  0  0  0  0  0  0  0  0  0
    9.4578   -5.0200   16.3036 N   0  0  0  0  0  0  0  0  0  0  0  0
    5.0287   -8.9365   16.8223 C   0  0  0  0  0  0  0  0  0  0  0  0
    8.7742   -6.1498   16.6764 C   0  0  0  0  0  0  0  0  0  0  0  0
   10.9418   -3.4032   21.2053 O   0  0  0  0  0  0  0  0  0  0  0  0
    1.4797   -8.6258   16.2950 C   0  0  0  0  0  0  0  0  0  0  0  0
    9.2861   -1.2743   25.3585 C   0  0  0  0  0  0  0  0  0  0  0  0
    1.8892  -10.3985   17.7511 N   0  0  0  0  0  0  0  0  0  0  0  0
    9.6210   -0.6952   24.0976 C   0  0  0  0  0  0  0  0  0  0  0  0
    7.0792   -9.0217   17.1429 C   0  0  0  0  0  0  0  0  0  0  0  0
    3.1713  -10.1816   17.6634 C   0  0  0  0  0  0  0  0  0  0  0  0
    2.7878   -8.3822   16.2137 C   0  0  0  0  0  0  0  0  0  0  0  0
    9.4601   -2.6590   25.6528 C   0  0  0  0  0  0  0  0  0  0  0  0
   10.1182   -1.5672   23.1165 C   0  0  0  0  0  0  0  0  0  0  0  0
    1.0552   -9.6360   17.0650 C   0  0  0  0  0  0  0  0  0  0  0  0
    3.6519   -9.1783   16.9039 C   0  0  0  0  0  0  0  0  0  0  0  0
    7.8675   -7.0096   15.9415 C   0  0  0  0  0  0  0  0  0  0  0  0
    5.9733   -9.6553   17.3832 N   0  0  0  0  0  0  0  0  0  0  0  0
   10.2411   -2.9363   23.4301 C   0  0  0  0  0  0  0  0  0  0  0  0
   10.7288   -3.8197   19.9525 C   0  0  0  0  0  0  0  0  0  0  0  0
   10.1189   -5.0054   19.6987 C   0  0  0  0  0  0  0  0  0  0  0  0
  1  3  4  0
  1  7  4  0
  2 21  4  0
  2 27  4  0
  3  9  4  0
  3 10  4  0
  4  8  4  0
  4 18  4  0
  4 25  1  0
  5  9  4  0
  5 12  4  0
  6 13  1  0
  6 27  1  0
  7 28  4  0
  8 11  4  0
  9 29  4  0
 10 12  4  0
 11 24  1  0
 11 26  4  0
 12 25  1  0
 13 28  1  0
 14 20  4  0
 14 23  4  0
 15 17  4  0
 15 21  4  0
 16 19  4  0
 16 23  4  0
 17 22  4  0
 18 26  4  0
 19 24  4  0
 20 24  4  0
 22 27  4  0
 28 29  4  0
M  END
$$$$

 Created by Python create_sdf_string function

 29 33  0  0  0  0  0  0  0  0999 V2000
   10.7215   -3.3326   17.6437 C   0  0  0  0  0  0  0  0  0  0  0  0
    9.9489   -3.4675   24.6487 N   0  0  0  0  0  0  0  0  0  0  0  0
   10.0172   -4.4740   17.4101 C   0  0  0  0  0  0  0  0  0  0  0  0
    6.9051   -7.9575   16.4222 C   0  0  0  0  0  0  0  0  0  0  0  0
    8.9969   -6.3552   17.9668 N   0  0  0  0  0  0  0  0  0  0  0  0
   10.6702   -3.9051   22.4070 C   0  0  0  0  0  0  0  0  0  0  0  0
   11.0625   -3.0028   18.8894 C   0  0  0  0  0  0  0  0  0  0  0  0
    5.6180   -7.9194   16.1754 O   0  0  0  0  0  0  0  0  0  0  0  0
    9.7259   -5.3080   18.4485 C   0  0  0  0  0  0  0  0  0  0  0  0
    9.4578   -5.0200   16.3036 N   0  0  0  0  0  0  0  0  0  0  0  0
    5.0287   -8.9365   16.8223 C   0  0  0  0  0  0  0  0  0  0  0  0
    8.7742   -6.1498   16.6764 C   0  0  0  0  0  0  0  0  0  0  0  0
   10.9418   -3.4032   21.2053 O   0  0  0  0  0  0  0  0  0  0  0  0
    1.4797   -8.6258   16.2950 C   0  0  0  0  0  0  0  0  0  0  0  0
    9.2861   -1.2743   25.3585 C   0  0  0  0  0  0  0  0  0  0  0  0
    1.8892  -10.3985   17.7511 N   0  0  0  0  0  0  0  0  0  0  0  0
    9.6210   -0.6952   24.0976 C   0  0  0  0  0  0  0  0  0  0  0  0
    7.0792   -9.0217   17.1429 C   0  0  0  0  0  0  0  0  0  0  0  0
    3.1713  -10.1816   17.6634 C   0  0  0  0  0  0  0  0  0  0  0  0
    2.7878   -8.3822   16.2137 C   0  0  0  0  0  0  0  0  0  0  0  0
    9.4601   -2.6590   25.6528 C   0  0  0  0  0  0  0  0  0  0  0  0
   10.1182   -1.5672   23.1165 C   0  0  0  0  0  0  0  0  0  0  0  0
    1.0552   -9.6360   17.0650 C   0  0  0  0  0  0  0  0  0  0  0  0
    3.6519   -9.1783   16.9039 C   0  0  0  0  0  0  0  0  0  0  0  0
    7.8675   -7.0096   15.9415 C   0  0  0  0  0  0  0  0  0  0  0  0
    5.9733   -9.6553   17.3832 N   0  0  0  0  0  0  0  0  0  0  0  0
   10.2411   -2.9363   23.4301 C   0  0  0  0  0  0  0  0  0  0  0  0
   10.7288   -3.8197   19.9525 C   0  0  0  0  0  0  0  0  0  0  0  0
   10.1189   -5.0054   19.6987 C   0  0  0  0  0  0  0  0  0  0  0  0
  1  3  4  0
  1  7  4  0
  2 21  4  0
  2 27  4  0
  3  9  4  0
  3 10  4  0
  4  8  4  0
  4 18  4  0
  4 25  1  0
  5  9  4  0
  5 12  4  0
  6 13  1  0
  6 27  1  0
  7 28  4  0
  8 11  4  0
  9 29  4  0
 10 12  4  0
 11 24  1  0
 11 26  4  0
 12 25  1  0
 13 28  1  0
 14 20  4  0
 14 23  4  0
 15 17  4  0
 15 21  4  0
 16 19  4  0
 16 23  4  0
 17 22  4  0
 18 26  4  0
 19 24  4  0
 20 24  4  0
 22 27  4  0
 28 29  4  0
M  END
$$$$

 Created by Python create_sdf_string function

 29 33  0  0  0  0  0  0  0  0999 V2000
   10.7215   -3.3326   17.6437 C   0  0  0  0  0  0  0  0  0  0  0  0
    9.9489   -3.4675   24.6487 N   0  0  0  0  0  0  0  0  0  0  0  0
   10.0172   -4.4740   17.4101 C   0  0  0  0  0  0  0  0  0  0  0  0
    6.9051   -7.9575   16.4222 C   0  0  0  0  0  0  0  0  0  0  0  0
    8.9969   -6.3552   17.9668 N   0  0  0  0  0  0  0  0  0  0  0  0
   10.6702   -3.9051   22.4070 C   0  0  0  0  0  0  0  0  0  0  0  0
   11.0625   -3.0028   18.8894 C   0  0  0  0  0  0  0  0  0  0  0  0
    5.6180   -7.9194   16.1754 O   0  0  0  0  0  0  0  0  0  0  0  0
    9.7259   -5.3080   18.4485 C   0  0  0  0  0  0  0  0  0  0  0  0
    9.4578   -5.0200   16.3036 N   0  0  0  0  0  0  0  0  0  0  0  0
    5.0287   -8.9365   16.8223 C   0  0  0  0  0  0  0  0  0  0  0  0
    8.7742   -6.1498   16.6764 C   0  0  0  0  0  0  0  0  0  0  0  0
   10.9418   -3.4032   21.2053 O   0  0  0  0  0  0  0  0  0  0  0  0
    1.4797   -8.6258   16.2950 C   0  0  0  0  0  0  0  0  0  0  0  0
    9.2861   -1.2743   25.3585 C   0  0  0  0  0  0  0  0  0  0  0  0
    1.8892  -10.3985   17.7511 N   0  0  0  0  0  0  0  0  0  0  0  0
    9.6210   -0.6952   24.0976 C   0  0  0  0  0  0  0  0  0  0  0  0
    7.0792   -9.0217   17.1429 C   0  0  0  0  0  0  0  0  0  0  0  0
    3.1713  -10.1816   17.6634 C   0  0  0  0  0  0  0  0  0  0  0  0
    2.7878   -8.3822   16.2137 C   0  0  0  0  0  0  0  0  0  0  0  0
    9.4601   -2.6590   25.6528 C   0  0  0  0  0  0  0  0  0  0  0  0
   10.1182   -1.5672   23.1165 C   0  0  0  0  0  0  0  0  0  0  0  0
    1.0552   -9.6360   17.0650 C   0  0  0  0  0  0  0  0  0  0  0  0
    3.6519   -9.1783   16.9039 C   0  0  0  0  0  0  0  0  0  0  0  0
    7.8675   -7.0096   15.9415 C   0  0  0  0  0  0  0  0  0  0  0  0
    5.9733   -9.6553   17.3832 N   0  0  0  0  0  0  0  0  0  0  0  0
   10.2411   -2.9363   23.4301 C   0  0  0  0  0  0  0  0  0  0  0  0
   10.7288   -3.8197   19.9525 C   0  0  0  0  0  0  0  0  0  0  0  0
   10.1189   -5.0054   19.6987 C   0  0  0  0  0  0  0  0  0  0  0  0
  1  3  4  0
  1  7  4  0
  2 21  4  0
  2 27  4  0
  3  9  4  0
  3 10  4  0
  4  8  4  0
  4 18  4  0
  4 25  1  0
  5  9  4  0
  5 12  4  0
  6 13  1  0
  6 27  1  0
  7 28  4  0
  8 11  4  0
  9 29  4  0
 10 12  4  0
 11 24  1  0
 11 26  4  0
 12 25  1  0
 13 28  1  0
 14 20  4  0
 14 23  4  0
 15 17  4  0
 15 21  4  0
 16 19  4  0
 16 23  4  0
 17 22  4  0
 18 26  4  0
 19 24  4  0
 20 24  4  0
 22 27  4  0
 28 29  4  0
M  END
$$$$

 Created by Python create_sdf_string function

 29 33  0  0  0  0  0  0  0  0999 V2000
   10.7215   -3.3326   17.6437 C   0  0  0  0  0  0  0  0  0  0  0  0
    9.9489   -3.4675   24.6487 N   0  0  0  0  0  0  0  0  0  0  0  0
   10.0172   -4.4740   17.4101 C   0  0  0  0  0  0  0  0  0  0  0  0
    6.9051   -7.9575   16.4222 C   0  0  0  0  0  0  0  0  0  0  0  0
    8.9969   -6.3552   17.9668 N   0  0  0  0  0  0  0  0  0  0  0  0
   10.6702   -3.9051   22.4070 C   0  0  0  0  0  0  0  0  0  0  0  0
   11.0625   -3.0028   18.8894 C   0  0  0  0  0  0  0  0  0  0  0  0
    5.6180   -7.9194   16.1754 O   0  0  0  0  0  0  0  0  0  0  0  0
    9.7259   -5.3080   18.4485 C   0  0  0  0  0  0  0  0  0  0  0  0
    9.4578   -5.0200   16.3036 N   0  0  0  0  0  0  0  0  0  0  0  0
    5.0287   -8.9365   16.8223 C   0  0  0  0  0  0  0  0  0  0  0  0
    8.7742   -6.1498   16.6764 C   0  0  0  0  0  0  0  0  0  0  0  0
   10.9418   -3.4032   21.2053 O   0  0  0  0  0  0  0  0  0  0  0  0
    1.4797   -8.6258   16.2950 C   0  0  0  0  0  0  0  0  0  0  0  0
    9.2861   -1.2743   25.3585 C   0  0  0  0  0  0  0  0  0  0  0  0
    1.8892  -10.3985   17.7511 N   0  0  0  0  0  0  0  0  0  0  0  0
    9.6210   -0.6952   24.0976 C   0  0  0  0  0  0  0  0  0  0  0  0
    7.0792   -9.0217   17.1429 C   0  0  0  0  0  0  0  0  0  0  0  0
    3.1713  -10.1816   17.6634 C   0  0  0  0  0  0  0  0  0  0  0  0
    2.7878   -8.3822   16.2137 C   0  0  0  0  0  0  0  0  0  0  0  0
    9.4601   -2.6590   25.6528 C   0  0  0  0  0  0  0  0  0  0  0  0
   10.1182   -1.5672   23.1165 C   0  0  0  0  0  0  0  0  0  0  0  0
    1.0552   -9.6360   17.0650 C   0  0  0  0  0  0  0  0  0  0  0  0
    3.6519   -9.1783   16.9039 C   0  0  0  0  0  0  0  0  0  0  0  0
    7.8675   -7.0096   15.9415 C   0  0  0  0  0  0  0  0  0  0  0  0
    5.9733   -9.6553   17.3832 N   0  0  0  0  0  0  0  0  0  0  0  0
   10.2411   -2.9363   23.4301 C   0  0  0  0  0  0  0  0  0  0  0  0
   10.7288   -3.8197   19.9525 C   0  0  0  0  0  0  0  0  0  0  0  0
   10.1189   -5.0054   19.6987 C   0  0  0  0  0  0  0  0  0  0  0  0
  1  3  4  0
  1  7  4  0
  2 21  4  0
  2 27  4  0
  3  9  4  0
  3 10  4  0
  4  8  4  0
  4 18  4  0
  4 25  1  0
  5  9  4  0
  5 12  4  0
  6 13  1  0
  6 27  1  0
  7 28  4  0
  8 11  4  0
  9 29  4  0
 10 12  4  0
 11 24  1  0
 11 26  4  0
 12 25  1  0
 13 28  1  0
 14 20  4  0
 14 23  4  0
 15 17  4  0
 15 21  4  0
 16 19  4  0
 16 23  4  0
 17 22  4  0
 18 26  4  0
 19 24  4  0
 20 24  4  0
 22 27  4  0
 28 29  4  0
M  END
$$$$

 Created by Python create_sdf_string function

 29 33  0  0  0  0  0  0  0  0999 V2000
   10.7215   -3.3326   17.6437 C   0  0  0  0  0  0  0  0  0  0  0  0
    9.9489   -3.4675   24.6487 N   0  0  0  0  0  0  0  0  0  0  0  0
   10.0172   -4.4740   17.4101 C   0  0  0  0  0  0  0  0  0  0  0  0
    6.9051   -7.9575   16.4222 C   0  0  0  0  0  0  0  0  0  0  0  0
    8.9969   -6.3552   17.9668 N   0  0  0  0  0  0  0  0  0  0  0  0
   10.6702   -3.9051   22.4070 C   0  0  0  0  0  0  0  0  0  0  0  0
   11.0625   -3.0028   18.8894 C   0  0  0  0  0  0  0  0  0  0  0  0
    5.6180   -7.9194   16.1754 O   0  0  0  0  0  0  0  0  0  0  0  0
    9.7259   -5.3080   18.4485 C   0  0  0  0  0  0  0  0  0  0  0  0
    9.4578   -5.0200   16.3036 N   0  0  0  0  0  0  0  0  0  0  0  0
    5.0287   -8.9365   16.8223 C   0  0  0  0  0  0  0  0  0  0  0  0
    8.7742   -6.1498   16.6764 C   0  0  0  0  0  0  0  0  0  0  0  0
   10.9418   -3.4032   21.2053 O   0  0  0  0  0  0  0  0  0  0  0  0
    1.4797   -8.6258   16.2950 C   0  0  0  0  0  0  0  0  0  0  0  0
    9.2861   -1.2743   25.3585 C   0  0  0  0  0  0  0  0  0  0  0  0
    1.8892  -10.3985   17.7511 N   0  0  0  0  0  0  0  0  0  0  0  0
    9.6210   -0.6952   24.0976 C   0  0  0  0  0  0  0  0  0  0  0  0
    7.0792   -9.0217   17.1429 C   0  0  0  0  0  0  0  0  0  0  0  0
    3.1713  -10.1816   17.6634 C   0  0  0  0  0  0  0  0  0  0  0  0
    2.7878   -8.3822   16.2137 C   0  0  0  0  0  0  0  0  0  0  0  0
    9.4601   -2.6590   25.6528 C   0  0  0  0  0  0  0  0  0  0  0  0
   10.1182   -1.5672   23.1165 C   0  0  0  0  0  0  0  0  0  0  0  0
    1.0552   -9.6360   17.0650 C   0  0  0  0  0  0  0  0  0  0  0  0
    3.6519   -9.1783   16.9039 C   0  0  0  0  0  0  0  0  0  0  0  0
    7.8675   -7.0096   15.9415 C   0  0  0  0  0  0  0  0  0  0  0  0
    5.9733   -9.6553   17.3832 N   0  0  0  0  0  0  0  0  0  0  0  0
   10.2411   -2.9363   23.4301 C   0  0  0  0  0  0  0  0  0  0  0  0
   10.7288   -3.8197   19.9525 C   0  0  0  0  0  0  0  0  0  0  0  0
   10.1189   -5.0054   19.6987 C   0  0  0  0  0  0  0  0  0  0  0  0
  1  3  4  0
  1  7  4  0
  2 21  4  0
  2 27  4  0
  3  9  4  0
  3 10  4  0
  4  8  4  0
  4 18  4  0
  4 25  1  0
  5  9  4  0
  5 12  4  0
  6 13  1  0
  6 27  1  0
  7 28  4  0
  8 11  4  0
  9 29  4  0
 10 12  4  0
 11 24  1  0
 11 26  4  0
 12 25  1  0
 13 28  1  0
 14 20  4  0
 14 23  4  0
 15 17  4  0
 15 21  4  0
 16 19  4  0
 16 23  4  0
 17 22  4  0
 18 26  4  0
 19 24  4  0
 20 24  4  0
 22 27  4  0
 28 29  4  0
M  END
$$$$

 Created by Python create_sdf_string function

 29 33  0  0  0  0  0  0  0  0999 V2000
   10.7215   -3.3326   17.6437 C   0  0  0  0  0  0  0  0  0  0  0  0
    9.9489   -3.4675   24.6487 N   0  0  0  0  0  0  0  0  0  0  0  0
   10.0172   -4.4740   17.4101 C   0  0  0  0  0  0  0  0  0  0  0  0
    6.9051   -7.9575   16.4222 C   0  0  0  0  0  0  0  0  0  0  0  0
    8.9969   -6.3552   17.9668 N   0  0  0  0  0  0  0  0  0  0  0  0
   10.6702   -3.9051   22.4070 C   0  0  0  0  0  0  0  0  0  0  0  0
   11.0625   -3.0028   18.8894 C   0  0  0  0  0  0  0  0  0  0  0  0
    5.6180   -7.9194   16.1754 O   0  0  0  0  0  0  0  0  0  0  0  0
    9.7259   -5.3080   18.4485 C   0  0  0  0  0  0  0  0  0  0  0  0
    9.4578   -5.0200   16.3036 N   0  0  0  0  0  0  0  0  0  0  0  0
    5.0287   -8.9365   16.8223 C   0  0  0  0  0  0  0  0  0  0  0  0
    8.7742   -6.1498   16.6764 C   0  0  0  0  0  0  0  0  0  0  0  0
   10.9418   -3.4032   21.2053 O   0  0  0  0  0  0  0  0  0  0  0  0
    1.4797   -8.6258   16.2950 C   0  0  0  0  0  0  0  0  0  0  0  0
    9.2861   -1.2743   25.3585 C   0  0  0  0  0  0  0  0  0  0  0  0
    1.8892  -10.3985   17.7511 N   0  0  0  0  0  0  0  0  0  0  0  0
    9.6210   -0.6952   24.0976 C   0  0  0  0  0  0  0  0  0  0  0  0
    7.0792   -9.0217   17.1429 C   0  0  0  0  0  0  0  0  0  0  0  0
    3.1713  -10.1816   17.6634 C   0  0  0  0  0  0  0  0  0  0  0  0
    2.7878   -8.3822   16.2137 C   0  0  0  0  0  0  0  0  0  0  0  0
    9.4601   -2.6590   25.6528 C   0  0  0  0  0  0  0  0  0  0  0  0
   10.1182   -1.5672   23.1165 C   0  0  0  0  0  0  0  0  0  0  0  0
    1.0552   -9.6360   17.0650 C   0  0  0  0  0  0  0  0  0  0  0  0
    3.6519   -9.1783   16.9039 C   0  0  0  0  0  0  0  0  0  0  0  0
    7.8675   -7.0096   15.9415 C   0  0  0  0  0  0  0  0  0  0  0  0
    5.9733   -9.6553   17.3832 N   0  0  0  0  0  0  0  0  0  0  0  0
   10.2411   -2.9363   23.4301 C   0  0  0  0  0  0  0  0  0  0  0  0
   10.7288   -3.8197   19.9525 C   0  0  0  0  0  0  0  0  0  0  0  0
   10.1189   -5.0054   19.6987 C   0  0  0  0  0  0  0  0  0  0  0  0
  1  3  4  0
  1  7  4  0
  2 21  4  0
  2 27  4  0
  3  9  4  0
  3 10  4  0
  4  8  4  0
  4 18  4  0
  4 25  1  0
  5  9  4  0
  5 12  4  0
  6 13  1  0
  6 27  1  0
  7 28  4  0
  8 11  4  0
  9 29  4  0
 10 12  4  0
 11 24  1  0
 11 26  4  0
 12 25  1  0
 13 28  1  0
 14 20  4  0
 14 23  4  0
 15 17  4  0
 15 21  4  0
 16 19  4  0
 16 23  4  0
 17 22  4  0
 18 26  4  0
 19 24  4  0
 20 24  4  0
 22 27  4  0
 28 29  4  0
M  END
$$$$

 Created by Python create_sdf_string function

 29 33  0  0  0  0  0  0  0  0999 V2000
   10.7215   -3.3326   17.6437 C   0  0  0  0  0  0  0  0  0  0  0  0
    9.9489   -3.4675   24.6487 N   0  0  0  0  0  0  0  0  0  0  0  0
   10.0172   -4.4740   17.4101 C   0  0  0  0  0  0  0  0  0  0  0  0
    6.9051   -7.9575   16.4222 C   0  0  0  0  0  0  0  0  0  0  0  0
    8.9969   -6.3552   17.9668 N   0  0  0  0  0  0  0  0  0  0  0  0
   10.6702   -3.9051   22.4070 C   0  0  0  0  0  0  0  0  0  0  0  0
   11.0625   -3.0028   18.8894 C   0  0  0  0  0  0  0  0  0  0  0  0
    5.6180   -7.9194   16.1754 O   0  0  0  0  0  0  0  0  0  0  0  0
    9.7259   -5.3080   18.4485 C   0  0  0  0  0  0  0  0  0  0  0  0
    9.4578   -5.0200   16.3036 N   0  0  0  0  0  0  0  0  0  0  0  0
    5.0287   -8.9365   16.8223 C   0  0  0  0  0  0  0  0  0  0  0  0
    8.7742   -6.1498   16.6764 C   0  0  0  0  0  0  0  0  0  0  0  0
   10.9418   -3.4032   21.2053 O   0  0  0  0  0  0  0  0  0  0  0  0
    1.4797   -8.6258   16.2950 C   0  0  0  0  0  0  0  0  0  0  0  0
    9.2861   -1.2743   25.3585 C   0  0  0  0  0  0  0  0  0  0  0  0
    1.8892  -10.3985   17.7511 N   0  0  0  0  0  0  0  0  0  0  0  0
    9.6210   -0.6952   24.0976 C   0  0  0  0  0  0  0  0  0  0  0  0
    7.0792   -9.0217   17.1429 C   0  0  0  0  0  0  0  0  0  0  0  0
    3.1713  -10.1816   17.6634 C   0  0  0  0  0  0  0  0  0  0  0  0
    2.7878   -8.3822   16.2137 C   0  0  0  0  0  0  0  0  0  0  0  0
    9.4601   -2.6590   25.6528 C   0  0  0  0  0  0  0  0  0  0  0  0
   10.1182   -1.5672   23.1165 C   0  0  0  0  0  0  0  0  0  0  0  0
    1.0552   -9.6360   17.0650 C   0  0  0  0  0  0  0  0  0  0  0  0
    3.6519   -9.1783   16.9039 C   0  0  0  0  0  0  0  0  0  0  0  0
    7.8675   -7.0096   15.9415 C   0  0  0  0  0  0  0  0  0  0  0  0
    5.9733   -9.6553   17.3832 N   0  0  0  0  0  0  0  0  0  0  0  0
   10.2411   -2.9363   23.4301 C   0  0  0  0  0  0  0  0  0  0  0  0
   10.7288   -3.8197   19.9525 C   0  0  0  0  0  0  0  0  0  0  0  0
   10.1189   -5.0054   19.6987 C   0  0  0  0  0  0  0  0  0  0  0  0
  1  3  4  0
  1  7  4  0
  2 21  4  0
  2 27  4  0
  3  9  4  0
  3 10  4  0
  4  8  4  0
  4 18  4  0
  4 25  1  0
  5  9  4  0
  5 12  4  0
  6 13  1  0
  6 27  1  0
  7 28  4  0
  8 11  4  0
  9 29  4  0
 10 12  4  0
 11 24  1  0
 11 26  4  0
 12 25  1  0
 13 28  1  0
 14 20  4  0
 14 23  4  0
 15 17  4  0
 15 21  4  0
 16 19  4  0
 16 23  4  0
 17 22  4  0
 18 26  4  0
 19 24  4  0
 20 24  4  0
 22 27  4  0
 28 29  4  0
M  END
$$$$

 Created by Python create_sdf_string function

 29 33  0  0  0  0  0  0  0  0999 V2000
   10.7215   -3.3326   17.6437 C   0  0  0  0  0  0  0  0  0  0  0  0
    9.9489   -3.4675   24.6487 N   0  0  0  0  0  0  0  0  0  0  0  0
   10.0172   -4.4740   17.4101 C   0  0  0  0  0  0  0  0  0  0  0  0
    6.9051   -7.9575   16.4222 C   0  0  0  0  0  0  0  0  0  0  0  0
    8.9969   -6.3552   17.9668 N   0  0  0  0  0  0  0  0  0  0  0  0
   10.6702   -3.9051   22.4070 C   0  0  0  0  0  0  0  0  0  0  0  0
   11.0625   -3.0028   18.8894 C   0  0  0  0  0  0  0  0  0  0  0  0
    5.6180   -7.9194   16.1754 O   0  0  0  0  0  0  0  0  0  0  0  0
    9.7259   -5.3080   18.4485 C   0  0  0  0  0  0  0  0  0  0  0  0
    9.4578   -5.0200   16.3036 N   0  0  0  0  0  0  0  0  0  0  0  0
    5.0287   -8.9365   16.8223 C   0  0  0  0  0  0  0  0  0  0  0  0
    8.7742   -6.1498   16.6764 C   0  0  0  0  0  0  0  0  0  0  0  0
   10.9418   -3.4032   21.2053 O   0  0  0  0  0  0  0  0  0  0  0  0
    1.4797   -8.6258   16.2950 C   0  0  0  0  0  0  0  0  0  0  0  0
    9.2861   -1.2743   25.3585 C   0  0  0  0  0  0  0  0  0  0  0  0
    1.8892  -10.3985   17.7511 N   0  0  0  0  0  0  0  0  0  0  0  0
    9.6210   -0.6952   24.0976 C   0  0  0  0  0  0  0  0  0  0  0  0
    7.0792   -9.0217   17.1429 C   0  0  0  0  0  0  0  0  0  0  0  0
    3.1713  -10.1816   17.6634 C   0  0  0  0  0  0  0  0  0  0  0  0
    2.7878   -8.3822   16.2137 C   0  0  0  0  0  0  0  0  0  0  0  0
    9.4601   -2.6590   25.6528 C   0  0  0  0  0  0  0  0  0  0  0  0
   10.1182   -1.5672   23.1165 C   0  0  0  0  0  0  0  0  0  0  0  0
    1.0552   -9.6360   17.0650 C   0  0  0  0  0  0  0  0  0  0  0  0
    3.6519   -9.1783   16.9039 C   0  0  0  0  0  0  0  0  0  0  0  0
    7.8675   -7.0096   15.9415 C   0  0  0  0  0  0  0  0  0  0  0  0
    5.9733   -9.6553   17.3832 N   0  0  0  0  0  0  0  0  0  0  0  0
   10.2411   -2.9363   23.4301 C   0  0  0  0  0  0  0  0  0  0  0  0
   10.7288   -3.8197   19.9525 C   0  0  0  0  0  0  0  0  0  0  0  0
   10.1189   -5.0054   19.6987 C   0  0  0  0  0  0  0  0  0  0  0  0
  1  3  4  0
  1  7  4  0
  2 21  4  0
  2 27  4  0
  3  9  4  0
  3 10  4  0
  4  8  4  0
  4 18  4  0
  4 25  1  0
  5  9  4  0
  5 12  4  0
  6 13  1  0
  6 27  1  0
  7 28  4  0
  8 11  4  0
  9 29  4  0
 10 12  4  0
 11 24  1  0
 11 26  4  0
 12 25  1  0
 13 28  1  0
 14 20  4  0
 14 23  4  0
 15 17  4  0
 15 21  4  0
 16 19  4  0
 16 23  4  0
 17 22  4  0
 18 26  4  0
 19 24  4  0
 20 24  4  0
 22 27  4  0
 28 29  4  0
M  END
$$$$

 Created by Python create_sdf_string function

 29 33  0  0  0  0  0  0  0  0999 V2000
   10.7215   -3.3326   17.6437 C   0  0  0  0  0  0  0  0  0  0  0  0
    9.9489   -3.4675   24.6487 N   0  0  0  0  0  0  0  0  0  0  0  0
   10.0172   -4.4740   17.4101 C   0  0  0  0  0  0  0  0  0  0  0  0
    6.9051   -7.9575   16.4222 C   0  0  0  0  0  0  0  0  0  0  0  0
    8.9969   -6.3552   17.9668 N   0  0  0  0  0  0  0  0  0  0  0  0
   10.6702   -3.9051   22.4070 C   0  0  0  0  0  0  0  0  0  0  0  0
   11.0625   -3.0028   18.8894 C   0  0  0  0  0  0  0  0  0  0  0  0
    5.6180   -7.9194   16.1754 O   0  0  0  0  0  0  0  0  0  0  0  0
    9.7259   -5.3080   18.4485 C   0  0  0  0  0  0  0  0  0  0  0  0
    9.4578   -5.0200   16.3036 N   0  0  0  0  0  0  0  0  0  0  0  0
    5.0287   -8.9365   16.8223 C   0  0  0  0  0  0  0  0  0  0  0  0
    8.7742   -6.1498   16.6764 C   0  0  0  0  0  0  0  0  0  0  0  0
   10.9418   -3.4032   21.2053 O   0  0  0  0  0  0  0  0  0  0  0  0
    1.4797   -8.6258   16.2950 C   0  0  0  0  0  0  0  0  0  0  0  0
    9.2861   -1.2743   25.3585 C   0  0  0  0  0  0  0  0  0  0  0  0
    1.8892  -10.3985   17.7511 N   0  0  0  0  0  0  0  0  0  0  0  0
    9.6210   -0.6952   24.0976 C   0  0  0  0  0  0  0  0  0  0  0  0
    7.0792   -9.0217   17.1429 C   0  0  0  0  0  0  0  0  0  0  0  0
    3.1713  -10.1816   17.6634 C   0  0  0  0  0  0  0  0  0  0  0  0
    2.7878   -8.3822   16.2137 C   0  0  0  0  0  0  0  0  0  0  0  0
    9.4601   -2.6590   25.6528 C   0  0  0  0  0  0  0  0  0  0  0  0
   10.1182   -1.5672   23.1165 C   0  0  0  0  0  0  0  0  0  0  0  0
    1.0552   -9.6360   17.0650 C   0  0  0  0  0  0  0  0  0  0  0  0
    3.6519   -9.1783   16.9039 C   0  0  0  0  0  0  0  0  0  0  0  0
    7.8675   -7.0096   15.9415 C   0  0  0  0  0  0  0  0  0  0  0  0
    5.9733   -9.6553   17.3832 N   0  0  0  0  0  0  0  0  0  0  0  0
   10.2411   -2.9363   23.4301 C   0  0  0  0  0  0  0  0  0  0  0  0
   10.7288   -3.8197   19.9525 C   0  0  0  0  0  0  0  0  0  0  0  0
   10.1189   -5.0054   19.6987 C   0  0  0  0  0  0  0  0  0  0  0  0
  1  3  4  0
  1  7  4  0
  2 21  4  0
  2 27  4  0
  3  9  4  0
  3 10  4  0
  4  8  4  0
  4 18  4  0
  4 25  1  0
  5  9  4  0
  5 12  4  0
  6 13  1  0
  6 27  1  0
  7 28  4  0
  8 11  4  0
  9 29  4  0
 10 12  4  0
 11 24  1  0
 11 26  4  0
 12 25  1  0
 13 28  1  0
 14 20  4  0
 14 23  4  0
 15 17  4  0
 15 21  4  0
 16 19  4  0
 16 23  4  0
 17 22  4  0
 18 26  4  0
 19 24  4  0
 20 24  4  0
 22 27  4  0
 28 29  4  0
M  END
$$$$

 Created by Python create_sdf_string function

 29 33  0  0  0  0  0  0  0  0999 V2000
   10.7215   -3.3326   17.6437 C   0  0  0  0  0  0  0  0  0  0  0  0
    9.9489   -3.4675   24.6487 N   0  0  0  0  0  0  0  0  0  0  0  0
   10.0172   -4.4740   17.4101 C   0  0  0  0  0  0  0  0  0  0  0  0
    6.9051   -7.9575   16.4222 C   0  0  0  0  0  0  0  0  0  0  0  0
    8.9969   -6.3552   17.9668 N   0  0  0  0  0  0  0  0  0  0  0  0
   10.6702   -3.9051   22.4070 C   0  0  0  0  0  0  0  0  0  0  0  0
   11.0625   -3.0028   18.8894 C   0  0  0  0  0  0  0  0  0  0  0  0
    5.6180   -7.9194   16.1754 O   0  0  0  0  0  0  0  0  0  0  0  0
    9.7259   -5.3080   18.4485 C   0  0  0  0  0  0  0  0  0  0  0  0
    9.4578   -5.0200   16.3036 N   0  0  0  0  0  0  0  0  0  0  0  0
    5.0287   -8.9365   16.8223 C   0  0  0  0  0  0  0  0  0  0  0  0
    8.7742   -6.1498   16.6764 C   0  0  0  0  0  0  0  0  0  0  0  0
   10.9418   -3.4032   21.2053 O   0  0  0  0  0  0  0  0  0  0  0  0
    1.4797   -8.6258   16.2950 C   0  0  0  0  0  0  0  0  0  0  0  0
    9.2861   -1.2743   25.3585 C   0  0  0  0  0  0  0  0  0  0  0  0
    1.8892  -10.3985   17.7511 N   0  0  0  0  0  0  0  0  0  0  0  0
    9.6210   -0.6952   24.0976 C   0  0  0  0  0  0  0  0  0  0  0  0
    7.0792   -9.0217   17.1429 C   0  0  0  0  0  0  0  0  0  0  0  0
    3.1713  -10.1816   17.6634 C   0  0  0  0  0  0  0  0  0  0  0  0
    2.7878   -8.3822   16.2137 C   0  0  0  0  0  0  0  0  0  0  0  0
    9.4601   -2.6590   25.6528 C   0  0  0  0  0  0  0  0  0  0  0  0
   10.1182   -1.5672   23.1165 C   0  0  0  0  0  0  0  0  0  0  0  0
    1.0552   -9.6360   17.0650 C   0  0  0  0  0  0  0  0  0  0  0  0
    3.6519   -9.1783   16.9039 C   0  0  0  0  0  0  0  0  0  0  0  0
    7.8675   -7.0096   15.9415 C   0  0  0  0  0  0  0  0  0  0  0  0
    5.9733   -9.6553   17.3832 N   0  0  0  0  0  0  0  0  0  0  0  0
   10.2411   -2.9363   23.4301 C   0  0  0  0  0  0  0  0  0  0  0  0
   10.7288   -3.8197   19.9525 C   0  0  0  0  0  0  0  0  0  0  0  0
   10.1189   -5.0054   19.6987 C   0  0  0  0  0  0  0  0  0  0  0  0
  1  3  4  0
  1  7  4  0
  2 21  4  0
  2 27  4  0
  3  9  4  0
  3 10  4  0
  4  8  4  0
  4 18  4  0
  4 25  1  0
  5  9  4  0
  5 12  4  0
  6 13  1  0
  6 27  1  0
  7 28  4  0
  8 11  4  0
  9 29  4  0
 10 12  4  0
 11 24  1  0
 11 26  4  0
 12 25  1  0
 13 28  1  0
 14 20  4  0
 14 23  4  0
 15 17  4  0
 15 21  4  0
 16 19  4  0
 16 23  4  0
 17 22  4  0
 18 26  4  0
 19 24  4  0
 20 24  4  0
 22 27  4  0
 28 29  4  0
M  END
$$$$

 Created by Python create_sdf_string function

 29 33  0  0  0  0  0  0  0  0999 V2000
   10.7215   -3.3326   17.6437 C   0  0  0  0  0  0  0  0  0  0  0  0
    9.9489   -3.4675   24.6487 N   0  0  0  0  0  0  0  0  0  0  0  0
   10.0172   -4.4740   17.4101 C   0  0  0  0  0  0  0  0  0  0  0  0
    6.9051   -7.9575   16.4222 C   0  0  0  0  0  0  0  0  0  0  0  0
    8.9969   -6.3552   17.9668 N   0  0  0  0  0  0  0  0  0  0  0  0
   10.6702   -3.9051   22.4070 C   0  0  0  0  0  0  0  0  0  0  0  0
   11.0625   -3.0028   18.8894 C   0  0  0  0  0  0  0  0  0  0  0  0
    5.6180   -7.9194   16.1754 O   0  0  0  0  0  0  0  0  0  0  0  0
    9.7259   -5.3080   18.4485 C   0  0  0  0  0  0  0  0  0  0  0  0
    9.4578   -5.0200   16.3036 N   0  0  0  0  0  0  0  0  0  0  0  0
    5.0287   -8.9365   16.8223 C   0  0  0  0  0  0  0  0  0  0  0  0
    8.7742   -6.1498   16.6764 C   0  0  0  0  0  0  0  0  0  0  0  0
   10.9418   -3.4032   21.2053 O   0  0  0  0  0  0  0  0  0  0  0  0
    1.4797   -8.6258   16.2950 C   0  0  0  0  0  0  0  0  0  0  0  0
    9.2861   -1.2743   25.3585 C   0  0  0  0  0  0  0  0  0  0  0  0
    1.8892  -10.3985   17.7511 N   0  0  0  0  0  0  0  0  0  0  0  0
    9.6210   -0.6952   24.0976 C   0  0  0  0  0  0  0  0  0  0  0  0
    7.0792   -9.0217   17.1429 C   0  0  0  0  0  0  0  0  0  0  0  0
    3.1713  -10.1816   17.6634 C   0  0  0  0  0  0  0  0  0  0  0  0
    2.7878   -8.3822   16.2137 C   0  0  0  0  0  0  0  0  0  0  0  0
    9.4601   -2.6590   25.6528 C   0  0  0  0  0  0  0  0  0  0  0  0
   10.1182   -1.5672   23.1165 C   0  0  0  0  0  0  0  0  0  0  0  0
    1.0552   -9.6360   17.0650 C   0  0  0  0  0  0  0  0  0  0  0  0
    3.6519   -9.1783   16.9039 C   0  0  0  0  0  0  0  0  0  0  0  0
    7.8675   -7.0096   15.9415 C   0  0  0  0  0  0  0  0  0  0  0  0
    5.9733   -9.6553   17.3832 N   0  0  0  0  0  0  0  0  0  0  0  0
   10.2411   -2.9363   23.4301 C   0  0  0  0  0  0  0  0  0  0  0  0
   10.7288   -3.8197   19.9525 C   0  0  0  0  0  0  0  0  0  0  0  0
   10.1189   -5.0054   19.6987 C   0  0  0  0  0  0  0  0  0  0  0  0
  1  3  4  0
  1  7  4  0
  2 21  4  0
  2 27  4  0
  3  9  4  0
  3 10  4  0
  4  8  4  0
  4 18  4  0
  4 25  1  0
  5  9  4  0
  5 12  4  0
  6 13  1  0
  6 27  1  0
  7 28  4  0
  8 11  4  0
  9 29  4  0
 10 12  4  0
 11 24  1  0
 11 26  4  0
 12 25  1  0
 13 28  1  0
 14 20  4  0
 14 23  4  0
 15 17  4  0
 15 21  4  0
 16 19  4  0
 16 23  4  0
 17 22  4  0
 18 26  4  0
 19 24  4  0
 20 24  4  0
 22 27  4  0
 28 29  4  0
M  END
$$$$

 Created by Python create_sdf_string function

 29 33  0  0  0  0  0  0  0  0999 V2000
   10.7215   -3.3326   17.6437 C   0  0  0  0  0  0  0  0  0  0  0  0
    9.9489   -3.4675   24.6487 N   0  0  0  0  0  0  0  0  0  0  0  0
   10.0172   -4.4740   17.4101 C   0  0  0  0  0  0  0  0  0  0  0  0
    6.9051   -7.9575   16.4222 C   0  0  0  0  0  0  0  0  0  0  0  0
    8.9969   -6.3552   17.9668 N   0  0  0  0  0  0  0  0  0  0  0  0
   10.6702   -3.9051   22.4070 C   0  0  0  0  0  0  0  0  0  0  0  0
   11.0625   -3.0028   18.8894 C   0  0  0  0  0  0  0  0  0  0  0  0
    5.6180   -7.9194   16.1754 O   0  0  0  0  0  0  0  0  0  0  0  0
    9.7259   -5.3080   18.4485 C   0  0  0  0  0  0  0  0  0  0  0  0
    9.4578   -5.0200   16.3036 N   0  0  0  0  0  0  0  0  0  0  0  0
    5.0287   -8.9365   16.8223 C   0  0  0  0  0  0  0  0  0  0  0  0
    8.7742   -6.1498   16.6764 C   0  0  0  0  0  0  0  0  0  0  0  0
   10.9418   -3.4032   21.2053 O   0  0  0  0  0  0  0  0  0  0  0  0
    1.4797   -8.6258   16.2950 C   0  0  0  0  0  0  0  0  0  0  0  0
    9.2861   -1.2743   25.3585 C   0  0  0  0  0  0  0  0  0  0  0  0
    1.8892  -10.3985   17.7511 N   0  0  0  0  0  0  0  0  0  0  0  0
    9.6210   -0.6952   24.0976 C   0  0  0  0  0  0  0  0  0  0  0  0
    7.0792   -9.0217   17.1429 C   0  0  0  0  0  0  0  0  0  0  0  0
    3.1713  -10.1816   17.6634 C   0  0  0  0  0  0  0  0  0  0  0  0
    2.7878   -8.3822   16.2137 C   0  0  0  0  0  0  0  0  0  0  0  0
    9.4601   -2.6590   25.6528 C   0  0  0  0  0  0  0  0  0  0  0  0
   10.1182   -1.5672   23.1165 C   0  0  0  0  0  0  0  0  0  0  0  0
    1.0552   -9.6360   17.0650 C   0  0  0  0  0  0  0  0  0  0  0  0
    3.6519   -9.1783   16.9039 C   0  0  0  0  0  0  0  0  0  0  0  0
    7.8675   -7.0096   15.9415 C   0  0  0  0  0  0  0  0  0  0  0  0
    5.9733   -9.6553   17.3832 N   0  0  0  0  0  0  0  0  0  0  0  0
   10.2411   -2.9363   23.4301 C   0  0  0  0  0  0  0  0  0  0  0  0
   10.7288   -3.8197   19.9525 C   0  0  0  0  0  0  0  0  0  0  0  0
   10.1189   -5.0054   19.6987 C   0  0  0  0  0  0  0  0  0  0  0  0
  1  3  4  0
  1  7  4  0
  2 21  4  0
  2 27  4  0
  3  9  4  0
  3 10  4  0
  4  8  4  0
  4 18  4  0
  4 25  1  0
  5  9  4  0
  5 12  4  0
  6 13  1  0
  6 27  1  0
  7 28  4  0
  8 11  4  0
  9 29  4  0
 10 12  4  0
 11 24  1  0
 11 26  4  0
 12 25  1  0
 13 28  1  0
 14 20  4  0
 14 23  4  0
 15 17  4  0
 15 21  4  0
 16 19  4  0
 16 23  4  0
 17 22  4  0
 18 26  4  0
 19 24  4  0
 20 24  4  0
 22 27  4  0
 28 29  4  0
M  END
$$$$

 Created by Python create_sdf_string function

 29 33  0  0  0  0  0  0  0  0999 V2000
   10.7215   -3.3326   17.6437 C   0  0  0  0  0  0  0  0  0  0  0  0
    9.9489   -3.4675   24.6487 N   0  0  0  0  0  0  0  0  0  0  0  0
   10.0172   -4.4740   17.4101 C   0  0  0  0  0  0  0  0  0  0  0  0
    6.9051   -7.9575   16.4222 C   0  0  0  0  0  0  0  0  0  0  0  0
    8.9969   -6.3552   17.9668 N   0  0  0  0  0  0  0  0  0  0  0  0
   10.6702   -3.9051   22.4070 C   0  0  0  0  0  0  0  0  0  0  0  0
   11.0625   -3.0028   18.8894 C   0  0  0  0  0  0  0  0  0  0  0  0
    5.6180   -7.9194   16.1754 O   0  0  0  0  0  0  0  0  0  0  0  0
    9.7259   -5.3080   18.4485 C   0  0  0  0  0  0  0  0  0  0  0  0
    9.4578   -5.0200   16.3036 N   0  0  0  0  0  0  0  0  0  0  0  0
    5.0287   -8.9365   16.8223 C   0  0  0  0  0  0  0  0  0  0  0  0
    8.7742   -6.1498   16.6764 C   0  0  0  0  0  0  0  0  0  0  0  0
   10.9418   -3.4032   21.2053 O   0  0  0  0  0  0  0  0  0  0  0  0
    1.4797   -8.6258   16.2950 C   0  0  0  0  0  0  0  0  0  0  0  0
    9.2861   -1.2743   25.3585 C   0  0  0  0  0  0  0  0  0  0  0  0
    1.8892  -10.3985   17.7511 N   0  0  0  0  0  0  0  0  0  0  0  0
    9.6210   -0.6952   24.0976 C   0  0  0  0  0  0  0  0  0  0  0  0
    7.0792   -9.0217   17.1429 C   0  0  0  0  0  0  0  0  0  0  0  0
    3.1713  -10.1816   17.6634 C   0  0  0  0  0  0  0  0  0  0  0  0
    2.7878   -8.3822   16.2137 C   0  0  0  0  0  0  0  0  0  0  0  0
    9.4601   -2.6590   25.6528 C   0  0  0  0  0  0  0  0  0  0  0  0
   10.1182   -1.5672   23.1165 C   0  0  0  0  0  0  0  0  0  0  0  0
    1.0552   -9.6360   17.0650 C   0  0  0  0  0  0  0  0  0  0  0  0
    3.6519   -9.1783   16.9039 C   0  0  0  0  0  0  0  0  0  0  0  0
    7.8675   -7.0096   15.9415 C   0  0  0  0  0  0  0  0  0  0  0  0
    5.9733   -9.6553   17.3832 N   0  0  0  0  0  0  0  0  0  0  0  0
   10.2411   -2.9363   23.4301 C   0  0  0  0  0  0  0  0  0  0  0  0
   10.7288   -3.8197   19.9525 C   0  0  0  0  0  0  0  0  0  0  0  0
   10.1189   -5.0054   19.6987 C   0  0  0  0  0  0  0  0  0  0  0  0
  1  3  4  0
  1  7  4  0
  2 21  4  0
  2 27  4  0
  3  9  4  0
  3 10  4  0
  4  8  4  0
  4 18  4  0
  4 25  1  0
  5  9  4  0
  5 12  4  0
  6 13  1  0
  6 27  1  0
  7 28  4  0
  8 11  4  0
  9 29  4  0
 10 12  4  0
 11 24  1  0
 11 26  4  0
 12 25  1  0
 13 28  1  0
 14 20  4  0
 14 23  4  0
 15 17  4  0
 15 21  4  0
 16 19  4  0
 16 23  4  0
 17 22  4  0
 18 26  4  0
 19 24  4  0
 20 24  4  0
 22 27  4  0
 28 29  4  0
M  END
$$$$

 Created by Python create_sdf_string function

 29 33  0  0  0  0  0  0  0  0999 V2000
   10.7215   -3.3326   17.6437 C   0  0  0  0  0  0  0  0  0  0  0  0
    9.9489   -3.4675   24.6487 N   0  0  0  0  0  0  0  0  0  0  0  0
   10.0172   -4.4740   17.4101 C   0  0  0  0  0  0  0  0  0  0  0  0
    6.9051   -7.9575   16.4222 C   0  0  0  0  0  0  0  0  0  0  0  0
    8.9969   -6.3552   17.9668 N   0  0  0  0  0  0  0  0  0  0  0  0
   10.6702   -3.9051   22.4070 C   0  0  0  0  0  0  0  0  0  0  0  0
   11.0625   -3.0028   18.8894 C   0  0  0  0  0  0  0  0  0  0  0  0
    5.6180   -7.9194   16.1754 O   0  0  0  0  0  0  0  0  0  0  0  0
    9.7259   -5.3080   18.4485 C   0  0  0  0  0  0  0  0  0  0  0  0
    9.4578   -5.0200   16.3036 N   0  0  0  0  0  0  0  0  0  0  0  0
    5.0287   -8.9365   16.8223 C   0  0  0  0  0  0  0  0  0  0  0  0
    8.7742   -6.1498   16.6764 C   0  0  0  0  0  0  0  0  0  0  0  0
   10.9418   -3.4032   21.2053 O   0  0  0  0  0  0  0  0  0  0  0  0
    1.4797   -8.6258   16.2950 C   0  0  0  0  0  0  0  0  0  0  0  0
    9.2861   -1.2743   25.3585 C   0  0  0  0  0  0  0  0  0  0  0  0
    1.8892  -10.3985   17.7511 N   0  0  0  0  0  0  0  0  0  0  0  0
    9.6210   -0.6952   24.0976 C   0  0  0  0  0  0  0  0  0  0  0  0
    7.0792   -9.0217   17.1429 C   0  0  0  0  0  0  0  0  0  0  0  0
    3.1713  -10.1816   17.6634 C   0  0  0  0  0  0  0  0  0  0  0  0
    2.7878   -8.3822   16.2137 C   0  0  0  0  0  0  0  0  0  0  0  0
    9.4601   -2.6590   25.6528 C   0  0  0  0  0  0  0  0  0  0  0  0
   10.1182   -1.5672   23.1165 C   0  0  0  0  0  0  0  0  0  0  0  0
    1.0552   -9.6360   17.0650 C   0  0  0  0  0  0  0  0  0  0  0  0
    3.6519   -9.1783   16.9039 C   0  0  0  0  0  0  0  0  0  0  0  0
    7.8675   -7.0096   15.9415 C   0  0  0  0  0  0  0  0  0  0  0  0
    5.9733   -9.6553   17.3832 N   0  0  0  0  0  0  0  0  0  0  0  0
   10.2411   -2.9363   23.4301 C   0  0  0  0  0  0  0  0  0  0  0  0
   10.7288   -3.8197   19.9525 C   0  0  0  0  0  0  0  0  0  0  0  0
   10.1189   -5.0054   19.6987 C   0  0  0  0  0  0  0  0  0  0  0  0
  1  3  4  0
  1  7  4  0
  2 21  4  0
  2 27  4  0
  3  9  4  0
  3 10  4  0
  4  8  4  0
  4 18  4  0
  4 25  1  0
  5  9  4  0
  5 12  4  0
  6 13  1  0
  6 27  1  0
  7 28  4  0
  8 11  4  0
  9 29  4  0
 10 12  4  0
 11 24  1  0
 11 26  4  0
 12 25  1  0
 13 28  1  0
 14 20  4  0
 14 23  4  0
 15 17  4  0
 15 21  4  0
 16 19  4  0
 16 23  4  0
 17 22  4  0
 18 26  4  0
 19 24  4  0
 20 24  4  0
 22 27  4  0
 28 29  4  0
M  END
$$$$

 Created by Python create_sdf_string function

 29 33  0  0  0  0  0  0  0  0999 V2000
   10.7215   -3.3326   17.6437 C   0  0  0  0  0  0  0  0  0  0  0  0
    9.9489   -3.4675   24.6487 N   0  0  0  0  0  0  0  0  0  0  0  0
   10.0172   -4.4740   17.4101 C   0  0  0  0  0  0  0  0  0  0  0  0
    6.9051   -7.9575   16.4222 C   0  0  0  0  0  0  0  0  0  0  0  0
    8.9969   -6.3552   17.9668 N   0  0  0  0  0  0  0  0  0  0  0  0
   10.6702   -3.9051   22.4070 C   0  0  0  0  0  0  0  0  0  0  0  0
   11.0625   -3.0028   18.8894 C   0  0  0  0  0  0  0  0  0  0  0  0
    5.6180   -7.9194   16.1754 O   0  0  0  0  0  0  0  0  0  0  0  0
    9.7259   -5.3080   18.4485 C   0  0  0  0  0  0  0  0  0  0  0  0
    9.4578   -5.0200   16.3036 N   0  0  0  0  0  0  0  0  0  0  0  0
    5.0287   -8.9365   16.8223 C   0  0  0  0  0  0  0  0  0  0  0  0
    8.7742   -6.1498   16.6764 C   0  0  0  0  0  0  0  0  0  0  0  0
   10.9418   -3.4032   21.2053 O   0  0  0  0  0  0  0  0  0  0  0  0
    1.4797   -8.6258   16.2950 C   0  0  0  0  0  0  0  0  0  0  0  0
    9.2861   -1.2743   25.3585 C   0  0  0  0  0  0  0  0  0  0  0  0
    1.8892  -10.3985   17.7511 N   0  0  0  0  0  0  0  0  0  0  0  0
    9.6210   -0.6952   24.0976 C   0  0  0  0  0  0  0  0  0  0  0  0
    7.0792   -9.0217   17.1429 C   0  0  0  0  0  0  0  0  0  0  0  0
    3.1713  -10.1816   17.6634 C   0  0  0  0  0  0  0  0  0  0  0  0
    2.7878   -8.3822   16.2137 C   0  0  0  0  0  0  0  0  0  0  0  0
    9.4601   -2.6590   25.6528 C   0  0  0  0  0  0  0  0  0  0  0  0
   10.1182   -1.5672   23.1165 C   0  0  0  0  0  0  0  0  0  0  0  0
    1.0552   -9.6360   17.0650 C   0  0  0  0  0  0  0  0  0  0  0  0
    3.6519   -9.1783   16.9039 C   0  0  0  0  0  0  0  0  0  0  0  0
    7.8675   -7.0096   15.9415 C   0  0  0  0  0  0  0  0  0  0  0  0
    5.9733   -9.6553   17.3832 N   0  0  0  0  0  0  0  0  0  0  0  0
   10.2411   -2.9363   23.4301 C   0  0  0  0  0  0  0  0  0  0  0  0
   10.7288   -3.8197   19.9525 C   0  0  0  0  0  0  0  0  0  0  0  0
   10.1189   -5.0054   19.6987 C   0  0  0  0  0  0  0  0  0  0  0  0
  1  3  4  0
  1  7  4  0
  2 21  4  0
  2 27  4  0
  3  9  4  0
  3 10  4  0
  4  8  4  0
  4 18  4  0
  4 25  1  0
  5  9  4  0
  5 12  4  0
  6 13  1  0
  6 27  1  0
  7 28  4  0
  8 11  4  0
  9 29  4  0
 10 12  4  0
 11 24  1  0
 11 26  4  0
 12 25  1  0
 13 28  1  0
 14 20  4  0
 14 23  4  0
 15 17  4  0
 15 21  4  0
 16 19  4  0
 16 23  4  0
 17 22  4  0
 18 26  4  0
 19 24  4  0
 20 24  4  0
 22 27  4  0
 28 29  4  0
M  END
$$$$

 Created by Python create_sdf_string function

 29 33  0  0  0  0  0  0  0  0999 V2000
   10.7215   -3.3326   17.6437 C   0  0  0  0  0  0  0  0  0  0  0  0
    9.9489   -3.4675   24.6487 N   0  0  0  0  0  0  0  0  0  0  0  0
   10.0172   -4.4740   17.4101 C   0  0  0  0  0  0  0  0  0  0  0  0
    6.9051   -7.9575   16.4222 C   0  0  0  0  0  0  0  0  0  0  0  0
    8.9969   -6.3552   17.9668 N   0  0  0  0  0  0  0  0  0  0  0  0
   10.6702   -3.9051   22.4070 C   0  0  0  0  0  0  0  0  0  0  0  0
   11.0625   -3.0028   18.8894 C   0  0  0  0  0  0  0  0  0  0  0  0
    5.6180   -7.9194   16.1754 O   0  0  0  0  0  0  0  0  0  0  0  0
    9.7259   -5.3080   18.4485 C   0  0  0  0  0  0  0  0  0  0  0  0
    9.4578   -5.0200   16.3036 N   0  0  0  0  0  0  0  0  0  0  0  0
    5.0287   -8.9365   16.8223 C   0  0  0  0  0  0  0  0  0  0  0  0
    8.7742   -6.1498   16.6764 C   0  0  0  0  0  0  0  0  0  0  0  0
   10.9418   -3.4032   21.2053 O   0  0  0  0  0  0  0  0  0  0  0  0
    1.4797   -8.6258   16.2950 C   0  0  0  0  0  0  0  0  0  0  0  0
    9.2861   -1.2743   25.3585 C   0  0  0  0  0  0  0  0  0  0  0  0
    1.8892  -10.3985   17.7511 N   0  0  0  0  0  0  0  0  0  0  0  0
    9.6210   -0.6952   24.0976 C   0  0  0  0  0  0  0  0  0  0  0  0
    7.0792   -9.0217   17.1429 C   0  0  0  0  0  0  0  0  0  0  0  0
    3.1713  -10.1816   17.6634 C   0  0  0  0  0  0  0  0  0  0  0  0
    2.7878   -8.3822   16.2137 C   0  0  0  0  0  0  0  0  0  0  0  0
    9.4601   -2.6590   25.6528 C   0  0  0  0  0  0  0  0  0  0  0  0
   10.1182   -1.5672   23.1165 C   0  0  0  0  0  0  0  0  0  0  0  0
    1.0552   -9.6360   17.0650 C   0  0  0  0  0  0  0  0  0  0  0  0
    3.6519   -9.1783   16.9039 C   0  0  0  0  0  0  0  0  0  0  0  0
    7.8675   -7.0096   15.9415 C   0  0  0  0  0  0  0  0  0  0  0  0
    5.9733   -9.6553   17.3832 N   0  0  0  0  0  0  0  0  0  0  0  0
   10.2411   -2.9363   23.4301 C   0  0  0  0  0  0  0  0  0  0  0  0
   10.7288   -3.8197   19.9525 C   0  0  0  0  0  0  0  0  0  0  0  0
   10.1189   -5.0054   19.6987 C   0  0  0  0  0  0  0  0  0  0  0  0
  1  3  4  0
  1  7  4  0
  2 21  4  0
  2 27  4  0
  3  9  4  0
  3 10  4  0
  4  8  4  0
  4 18  4  0
  4 25  1  0
  5  9  4  0
  5 12  4  0
  6 13  1  0
  6 27  1  0
  7 28  4  0
  8 11  4  0
  9 29  4  0
 10 12  4  0
 11 24  1  0
 11 26  4  0
 12 25  1  0
 13 28  1  0
 14 20  4  0
 14 23  4  0
 15 17  4  0
 15 21  4  0
 16 19  4  0
 16 23  4  0
 17 22  4  0
 18 26  4  0
 19 24  4  0
 20 24  4  0
 22 27  4  0
 28 29  4  0
M  END
$$$$

 Created by Python create_sdf_string function

 29 33  0  0  0  0  0  0  0  0999 V2000
   10.7215   -3.3326   17.6437 C   0  0  0  0  0  0  0  0  0  0  0  0
    9.9489   -3.4675   24.6487 N   0  0  0  0  0  0  0  0  0  0  0  0
   10.0172   -4.4740   17.4101 C   0  0  0  0  0  0  0  0  0  0  0  0
    6.9051   -7.9575   16.4222 C   0  0  0  0  0  0  0  0  0  0  0  0
    8.9969   -6.3552   17.9668 N   0  0  0  0  0  0  0  0  0  0  0  0
   10.6702   -3.9051   22.4070 C   0  0  0  0  0  0  0  0  0  0  0  0
   11.0625   -3.0028   18.8894 C   0  0  0  0  0  0  0  0  0  0  0  0
    5.6180   -7.9194   16.1754 O   0  0  0  0  0  0  0  0  0  0  0  0
    9.7259   -5.3080   18.4485 C   0  0  0  0  0  0  0  0  0  0  0  0
    9.4578   -5.0200   16.3036 N   0  0  0  0  0  0  0  0  0  0  0  0
    5.0287   -8.9365   16.8223 C   0  0  0  0  0  0  0  0  0  0  0  0
    8.7742   -6.1498   16.6764 C   0  0  0  0  0  0  0  0  0  0  0  0
   10.9418   -3.4032   21.2053 O   0  0  0  0  0  0  0  0  0  0  0  0
    1.4797   -8.6258   16.2950 C   0  0  0  0  0  0  0  0  0  0  0  0
    9.2861   -1.2743   25.3585 C   0  0  0  0  0  0  0  0  0  0  0  0
    1.8892  -10.3985   17.7511 N   0  0  0  0  0  0  0  0  0  0  0  0
    9.6210   -0.6952   24.0976 C   0  0  0  0  0  0  0  0  0  0  0  0
    7.0792   -9.0217   17.1429 C   0  0  0  0  0  0  0  0  0  0  0  0
    3.1713  -10.1816   17.6634 C   0  0  0  0  0  0  0  0  0  0  0  0
    2.7878   -8.3822   16.2137 C   0  0  0  0  0  0  0  0  0  0  0  0
    9.4601   -2.6590   25.6528 C   0  0  0  0  0  0  0  0  0  0  0  0
   10.1182   -1.5672   23.1165 C   0  0  0  0  0  0  0  0  0  0  0  0
    1.0552   -9.6360   17.0650 C   0  0  0  0  0  0  0  0  0  0  0  0
    3.6519   -9.1783   16.9039 C   0  0  0  0  0  0  0  0  0  0  0  0
    7.8675   -7.0096   15.9415 C   0  0  0  0  0  0  0  0  0  0  0  0
    5.9733   -9.6553   17.3832 N   0  0  0  0  0  0  0  0  0  0  0  0
   10.2411   -2.9363   23.4301 C   0  0  0  0  0  0  0  0  0  0  0  0
   10.7288   -3.8197   19.9525 C   0  0  0  0  0  0  0  0  0  0  0  0
   10.1189   -5.0054   19.6987 C   0  0  0  0  0  0  0  0  0  0  0  0
  1  3  4  0
  1  7  4  0
  2 21  4  0
  2 27  4  0
  3  9  4  0
  3 10  4  0
  4  8  4  0
  4 18  4  0
  4 25  1  0
  5  9  4  0
  5 12  4  0
  6 13  1  0
  6 27  1  0
  7 28  4  0
  8 11  4  0
  9 29  4  0
 10 12  4  0
 11 24  1  0
 11 26  4  0
 12 25  1  0
 13 28  1  0
 14 20  4  0
 14 23  4  0
 15 17  4  0
 15 21  4  0
 16 19  4  0
 16 23  4  0
 17 22  4  0
 18 26  4  0
 19 24  4  0
 20 24  4  0
 22 27  4  0
 28 29  4  0
M  END
$$$$

 Created by Python create_sdf_string function

 29 33  0  0  0  0  0  0  0  0999 V2000
   10.7215   -3.3326   17.6437 C   0  0  0  0  0  0  0  0  0  0  0  0
    9.9489   -3.4675   24.6487 N   0  0  0  0  0  0  0  0  0  0  0  0
   10.0172   -4.4740   17.4101 C   0  0  0  0  0  0  0  0  0  0  0  0
    6.9051   -7.9575   16.4222 C   0  0  0  0  0  0  0  0  0  0  0  0
    8.9969   -6.3552   17.9668 N   0  0  0  0  0  0  0  0  0  0  0  0
   10.6702   -3.9051   22.4070 C   0  0  0  0  0  0  0  0  0  0  0  0
   11.0625   -3.0028   18.8894 C   0  0  0  0  0  0  0  0  0  0  0  0
    5.6180   -7.9194   16.1754 O   0  0  0  0  0  0  0  0  0  0  0  0
    9.7259   -5.3080   18.4485 C   0  0  0  0  0  0  0  0  0  0  0  0
    9.4578   -5.0200   16.3036 N   0  0  0  0  0  0  0  0  0  0  0  0
    5.0287   -8.9365   16.8223 C   0  0  0  0  0  0  0  0  0  0  0  0
    8.7742   -6.1498   16.6764 C   0  0  0  0  0  0  0  0  0  0  0  0
   10.9418   -3.4032   21.2053 O   0  0  0  0  0  0  0  0  0  0  0  0
    1.4797   -8.6258   16.2950 C   0  0  0  0  0  0  0  0  0  0  0  0
    9.2861   -1.2743   25.3585 C   0  0  0  0  0  0  0  0  0  0  0  0
    1.8892  -10.3985   17.7511 N   0  0  0  0  0  0  0  0  0  0  0  0
    9.6210   -0.6952   24.0976 C   0  0  0  0  0  0  0  0  0  0  0  0
    7.0792   -9.0217   17.1429 C   0  0  0  0  0  0  0  0  0  0  0  0
    3.1713  -10.1816   17.6634 C   0  0  0  0  0  0  0  0  0  0  0  0
    2.7878   -8.3822   16.2137 C   0  0  0  0  0  0  0  0  0  0  0  0
    9.4601   -2.6590   25.6528 C   0  0  0  0  0  0  0  0  0  0  0  0
   10.1182   -1.5672   23.1165 C   0  0  0  0  0  0  0  0  0  0  0  0
    1.0552   -9.6360   17.0650 C   0  0  0  0  0  0  0  0  0  0  0  0
    3.6519   -9.1783   16.9039 C   0  0  0  0  0  0  0  0  0  0  0  0
    7.8675   -7.0096   15.9415 C   0  0  0  0  0  0  0  0  0  0  0  0
    5.9733   -9.6553   17.3832 N   0  0  0  0  0  0  0  0  0  0  0  0
   10.2411   -2.9363   23.4301 C   0  0  0  0  0  0  0  0  0  0  0  0
   10.7288   -3.8197   19.9525 C   0  0  0  0  0  0  0  0  0  0  0  0
   10.1189   -5.0054   19.6987 C   0  0  0  0  0  0  0  0  0  0  0  0
  1  3  4  0
  1  7  4  0
  2 21  4  0
  2 27  4  0
  3  9  4  0
  3 10  4  0
  4  8  4  0
  4 18  4  0
  4 25  1  0
  5  9  4  0
  5 12  4  0
  6 13  1  0
  6 27  1  0
  7 28  4  0
  8 11  4  0
  9 29  4  0
 10 12  4  0
 11 24  1  0
 11 26  4  0
 12 25  1  0
 13 28  1  0
 14 20  4  0
 14 23  4  0
 15 17  4  0
 15 21  4  0
 16 19  4  0
 16 23  4  0
 17 22  4  0
 18 26  4  0
 19 24  4  0
 20 24  4  0
 22 27  4  0
 28 29  4  0
M  END
$$$$

 Created by Python create_sdf_string function

 29 33  0  0  0  0  0  0  0  0999 V2000
   10.7215   -3.3326   17.6437 C   0  0  0  0  0  0  0  0  0  0  0  0
    9.9489   -3.4675   24.6487 N   0  0  0  0  0  0  0  0  0  0  0  0
   10.0172   -4.4740   17.4101 C   0  0  0  0  0  0  0  0  0  0  0  0
    6.9051   -7.9575   16.4222 C   0  0  0  0  0  0  0  0  0  0  0  0
    8.9969   -6.3552   17.9668 N   0  0  0  0  0  0  0  0  0  0  0  0
   10.6702   -3.9051   22.4070 C   0  0  0  0  0  0  0  0  0  0  0  0
   11.0625   -3.0028   18.8894 C   0  0  0  0  0  0  0  0  0  0  0  0
    5.6180   -7.9194   16.1754 O   0  0  0  0  0  0  0  0  0  0  0  0
    9.7259   -5.3080   18.4485 C   0  0  0  0  0  0  0  0  0  0  0  0
    9.4578   -5.0200   16.3036 N   0  0  0  0  0  0  0  0  0  0  0  0
    5.0287   -8.9365   16.8223 C   0  0  0  0  0  0  0  0  0  0  0  0
    8.7742   -6.1498   16.6764 C   0  0  0  0  0  0  0  0  0  0  0  0
   10.9418   -3.4032   21.2053 O   0  0  0  0  0  0  0  0  0  0  0  0
    1.4797   -8.6258   16.2950 C   0  0  0  0  0  0  0  0  0  0  0  0
    9.2861   -1.2743   25.3585 C   0  0  0  0  0  0  0  0  0  0  0  0
    1.8892  -10.3985   17.7511 N   0  0  0  0  0  0  0  0  0  0  0  0
    9.6210   -0.6952   24.0976 C   0  0  0  0  0  0  0  0  0  0  0  0
    7.0792   -9.0217   17.1429 C   0  0  0  0  0  0  0  0  0  0  0  0
    3.1713  -10.1816   17.6634 C   0  0  0  0  0  0  0  0  0  0  0  0
    2.7878   -8.3822   16.2137 C   0  0  0  0  0  0  0  0  0  0  0  0
    9.4601   -2.6590   25.6528 C   0  0  0  0  0  0  0  0  0  0  0  0
   10.1182   -1.5672   23.1165 C   0  0  0  0  0  0  0  0  0  0  0  0
    1.0552   -9.6360   17.0650 C   0  0  0  0  0  0  0  0  0  0  0  0
    3.6519   -9.1783   16.9039 C   0  0  0  0  0  0  0  0  0  0  0  0
    7.8675   -7.0096   15.9415 C   0  0  0  0  0  0  0  0  0  0  0  0
    5.9733   -9.6553   17.3832 N   0  0  0  0  0  0  0  0  0  0  0  0
   10.2411   -2.9363   23.4301 C   0  0  0  0  0  0  0  0  0  0  0  0
   10.7288   -3.8197   19.9525 C   0  0  0  0  0  0  0  0  0  0  0  0
   10.1189   -5.0054   19.6987 C   0  0  0  0  0  0  0  0  0  0  0  0
  1  3  4  0
  1  7  4  0
  2 21  4  0
  2 27  4  0
  3  9  4  0
  3 10  4  0
  4  8  4  0
  4 18  4  0
  4 25  1  0
  5  9  4  0
  5 12  4  0
  6 13  1  0
  6 27  1  0
  7 28  4  0
  8 11  4  0
  9 29  4  0
 10 12  4  0
 11 24  1  0
 11 26  4  0
 12 25  1  0
 13 28  1  0
 14 20  4  0
 14 23  4  0
 15 17  4  0
 15 21  4  0
 16 19  4  0
 16 23  4  0
 17 22  4  0
 18 26  4  0
 19 24  4  0
 20 24  4  0
 22 27  4  0
 28 29  4  0
M  END
$$$$

 Created by Python create_sdf_string function

 29 33  0  0  0  0  0  0  0  0999 V2000
   10.7215   -3.3326   17.6437 C   0  0  0  0  0  0  0  0  0  0  0  0
    9.9489   -3.4675   24.6487 N   0  0  0  0  0  0  0  0  0  0  0  0
   10.0172   -4.4740   17.4101 C   0  0  0  0  0  0  0  0  0  0  0  0
    6.9051   -7.9575   16.4222 C   0  0  0  0  0  0  0  0  0  0  0  0
    8.9969   -6.3552   17.9668 N   0  0  0  0  0  0  0  0  0  0  0  0
   10.6702   -3.9051   22.4070 C   0  0  0  0  0  0  0  0  0  0  0  0
   11.0625   -3.0028   18.8894 C   0  0  0  0  0  0  0  0  0  0  0  0
    5.6180   -7.9194   16.1754 O   0  0  0  0  0  0  0  0  0  0  0  0
    9.7259   -5.3080   18.4485 C   0  0  0  0  0  0  0  0  0  0  0  0
    9.4578   -5.0200   16.3036 N   0  0  0  0  0  0  0  0  0  0  0  0
    5.0287   -8.9365   16.8223 C   0  0  0  0  0  0  0  0  0  0  0  0
    8.7742   -6.1498   16.6764 C   0  0  0  0  0  0  0  0  0  0  0  0
   10.9418   -3.4032   21.2053 O   0  0  0  0  0  0  0  0  0  0  0  0
    1.4797   -8.6258   16.2950 C   0  0  0  0  0  0  0  0  0  0  0  0
    9.2861   -1.2743   25.3585 C   0  0  0  0  0  0  0  0  0  0  0  0
    1.8892  -10.3985   17.7511 N   0  0  0  0  0  0  0  0  0  0  0  0
    9.6210   -0.6952   24.0976 C   0  0  0  0  0  0  0  0  0  0  0  0
    7.0792   -9.0217   17.1429 C   0  0  0  0  0  0  0  0  0  0  0  0
    3.1713  -10.1816   17.6634 C   0  0  0  0  0  0  0  0  0  0  0  0
    2.7878   -8.3822   16.2137 C   0  0  0  0  0  0  0  0  0  0  0  0
    9.4601   -2.6590   25.6528 C   0  0  0  0  0  0  0  0  0  0  0  0
   10.1182   -1.5672   23.1165 C   0  0  0  0  0  0  0  0  0  0  0  0
    1.0552   -9.6360   17.0650 C   0  0  0  0  0  0  0  0  0  0  0  0
    3.6519   -9.1783   16.9039 C   0  0  0  0  0  0  0  0  0  0  0  0
    7.8675   -7.0096   15.9415 C   0  0  0  0  0  0  0  0  0  0  0  0
    5.9733   -9.6553   17.3832 N   0  0  0  0  0  0  0  0  0  0  0  0
   10.2411   -2.9363   23.4301 C   0  0  0  0  0  0  0  0  0  0  0  0
   10.7288   -3.8197   19.9525 C   0  0  0  0  0  0  0  0  0  0  0  0
   10.1189   -5.0054   19.6987 C   0  0  0  0  0  0  0  0  0  0  0  0
  1  3  4  0
  1  7  4  0
  2 21  4  0
  2 27  4  0
  3  9  4  0
  3 10  4  0
  4  8  4  0
  4 18  4  0
  4 25  1  0
  5  9  4  0
  5 12  4  0
  6 13  1  0
  6 27  1  0
  7 28  4  0
  8 11  4  0
  9 29  4  0
 10 12  4  0
 11 24  1  0
 11 26  4  0
 12 25  1  0
 13 28  1  0
 14 20  4  0
 14 23  4  0
 15 17  4  0
 15 21  4  0
 16 19  4  0
 16 23  4  0
 17 22  4  0
 18 26  4  0
 19 24  4  0
 20 24  4  0
 22 27  4  0
 28 29  4  0
M  END
$$$$

 Created by Python create_sdf_string function

 29 33  0  0  0  0  0  0  0  0999 V2000
   10.7215   -3.3326   17.6437 C   0  0  0  0  0  0  0  0  0  0  0  0
    9.9489   -3.4675   24.6487 N   0  0  0  0  0  0  0  0  0  0  0  0
   10.0172   -4.4740   17.4101 C   0  0  0  0  0  0  0  0  0  0  0  0
    6.9051   -7.9575   16.4222 C   0  0  0  0  0  0  0  0  0  0  0  0
    8.9969   -6.3552   17.9668 N   0  0  0  0  0  0  0  0  0  0  0  0
   10.6702   -3.9051   22.4070 C   0  0  0  0  0  0  0  0  0  0  0  0
   11.0625   -3.0028   18.8894 C   0  0  0  0  0  0  0  0  0  0  0  0
    5.6180   -7.9194   16.1754 O   0  0  0  0  0  0  0  0  0  0  0  0
    9.7259   -5.3080   18.4485 C   0  0  0  0  0  0  0  0  0  0  0  0
    9.4578   -5.0200   16.3036 N   0  0  0  0  0  0  0  0  0  0  0  0
    5.0287   -8.9365   16.8223 C   0  0  0  0  0  0  0  0  0  0  0  0
    8.7742   -6.1498   16.6764 C   0  0  0  0  0  0  0  0  0  0  0  0
   10.9418   -3.4032   21.2053 O   0  0  0  0  0  0  0  0  0  0  0  0
    1.4797   -8.6258   16.2950 C   0  0  0  0  0  0  0  0  0  0  0  0
    9.2861   -1.2743   25.3585 C   0  0  0  0  0  0  0  0  0  0  0  0
    1.8892  -10.3985   17.7511 N   0  0  0  0  0  0  0  0  0  0  0  0
    9.6210   -0.6952   24.0976 C   0  0  0  0  0  0  0  0  0  0  0  0
    7.0792   -9.0217   17.1429 C   0  0  0  0  0  0  0  0  0  0  0  0
    3.1713  -10.1816   17.6634 C   0  0  0  0  0  0  0  0  0  0  0  0
    2.7878   -8.3822   16.2137 C   0  0  0  0  0  0  0  0  0  0  0  0
    9.4601   -2.6590   25.6528 C   0  0  0  0  0  0  0  0  0  0  0  0
   10.1182   -1.5672   23.1165 C   0  0  0  0  0  0  0  0  0  0  0  0
    1.0552   -9.6360   17.0650 C   0  0  0  0  0  0  0  0  0  0  0  0
    3.6519   -9.1783   16.9039 C   0  0  0  0  0  0  0  0  0  0  0  0
    7.8675   -7.0096   15.9415 C   0  0  0  0  0  0  0  0  0  0  0  0
    5.9733   -9.6553   17.3832 N   0  0  0  0  0  0  0  0  0  0  0  0
   10.2411   -2.9363   23.4301 C   0  0  0  0  0  0  0  0  0  0  0  0
   10.7288   -3.8197   19.9525 C   0  0  0  0  0  0  0  0  0  0  0  0
   10.1189   -5.0054   19.6987 C   0  0  0  0  0  0  0  0  0  0  0  0
  1  3  4  0
  1  7  4  0
  2 21  4  0
  2 27  4  0
  3  9  4  0
  3 10  4  0
  4  8  4  0
  4 18  4  0
  4 25  1  0
  5  9  4  0
  5 12  4  0
  6 13  1  0
  6 27  1  0
  7 28  4  0
  8 11  4  0
  9 29  4  0
 10 12  4  0
 11 24  1  0
 11 26  4  0
 12 25  1  0
 13 28  1  0
 14 20  4  0
 14 23  4  0
 15 17  4  0
 15 21  4  0
 16 19  4  0
 16 23  4  0
 17 22  4  0
 18 26  4  0
 19 24  4  0
 20 24  4  0
 22 27  4  0
 28 29  4  0
M  END
$$$$

 Created by Python create_sdf_string function

 29 33  0  0  0  0  0  0  0  0999 V2000
   10.7215   -3.3326   17.6437 C   0  0  0  0  0  0  0  0  0  0  0  0
    9.9489   -3.4675   24.6487 N   0  0  0  0  0  0  0  0  0  0  0  0
   10.0172   -4.4740   17.4101 C   0  0  0  0  0  0  0  0  0  0  0  0
    6.9051   -7.9575   16.4222 C   0  0  0  0  0  0  0  0  0  0  0  0
    8.9969   -6.3552   17.9668 N   0  0  0  0  0  0  0  0  0  0  0  0
   10.6702   -3.9051   22.4070 C   0  0  0  0  0  0  0  0  0  0  0  0
   11.0625   -3.0028   18.8894 C   0  0  0  0  0  0  0  0  0  0  0  0
    5.6180   -7.9194   16.1754 O   0  0  0  0  0  0  0  0  0  0  0  0
    9.7259   -5.3080   18.4485 C   0  0  0  0  0  0  0  0  0  0  0  0
    9.4578   -5.0200   16.3036 N   0  0  0  0  0  0  0  0  0  0  0  0
    5.0287   -8.9365   16.8223 C   0  0  0  0  0  0  0  0  0  0  0  0
    8.7742   -6.1498   16.6764 C   0  0  0  0  0  0  0  0  0  0  0  0
   10.9418   -3.4032   21.2053 O   0  0  0  0  0  0  0  0  0  0  0  0
    1.4797   -8.6258   16.2950 C   0  0  0  0  0  0  0  0  0  0  0  0
    9.2861   -1.2743   25.3585 C   0  0  0  0  0  0  0  0  0  0  0  0
    1.8892  -10.3985   17.7511 N   0  0  0  0  0  0  0  0  0  0  0  0
    9.6210   -0.6952   24.0976 C   0  0  0  0  0  0  0  0  0  0  0  0
    7.0792   -9.0217   17.1429 C   0  0  0  0  0  0  0  0  0  0  0  0
    3.1713  -10.1816   17.6634 C   0  0  0  0  0  0  0  0  0  0  0  0
    2.7878   -8.3822   16.2137 C   0  0  0  0  0  0  0  0  0  0  0  0
    9.4601   -2.6590   25.6528 C   0  0  0  0  0  0  0  0  0  0  0  0
   10.1182   -1.5672   23.1165 C   0  0  0  0  0  0  0  0  0  0  0  0
    1.0552   -9.6360   17.0650 C   0  0  0  0  0  0  0  0  0  0  0  0
    3.6519   -9.1783   16.9039 C   0  0  0  0  0  0  0  0  0  0  0  0
    7.8675   -7.0096   15.9415 C   0  0  0  0  0  0  0  0  0  0  0  0
    5.9733   -9.6553   17.3832 N   0  0  0  0  0  0  0  0  0  0  0  0
   10.2411   -2.9363   23.4301 C   0  0  0  0  0  0  0  0  0  0  0  0
   10.7288   -3.8197   19.9525 C   0  0  0  0  0  0  0  0  0  0  0  0
   10.1189   -5.0054   19.6987 C   0  0  0  0  0  0  0  0  0  0  0  0
  1  3  4  0
  1  7  4  0
  2 21  4  0
  2 27  4  0
  3  9  4  0
  3 10  4  0
  4  8  4  0
  4 18  4  0
  4 25  1  0
  5  9  4  0
  5 12  4  0
  6 13  1  0
  6 27  1  0
  7 28  4  0
  8 11  4  0
  9 29  4  0
 10 12  4  0
 11 24  1  0
 11 26  4  0
 12 25  1  0
 13 28  1  0
 14 20  4  0
 14 23  4  0
 15 17  4  0
 15 21  4  0
 16 19  4  0
 16 23  4  0
 17 22  4  0
 18 26  4  0
 19 24  4  0
 20 24  4  0
 22 27  4  0
 28 29  4  0
M  END
$$$$

 Created by Python create_sdf_string function

 29 33  0  0  0  0  0  0  0  0999 V2000
   10.7215   -3.3326   17.6437 C   0  0  0  0  0  0  0  0  0  0  0  0
    9.9489   -3.4675   24.6487 N   0  0  0  0  0  0  0  0  0  0  0  0
   10.0172   -4.4740   17.4101 C   0  0  0  0  0  0  0  0  0  0  0  0
    6.9051   -7.9575   16.4222 C   0  0  0  0  0  0  0  0  0  0  0  0
    8.9969   -6.3552   17.9668 N   0  0  0  0  0  0  0  0  0  0  0  0
   10.6702   -3.9051   22.4070 C   0  0  0  0  0  0  0  0  0  0  0  0
   11.0625   -3.0028   18.8894 C   0  0  0  0  0  0  0  0  0  0  0  0
    5.6180   -7.9194   16.1754 O   0  0  0  0  0  0  0  0  0  0  0  0
    9.7259   -5.3080   18.4485 C   0  0  0  0  0  0  0  0  0  0  0  0
    9.4578   -5.0200   16.3036 N   0  0  0  0  0  0  0  0  0  0  0  0
    5.0287   -8.9365   16.8223 C   0  0  0  0  0  0  0  0  0  0  0  0
    8.7742   -6.1498   16.6764 C   0  0  0  0  0  0  0  0  0  0  0  0
   10.9418   -3.4032   21.2053 O   0  0  0  0  0  0  0  0  0  0  0  0
    1.4797   -8.6258   16.2950 C   0  0  0  0  0  0  0  0  0  0  0  0
    9.2861   -1.2743   25.3585 C   0  0  0  0  0  0  0  0  0  0  0  0
    1.8892  -10.3985   17.7511 N   0  0  0  0  0  0  0  0  0  0  0  0
    9.6210   -0.6952   24.0976 C   0  0  0  0  0  0  0  0  0  0  0  0
    7.0792   -9.0217   17.1429 C   0  0  0  0  0  0  0  0  0  0  0  0
    3.1713  -10.1816   17.6634 C   0  0  0  0  0  0  0  0  0  0  0  0
    2.7878   -8.3822   16.2137 C   0  0  0  0  0  0  0  0  0  0  0  0
    9.4601   -2.6590   25.6528 C   0  0  0  0  0  0  0  0  0  0  0  0
   10.1182   -1.5672   23.1165 C   0  0  0  0  0  0  0  0  0  0  0  0
    1.0552   -9.6360   17.0650 C   0  0  0  0  0  0  0  0  0  0  0  0
    3.6519   -9.1783   16.9039 C   0  0  0  0  0  0  0  0  0  0  0  0
    7.8675   -7.0096   15.9415 C   0  0  0  0  0  0  0  0  0  0  0  0
    5.9733   -9.6553   17.3832 N   0  0  0  0  0  0  0  0  0  0  0  0
   10.2411   -2.9363   23.4301 C   0  0  0  0  0  0  0  0  0  0  0  0
   10.7288   -3.8197   19.9525 C   0  0  0  0  0  0  0  0  0  0  0  0
   10.1189   -5.0054   19.6987 C   0  0  0  0  0  0  0  0  0  0  0  0
  1  3  4  0
  1  7  4  0
  2 21  4  0
  2 27  4  0
  3  9  4  0
  3 10  4  0
  4  8  4  0
  4 18  4  0
  4 25  1  0
  5  9  4  0
  5 12  4  0
  6 13  1  0
  6 27  1  0
  7 28  4  0
  8 11  4  0
  9 29  4  0
 10 12  4  0
 11 24  1  0
 11 26  4  0
 12 25  1  0
 13 28  1  0
 14 20  4  0
 14 23  4  0
 15 17  4  0
 15 21  4  0
 16 19  4  0
 16 23  4  0
 17 22  4  0
 18 26  4  0
 19 24  4  0
 20 24  4  0
 22 27  4  0
 28 29  4  0
M  END
$$$$

 Created by Python create_sdf_string function

 29 33  0  0  0  0  0  0  0  0999 V2000
   10.7215   -3.3326   17.6437 C   0  0  0  0  0  0  0  0  0  0  0  0
    9.9489   -3.4675   24.6487 N   0  0  0  0  0  0  0  0  0  0  0  0
   10.0172   -4.4740   17.4101 C   0  0  0  0  0  0  0  0  0  0  0  0
    6.9051   -7.9575   16.4222 C   0  0  0  0  0  0  0  0  0  0  0  0
    8.9969   -6.3552   17.9668 N   0  0  0  0  0  0  0  0  0  0  0  0
   10.6702   -3.9051   22.4070 C   0  0  0  0  0  0  0  0  0  0  0  0
   11.0625   -3.0028   18.8894 C   0  0  0  0  0  0  0  0  0  0  0  0
    5.6180   -7.9194   16.1754 O   0  0  0  0  0  0  0  0  0  0  0  0
    9.7259   -5.3080   18.4485 C   0  0  0  0  0  0  0  0  0  0  0  0
    9.4578   -5.0200   16.3036 N   0  0  0  0  0  0  0  0  0  0  0  0
    5.0287   -8.9365   16.8223 C   0  0  0  0  0  0  0  0  0  0  0  0
    8.7742   -6.1498   16.6764 C   0  0  0  0  0  0  0  0  0  0  0  0
   10.9418   -3.4032   21.2053 O   0  0  0  0  0  0  0  0  0  0  0  0
    1.4797   -8.6258   16.2950 C   0  0  0  0  0  0  0  0  0  0  0  0
    9.2861   -1.2743   25.3585 C   0  0  0  0  0  0  0  0  0  0  0  0
    1.8892  -10.3985   17.7511 N   0  0  0  0  0  0  0  0  0  0  0  0
    9.6210   -0.6952   24.0976 C   0  0  0  0  0  0  0  0  0  0  0  0
    7.0792   -9.0217   17.1429 C   0  0  0  0  0  0  0  0  0  0  0  0
    3.1713  -10.1816   17.6634 C   0  0  0  0  0  0  0  0  0  0  0  0
    2.7878   -8.3822   16.2137 C   0  0  0  0  0  0  0  0  0  0  0  0
    9.4601   -2.6590   25.6528 C   0  0  0  0  0  0  0  0  0  0  0  0
   10.1182   -1.5672   23.1165 C   0  0  0  0  0  0  0  0  0  0  0  0
    1.0552   -9.6360   17.0650 C   0  0  0  0  0  0  0  0  0  0  0  0
    3.6519   -9.1783   16.9039 C   0  0  0  0  0  0  0  0  0  0  0  0
    7.8675   -7.0096   15.9415 C   0  0  0  0  0  0  0  0  0  0  0  0
    5.9733   -9.6553   17.3832 N   0  0  0  0  0  0  0  0  0  0  0  0
   10.2411   -2.9363   23.4301 C   0  0  0  0  0  0  0  0  0  0  0  0
   10.7288   -3.8197   19.9525 C   0  0  0  0  0  0  0  0  0  0  0  0
   10.1189   -5.0054   19.6987 C   0  0  0  0  0  0  0  0  0  0  0  0
  1  3  4  0
  1  7  4  0
  2 21  4  0
  2 27  4  0
  3  9  4  0
  3 10  4  0
  4  8  4  0
  4 18  4  0
  4 25  1  0
  5  9  4  0
  5 12  4  0
  6 13  1  0
  6 27  1  0
  7 28  4  0
  8 11  4  0
  9 29  4  0
 10 12  4  0
 11 24  1  0
 11 26  4  0
 12 25  1  0
 13 28  1  0
 14 20  4  0
 14 23  4  0
 15 17  4  0
 15 21  4  0
 16 19  4  0
 16 23  4  0
 17 22  4  0
 18 26  4  0
 19 24  4  0
 20 24  4  0
 22 27  4  0
 28 29  4  0
M  END
$$$$

 Created by Python create_sdf_string function

 29 33  0  0  0  0  0  0  0  0999 V2000
   10.7215   -3.3326   17.6437 C   0  0  0  0  0  0  0  0  0  0  0  0
    9.9489   -3.4675   24.6487 N   0  0  0  0  0  0  0  0  0  0  0  0
   10.0172   -4.4740   17.4101 C   0  0  0  0  0  0  0  0  0  0  0  0
    6.9051   -7.9575   16.4222 C   0  0  0  0  0  0  0  0  0  0  0  0
    8.9969   -6.3552   17.9668 N   0  0  0  0  0  0  0  0  0  0  0  0
   10.6702   -3.9051   22.4070 C   0  0  0  0  0  0  0  0  0  0  0  0
   11.0625   -3.0028   18.8894 C   0  0  0  0  0  0  0  0  0  0  0  0
    5.6180   -7.9194   16.1754 O   0  0  0  0  0  0  0  0  0  0  0  0
    9.7259   -5.3080   18.4485 C   0  0  0  0  0  0  0  0  0  0  0  0
    9.4578   -5.0200   16.3036 N   0  0  0  0  0  0  0  0  0  0  0  0
    5.0287   -8.9365   16.8223 C   0  0  0  0  0  0  0  0  0  0  0  0
    8.7742   -6.1498   16.6764 C   0  0  0  0  0  0  0  0  0  0  0  0
   10.9418   -3.4032   21.2053 O   0  0  0  0  0  0  0  0  0  0  0  0
    1.4797   -8.6258   16.2950 C   0  0  0  0  0  0  0  0  0  0  0  0
    9.2861   -1.2743   25.3585 C   0  0  0  0  0  0  0  0  0  0  0  0
    1.8892  -10.3985   17.7511 N   0  0  0  0  0  0  0  0  0  0  0  0
    9.6210   -0.6952   24.0976 C   0  0  0  0  0  0  0  0  0  0  0  0
    7.0792   -9.0217   17.1429 C   0  0  0  0  0  0  0  0  0  0  0  0
    3.1713  -10.1816   17.6634 C   0  0  0  0  0  0  0  0  0  0  0  0
    2.7878   -8.3822   16.2137 C   0  0  0  0  0  0  0  0  0  0  0  0
    9.4601   -2.6590   25.6528 C   0  0  0  0  0  0  0  0  0  0  0  0
   10.1182   -1.5672   23.1165 C   0  0  0  0  0  0  0  0  0  0  0  0
    1.0552   -9.6360   17.0650 C   0  0  0  0  0  0  0  0  0  0  0  0
    3.6519   -9.1783   16.9039 C   0  0  0  0  0  0  0  0  0  0  0  0
    7.8675   -7.0096   15.9415 C   0  0  0  0  0  0  0  0  0  0  0  0
    5.9733   -9.6553   17.3832 N   0  0  0  0  0  0  0  0  0  0  0  0
   10.2411   -2.9363   23.4301 C   0  0  0  0  0  0  0  0  0  0  0  0
   10.7288   -3.8197   19.9525 C   0  0  0  0  0  0  0  0  0  0  0  0
   10.1189   -5.0054   19.6987 C   0  0  0  0  0  0  0  0  0  0  0  0
  1  3  4  0
  1  7  4  0
  2 21  4  0
  2 27  4  0
  3  9  4  0
  3 10  4  0
  4  8  4  0
  4 18  4  0
  4 25  1  0
  5  9  4  0
  5 12  4  0
  6 13  1  0
  6 27  1  0
  7 28  4  0
  8 11  4  0
  9 29  4  0
 10 12  4  0
 11 24  1  0
 11 26  4  0
 12 25  1  0
 13 28  1  0
 14 20  4  0
 14 23  4  0
 15 17  4  0
 15 21  4  0
 16 19  4  0
 16 23  4  0
 17 22  4  0
 18 26  4  0
 19 24  4  0
 20 24  4  0
 22 27  4  0
 28 29  4  0
M  END
$$$$

 Created by Python create_sdf_string function

 29 33  0  0  0  0  0  0  0  0999 V2000
   10.7215   -3.3326   17.6437 C   0  0  0  0  0  0  0  0  0  0  0  0
    9.9489   -3.4675   24.6487 N   0  0  0  0  0  0  0  0  0  0  0  0
   10.0172   -4.4740   17.4101 C   0  0  0  0  0  0  0  0  0  0  0  0
    6.9051   -7.9575   16.4222 C   0  0  0  0  0  0  0  0  0  0  0  0
    8.9969   -6.3552   17.9668 N   0  0  0  0  0  0  0  0  0  0  0  0
   10.6702   -3.9051   22.4070 C   0  0  0  0  0  0  0  0  0  0  0  0
   11.0625   -3.0028   18.8894 C   0  0  0  0  0  0  0  0  0  0  0  0
    5.6180   -7.9194   16.1754 O   0  0  0  0  0  0  0  0  0  0  0  0
    9.7259   -5.3080   18.4485 C   0  0  0  0  0  0  0  0  0  0  0  0
    9.4578   -5.0200   16.3036 N   0  0  0  0  0  0  0  0  0  0  0  0
    5.0287   -8.9365   16.8223 C   0  0  0  0  0  0  0  0  0  0  0  0
    8.7742   -6.1498   16.6764 C   0  0  0  0  0  0  0  0  0  0  0  0
   10.9418   -3.4032   21.2053 O   0  0  0  0  0  0  0  0  0  0  0  0
    1.4797   -8.6258   16.2950 C   0  0  0  0  0  0  0  0  0  0  0  0
    9.2861   -1.2743   25.3585 C   0  0  0  0  0  0  0  0  0  0  0  0
    1.8892  -10.3985   17.7511 N   0  0  0  0  0  0  0  0  0  0  0  0
    9.6210   -0.6952   24.0976 C   0  0  0  0  0  0  0  0  0  0  0  0
    7.0792   -9.0217   17.1429 C   0  0  0  0  0  0  0  0  0  0  0  0
    3.1713  -10.1816   17.6634 C   0  0  0  0  0  0  0  0  0  0  0  0
    2.7878   -8.3822   16.2137 C   0  0  0  0  0  0  0  0  0  0  0  0
    9.4601   -2.6590   25.6528 C   0  0  0  0  0  0  0  0  0  0  0  0
   10.1182   -1.5672   23.1165 C   0  0  0  0  0  0  0  0  0  0  0  0
    1.0552   -9.6360   17.0650 C   0  0  0  0  0  0  0  0  0  0  0  0
    3.6519   -9.1783   16.9039 C   0  0  0  0  0  0  0  0  0  0  0  0
    7.8675   -7.0096   15.9415 C   0  0  0  0  0  0  0  0  0  0  0  0
    5.9733   -9.6553   17.3832 N   0  0  0  0  0  0  0  0  0  0  0  0
   10.2411   -2.9363   23.4301 C   0  0  0  0  0  0  0  0  0  0  0  0
   10.7288   -3.8197   19.9525 C   0  0  0  0  0  0  0  0  0  0  0  0
   10.1189   -5.0054   19.6987 C   0  0  0  0  0  0  0  0  0  0  0  0
  1  3  4  0
  1  7  4  0
  2 21  4  0
  2 27  4  0
  3  9  4  0
  3 10  4  0
  4  8  4  0
  4 18  4  0
  4 25  1  0
  5  9  4  0
  5 12  4  0
  6 13  1  0
  6 27  1  0
  7 28  4  0
  8 11  4  0
  9 29  4  0
 10 12  4  0
 11 24  1  0
 11 26  4  0
 12 25  1  0
 13 28  1  0
 14 20  4  0
 14 23  4  0
 15 17  4  0
 15 21  4  0
 16 19  4  0
 16 23  4  0
 17 22  4  0
 18 26  4  0
 19 24  4  0
 20 24  4  0
 22 27  4  0
 28 29  4  0
M  END
$$$$

 Created by Python create_sdf_string function

 29 33  0  0  0  0  0  0  0  0999 V2000
   10.7215   -3.3326   17.6437 C   0  0  0  0  0  0  0  0  0  0  0  0
    9.9489   -3.4675   24.6487 N   0  0  0  0  0  0  0  0  0  0  0  0
   10.0172   -4.4740   17.4101 C   0  0  0  0  0  0  0  0  0  0  0  0
    6.9051   -7.9575   16.4222 C   0  0  0  0  0  0  0  0  0  0  0  0
    8.9969   -6.3552   17.9668 N   0  0  0  0  0  0  0  0  0  0  0  0
   10.6702   -3.9051   22.4070 C   0  0  0  0  0  0  0  0  0  0  0  0
   11.0625   -3.0028   18.8894 C   0  0  0  0  0  0  0  0  0  0  0  0
    5.6180   -7.9194   16.1754 O   0  0  0  0  0  0  0  0  0  0  0  0
    9.7259   -5.3080   18.4485 C   0  0  0  0  0  0  0  0  0  0  0  0
    9.4578   -5.0200   16.3036 N   0  0  0  0  0  0  0  0  0  0  0  0
    5.0287   -8.9365   16.8223 C   0  0  0  0  0  0  0  0  0  0  0  0
    8.7742   -6.1498   16.6764 C   0  0  0  0  0  0  0  0  0  0  0  0
   10.9418   -3.4032   21.2053 O   0  0  0  0  0  0  0  0  0  0  0  0
    1.4797   -8.6258   16.2950 C   0  0  0  0  0  0  0  0  0  0  0  0
    9.2861   -1.2743   25.3585 C   0  0  0  0  0  0  0  0  0  0  0  0
    1.8892  -10.3985   17.7511 N   0  0  0  0  0  0  0  0  0  0  0  0
    9.6210   -0.6952   24.0976 C   0  0  0  0  0  0  0  0  0  0  0  0
    7.0792   -9.0217   17.1429 C   0  0  0  0  0  0  0  0  0  0  0  0
    3.1713  -10.1816   17.6634 C   0  0  0  0  0  0  0  0  0  0  0  0
    2.7878   -8.3822   16.2137 C   0  0  0  0  0  0  0  0  0  0  0  0
    9.4601   -2.6590   25.6528 C   0  0  0  0  0  0  0  0  0  0  0  0
   10.1182   -1.5672   23.1165 C   0  0  0  0  0  0  0  0  0  0  0  0
    1.0552   -9.6360   17.0650 C   0  0  0  0  0  0  0  0  0  0  0  0
    3.6519   -9.1783   16.9039 C   0  0  0  0  0  0  0  0  0  0  0  0
    7.8675   -7.0096   15.9415 C   0  0  0  0  0  0  0  0  0  0  0  0
    5.9733   -9.6553   17.3832 N   0  0  0  0  0  0  0  0  0  0  0  0
   10.2411   -2.9363   23.4301 C   0  0  0  0  0  0  0  0  0  0  0  0
   10.7288   -3.8197   19.9525 C   0  0  0  0  0  0  0  0  0  0  0  0
   10.1189   -5.0054   19.6987 C   0  0  0  0  0  0  0  0  0  0  0  0
  1  3  4  0
  1  7  4  0
  2 21  4  0
  2 27  4  0
  3  9  4  0
  3 10  4  0
  4  8  4  0
  4 18  4  0
  4 25  1  0
  5  9  4  0
  5 12  4  0
  6 13  1  0
  6 27  1  0
  7 28  4  0
  8 11  4  0
  9 29  4  0
 10 12  4  0
 11 24  1  0
 11 26  4  0
 12 25  1  0
 13 28  1  0
 14 20  4  0
 14 23  4  0
 15 17  4  0
 15 21  4  0
 16 19  4  0
 16 23  4  0
 17 22  4  0
 18 26  4  0
 19 24  4  0
 20 24  4  0
 22 27  4  0
 28 29  4  0
M  END
$$$$

 Created by Python create_sdf_string function

 29 33  0  0  0  0  0  0  0  0999 V2000
   10.7215   -3.3326   17.6437 C   0  0  0  0  0  0  0  0  0  0  0  0
    9.9489   -3.4675   24.6487 N   0  0  0  0  0  0  0  0  0  0  0  0
   10.0172   -4.4740   17.4101 C   0  0  0  0  0  0  0  0  0  0  0  0
    6.9051   -7.9575   16.4222 C   0  0  0  0  0  0  0  0  0  0  0  0
    8.9969   -6.3552   17.9668 N   0  0  0  0  0  0  0  0  0  0  0  0
   10.6702   -3.9051   22.4070 C   0  0  0  0  0  0  0  0  0  0  0  0
   11.0625   -3.0028   18.8894 C   0  0  0  0  0  0  0  0  0  0  0  0
    5.6180   -7.9194   16.1754 O   0  0  0  0  0  0  0  0  0  0  0  0
    9.7259   -5.3080   18.4485 C   0  0  0  0  0  0  0  0  0  0  0  0
    9.4578   -5.0200   16.3036 N   0  0  0  0  0  0  0  0  0  0  0  0
    5.0287   -8.9365   16.8223 C   0  0  0  0  0  0  0  0  0  0  0  0
    8.7742   -6.1498   16.6764 C   0  0  0  0  0  0  0  0  0  0  0  0
   10.9418   -3.4032   21.2053 O   0  0  0  0  0  0  0  0  0  0  0  0
    1.4797   -8.6258   16.2950 C   0  0  0  0  0  0  0  0  0  0  0  0
    9.2861   -1.2743   25.3585 C   0  0  0  0  0  0  0  0  0  0  0  0
    1.8892  -10.3985   17.7511 N   0  0  0  0  0  0  0  0  0  0  0  0
    9.6210   -0.6952   24.0976 C   0  0  0  0  0  0  0  0  0  0  0  0
    7.0792   -9.0217   17.1429 C   0  0  0  0  0  0  0  0  0  0  0  0
    3.1713  -10.1816   17.6634 C   0  0  0  0  0  0  0  0  0  0  0  0
    2.7878   -8.3822   16.2137 C   0  0  0  0  0  0  0  0  0  0  0  0
    9.4601   -2.6590   25.6528 C   0  0  0  0  0  0  0  0  0  0  0  0
   10.1182   -1.5672   23.1165 C   0  0  0  0  0  0  0  0  0  0  0  0
    1.0552   -9.6360   17.0650 C   0  0  0  0  0  0  0  0  0  0  0  0
    3.6519   -9.1783   16.9039 C   0  0  0  0  0  0  0  0  0  0  0  0
    7.8675   -7.0096   15.9415 C   0  0  0  0  0  0  0  0  0  0  0  0
    5.9733   -9.6553   17.3832 N   0  0  0  0  0  0  0  0  0  0  0  0
   10.2411   -2.9363   23.4301 C   0  0  0  0  0  0  0  0  0  0  0  0
   10.7288   -3.8197   19.9525 C   0  0  0  0  0  0  0  0  0  0  0  0
   10.1189   -5.0054   19.6987 C   0  0  0  0  0  0  0  0  0  0  0  0
  1  3  4  0
  1  7  4  0
  2 21  4  0
  2 27  4  0
  3  9  4  0
  3 10  4  0
  4  8  4  0
  4 18  4  0
  4 25  1  0
  5  9  4  0
  5 12  4  0
  6 13  1  0
  6 27  1  0
  7 28  4  0
  8 11  4  0
  9 29  4  0
 10 12  4  0
 11 24  1  0
 11 26  4  0
 12 25  1  0
 13 28  1  0
 14 20  4  0
 14 23  4  0
 15 17  4  0
 15 21  4  0
 16 19  4  0
 16 23  4  0
 17 22  4  0
 18 26  4  0
 19 24  4  0
 20 24  4  0
 22 27  4  0
 28 29  4  0
M  END
$$$$

 Created by Python create_sdf_string function

 29 33  0  0  0  0  0  0  0  0999 V2000
   10.7215   -3.3326   17.6437 C   0  0  0  0  0  0  0  0  0  0  0  0
    9.9489   -3.4675   24.6487 N   0  0  0  0  0  0  0  0  0  0  0  0
   10.0172   -4.4740   17.4101 C   0  0  0  0  0  0  0  0  0  0  0  0
    6.9051   -7.9575   16.4222 C   0  0  0  0  0  0  0  0  0  0  0  0
    8.9969   -6.3552   17.9668 N   0  0  0  0  0  0  0  0  0  0  0  0
   10.6702   -3.9051   22.4070 C   0  0  0  0  0  0  0  0  0  0  0  0
   11.0625   -3.0028   18.8894 C   0  0  0  0  0  0  0  0  0  0  0  0
    5.6180   -7.9194   16.1754 O   0  0  0  0  0  0  0  0  0  0  0  0
    9.7259   -5.3080   18.4485 C   0  0  0  0  0  0  0  0  0  0  0  0
    9.4578   -5.0200   16.3036 N   0  0  0  0  0  0  0  0  0  0  0  0
    5.0287   -8.9365   16.8223 C   0  0  0  0  0  0  0  0  0  0  0  0
    8.7742   -6.1498   16.6764 C   0  0  0  0  0  0  0  0  0  0  0  0
   10.9418   -3.4032   21.2053 O   0  0  0  0  0  0  0  0  0  0  0  0
    1.4797   -8.6258   16.2950 C   0  0  0  0  0  0  0  0  0  0  0  0
    9.2861   -1.2743   25.3585 C   0  0  0  0  0  0  0  0  0  0  0  0
    1.8892  -10.3985   17.7511 N   0  0  0  0  0  0  0  0  0  0  0  0
    9.6210   -0.6952   24.0976 C   0  0  0  0  0  0  0  0  0  0  0  0
    7.0792   -9.0217   17.1429 C   0  0  0  0  0  0  0  0  0  0  0  0
    3.1713  -10.1816   17.6634 C   0  0  0  0  0  0  0  0  0  0  0  0
    2.7878   -8.3822   16.2137 C   0  0  0  0  0  0  0  0  0  0  0  0
    9.4601   -2.6590   25.6528 C   0  0  0  0  0  0  0  0  0  0  0  0
   10.1182   -1.5672   23.1165 C   0  0  0  0  0  0  0  0  0  0  0  0
    1.0552   -9.6360   17.0650 C   0  0  0  0  0  0  0  0  0  0  0  0
    3.6519   -9.1783   16.9039 C   0  0  0  0  0  0  0  0  0  0  0  0
    7.8675   -7.0096   15.9415 C   0  0  0  0  0  0  0  0  0  0  0  0
    5.9733   -9.6553   17.3832 N   0  0  0  0  0  0  0  0  0  0  0  0
   10.2411   -2.9363   23.4301 C   0  0  0  0  0  0  0  0  0  0  0  0
   10.7288   -3.8197   19.9525 C   0  0  0  0  0  0  0  0  0  0  0  0
   10.1189   -5.0054   19.6987 C   0  0  0  0  0  0  0  0  0  0  0  0
  1  3  4  0
  1  7  4  0
  2 21  4  0
  2 27  4  0
  3  9  4  0
  3 10  4  0
  4  8  4  0
  4 18  4  0
  4 25  1  0
  5  9  4  0
  5 12  4  0
  6 13  1  0
  6 27  1  0
  7 28  4  0
  8 11  4  0
  9 29  4  0
 10 12  4  0
 11 24  1  0
 11 26  4  0
 12 25  1  0
 13 28  1  0
 14 20  4  0
 14 23  4  0
 15 17  4  0
 15 21  4  0
 16 19  4  0
 16 23  4  0
 17 22  4  0
 18 26  4  0
 19 24  4  0
 20 24  4  0
 22 27  4  0
 28 29  4  0
M  END
$$$$

 Created by Python create_sdf_string function

 29 33  0  0  0  0  0  0  0  0999 V2000
   10.7215   -3.3326   17.6437 C   0  0  0  0  0  0  0  0  0  0  0  0
    9.9489   -3.4675   24.6487 N   0  0  0  0  0  0  0  0  0  0  0  0
   10.0172   -4.4740   17.4101 C   0  0  0  0  0  0  0  0  0  0  0  0
    6.9051   -7.9575   16.4222 C   0  0  0  0  0  0  0  0  0  0  0  0
    8.9969   -6.3552   17.9668 N   0  0  0  0  0  0  0  0  0  0  0  0
   10.6702   -3.9051   22.4070 C   0  0  0  0  0  0  0  0  0  0  0  0
   11.0625   -3.0028   18.8894 C   0  0  0  0  0  0  0  0  0  0  0  0
    5.6180   -7.9194   16.1754 O   0  0  0  0  0  0  0  0  0  0  0  0
    9.7259   -5.3080   18.4485 C   0  0  0  0  0  0  0  0  0  0  0  0
    9.4578   -5.0200   16.3036 N   0  0  0  0  0  0  0  0  0  0  0  0
    5.0287   -8.9365   16.8223 C   0  0  0  0  0  0  0  0  0  0  0  0
    8.7742   -6.1498   16.6764 C   0  0  0  0  0  0  0  0  0  0  0  0
   10.9418   -3.4032   21.2053 O   0  0  0  0  0  0  0  0  0  0  0  0
    1.4797   -8.6258   16.2950 C   0  0  0  0  0  0  0  0  0  0  0  0
    9.2861   -1.2743   25.3585 C   0  0  0  0  0  0  0  0  0  0  0  0
    1.8892  -10.3985   17.7511 N   0  0  0  0  0  0  0  0  0  0  0  0
    9.6210   -0.6952   24.0976 C   0  0  0  0  0  0  0  0  0  0  0  0
    7.0792   -9.0217   17.1429 C   0  0  0  0  0  0  0  0  0  0  0  0
    3.1713  -10.1816   17.6634 C   0  0  0  0  0  0  0  0  0  0  0  0
    2.7878   -8.3822   16.2137 C   0  0  0  0  0  0  0  0  0  0  0  0
    9.4601   -2.6590   25.6528 C   0  0  0  0  0  0  0  0  0  0  0  0
   10.1182   -1.5672   23.1165 C   0  0  0  0  0  0  0  0  0  0  0  0
    1.0552   -9.6360   17.0650 C   0  0  0  0  0  0  0  0  0  0  0  0
    3.6519   -9.1783   16.9039 C   0  0  0  0  0  0  0  0  0  0  0  0
    7.8675   -7.0096   15.9415 C   0  0  0  0  0  0  0  0  0  0  0  0
    5.9733   -9.6553   17.3832 N   0  0  0  0  0  0  0  0  0  0  0  0
   10.2411   -2.9363   23.4301 C   0  0  0  0  0  0  0  0  0  0  0  0
   10.7288   -3.8197   19.9525 C   0  0  0  0  0  0  0  0  0  0  0  0
   10.1189   -5.0054   19.6987 C   0  0  0  0  0  0  0  0  0  0  0  0
  1  3  4  0
  1  7  4  0
  2 21  4  0
  2 27  4  0
  3  9  4  0
  3 10  4  0
  4  8  4  0
  4 18  4  0
  4 25  1  0
  5  9  4  0
  5 12  4  0
  6 13  1  0
  6 27  1  0
  7 28  4  0
  8 11  4  0
  9 29  4  0
 10 12  4  0
 11 24  1  0
 11 26  4  0
 12 25  1  0
 13 28  1  0
 14 20  4  0
 14 23  4  0
 15 17  4  0
 15 21  4  0
 16 19  4  0
 16 23  4  0
 17 22  4  0
 18 26  4  0
 19 24  4  0
 20 24  4  0
 22 27  4  0
 28 29  4  0
M  END
$$$$

 Created by Python create_sdf_string function

 29 33  0  0  0  0  0  0  0  0999 V2000
   10.7215   -3.3326   17.6437 C   0  0  0  0  0  0  0  0  0  0  0  0
    9.9489   -3.4675   24.6487 N   0  0  0  0  0  0  0  0  0  0  0  0
   10.0172   -4.4740   17.4101 C   0  0  0  0  0  0  0  0  0  0  0  0
    6.9051   -7.9575   16.4222 C   0  0  0  0  0  0  0  0  0  0  0  0
    8.9969   -6.3552   17.9668 N   0  0  0  0  0  0  0  0  0  0  0  0
   10.6702   -3.9051   22.4070 C   0  0  0  0  0  0  0  0  0  0  0  0
   11.0625   -3.0028   18.8894 C   0  0  0  0  0  0  0  0  0  0  0  0
    5.6180   -7.9194   16.1754 O   0  0  0  0  0  0  0  0  0  0  0  0
    9.7259   -5.3080   18.4485 C   0  0  0  0  0  0  0  0  0  0  0  0
    9.4578   -5.0200   16.3036 N   0  0  0  0  0  0  0  0  0  0  0  0
    5.0287   -8.9365   16.8223 C   0  0  0  0  0  0  0  0  0  0  0  0
    8.7742   -6.1498   16.6764 C   0  0  0  0  0  0  0  0  0  0  0  0
   10.9418   -3.4032   21.2053 O   0  0  0  0  0  0  0  0  0  0  0  0
    1.4797   -8.6258   16.2950 C   0  0  0  0  0  0  0  0  0  0  0  0
    9.2861   -1.2743   25.3585 C   0  0  0  0  0  0  0  0  0  0  0  0
    1.8892  -10.3985   17.7511 N   0  0  0  0  0  0  0  0  0  0  0  0
    9.6210   -0.6952   24.0976 C   0  0  0  0  0  0  0  0  0  0  0  0
    7.0792   -9.0217   17.1429 C   0  0  0  0  0  0  0  0  0  0  0  0
    3.1713  -10.1816   17.6634 C   0  0  0  0  0  0  0  0  0  0  0  0
    2.7878   -8.3822   16.2137 C   0  0  0  0  0  0  0  0  0  0  0  0
    9.4601   -2.6590   25.6528 C   0  0  0  0  0  0  0  0  0  0  0  0
   10.1182   -1.5672   23.1165 C   0  0  0  0  0  0  0  0  0  0  0  0
    1.0552   -9.6360   17.0650 C   0  0  0  0  0  0  0  0  0  0  0  0
    3.6519   -9.1783   16.9039 C   0  0  0  0  0  0  0  0  0  0  0  0
    7.8675   -7.0096   15.9415 C   0  0  0  0  0  0  0  0  0  0  0  0
    5.9733   -9.6553   17.3832 N   0  0  0  0  0  0  0  0  0  0  0  0
   10.2411   -2.9363   23.4301 C   0  0  0  0  0  0  0  0  0  0  0  0
   10.7288   -3.8197   19.9525 C   0  0  0  0  0  0  0  0  0  0  0  0
   10.1189   -5.0054   19.6987 C   0  0  0  0  0  0  0  0  0  0  0  0
  1  3  4  0
  1  7  4  0
  2 21  4  0
  2 27  4  0
  3  9  4  0
  3 10  4  0
  4  8  4  0
  4 18  4  0
  4 25  1  0
  5  9  4  0
  5 12  4  0
  6 13  1  0
  6 27  1  0
  7 28  4  0
  8 11  4  0
  9 29  4  0
 10 12  4  0
 11 24  1  0
 11 26  4  0
 12 25  1  0
 13 28  1  0
 14 20  4  0
 14 23  4  0
 15 17  4  0
 15 21  4  0
 16 19  4  0
 16 23  4  0
 17 22  4  0
 18 26  4  0
 19 24  4  0
 20 24  4  0
 22 27  4  0
 28 29  4  0
M  END
$$$$

 Created by Python create_sdf_string function

 29 33  0  0  0  0  0  0  0  0999 V2000
   10.7215   -3.3326   17.6437 C   0  0  0  0  0  0  0  0  0  0  0  0
    9.9489   -3.4675   24.6487 N   0  0  0  0  0  0  0  0  0  0  0  0
   10.0172   -4.4740   17.4101 C   0  0  0  0  0  0  0  0  0  0  0  0
    6.9051   -7.9575   16.4222 C   0  0  0  0  0  0  0  0  0  0  0  0
    8.9969   -6.3552   17.9668 N   0  0  0  0  0  0  0  0  0  0  0  0
   10.6702   -3.9051   22.4070 C   0  0  0  0  0  0  0  0  0  0  0  0
   11.0625   -3.0028   18.8894 C   0  0  0  0  0  0  0  0  0  0  0  0
    5.6180   -7.9194   16.1754 O   0  0  0  0  0  0  0  0  0  0  0  0
    9.7259   -5.3080   18.4485 C   0  0  0  0  0  0  0  0  0  0  0  0
    9.4578   -5.0200   16.3036 N   0  0  0  0  0  0  0  0  0  0  0  0
    5.0287   -8.9365   16.8223 C   0  0  0  0  0  0  0  0  0  0  0  0
    8.7742   -6.1498   16.6764 C   0  0  0  0  0  0  0  0  0  0  0  0
   10.9418   -3.4032   21.2053 O   0  0  0  0  0  0  0  0  0  0  0  0
    1.4797   -8.6258   16.2950 C   0  0  0  0  0  0  0  0  0  0  0  0
    9.2861   -1.2743   25.3585 C   0  0  0  0  0  0  0  0  0  0  0  0
    1.8892  -10.3985   17.7511 N   0  0  0  0  0  0  0  0  0  0  0  0
    9.6210   -0.6952   24.0976 C   0  0  0  0  0  0  0  0  0  0  0  0
    7.0792   -9.0217   17.1429 C   0  0  0  0  0  0  0  0  0  0  0  0
    3.1713  -10.1816   17.6634 C   0  0  0  0  0  0  0  0  0  0  0  0
    2.7878   -8.3822   16.2137 C   0  0  0  0  0  0  0  0  0  0  0  0
    9.4601   -2.6590   25.6528 C   0  0  0  0  0  0  0  0  0  0  0  0
   10.1182   -1.5672   23.1165 C   0  0  0  0  0  0  0  0  0  0  0  0
    1.0552   -9.6360   17.0650 C   0  0  0  0  0  0  0  0  0  0  0  0
    3.6519   -9.1783   16.9039 C   0  0  0  0  0  0  0  0  0  0  0  0
    7.8675   -7.0096   15.9415 C   0  0  0  0  0  0  0  0  0  0  0  0
    5.9733   -9.6553   17.3832 N   0  0  0  0  0  0  0  0  0  0  0  0
   10.2411   -2.9363   23.4301 C   0  0  0  0  0  0  0  0  0  0  0  0
   10.7288   -3.8197   19.9525 C   0  0  0  0  0  0  0  0  0  0  0  0
   10.1189   -5.0054   19.6987 C   0  0  0  0  0  0  0  0  0  0  0  0
  1  3  4  0
  1  7  4  0
  2 21  4  0
  2 27  4  0
  3  9  4  0
  3 10  4  0
  4  8  4  0
  4 18  4  0
  4 25  1  0
  5  9  4  0
  5 12  4  0
  6 13  1  0
  6 27  1  0
  7 28  4  0
  8 11  4  0
  9 29  4  0
 10 12  4  0
 11 24  1  0
 11 26  4  0
 12 25  1  0
 13 28  1  0
 14 20  4  0
 14 23  4  0
 15 17  4  0
 15 21  4  0
 16 19  4  0
 16 23  4  0
 17 22  4  0
 18 26  4  0
 19 24  4  0
 20 24  4  0
 22 27  4  0
 28 29  4  0
M  END
$$$$

 Created by Python create_sdf_string function

 29 33  0  0  0  0  0  0  0  0999 V2000
   10.7215   -3.3326   17.6437 C   0  0  0  0  0  0  0  0  0  0  0  0
    9.9489   -3.4675   24.6487 N   0  0  0  0  0  0  0  0  0  0  0  0
   10.0172   -4.4740   17.4101 C   0  0  0  0  0  0  0  0  0  0  0  0
    6.9051   -7.9575   16.4222 C   0  0  0  0  0  0  0  0  0  0  0  0
    8.9969   -6.3552   17.9668 N   0  0  0  0  0  0  0  0  0  0  0  0
   10.6702   -3.9051   22.4070 C   0  0  0  0  0  0  0  0  0  0  0  0
   11.0625   -3.0028   18.8894 C   0  0  0  0  0  0  0  0  0  0  0  0
    5.6180   -7.9194   16.1754 O   0  0  0  0  0  0  0  0  0  0  0  0
    9.7259   -5.3080   18.4485 C   0  0  0  0  0  0  0  0  0  0  0  0
    9.4578   -5.0200   16.3036 N   0  0  0  0  0  0  0  0  0  0  0  0
    5.0287   -8.9365   16.8223 C   0  0  0  0  0  0  0  0  0  0  0  0
    8.7742   -6.1498   16.6764 C   0  0  0  0  0  0  0  0  0  0  0  0
   10.9418   -3.4032   21.2053 O   0  0  0  0  0  0  0  0  0  0  0  0
    1.4797   -8.6258   16.2950 C   0  0  0  0  0  0  0  0  0  0  0  0
    9.2861   -1.2743   25.3585 C   0  0  0  0  0  0  0  0  0  0  0  0
    1.8892  -10.3985   17.7511 N   0  0  0  0  0  0  0  0  0  0  0  0
    9.6210   -0.6952   24.0976 C   0  0  0  0  0  0  0  0  0  0  0  0
    7.0792   -9.0217   17.1429 C   0  0  0  0  0  0  0  0  0  0  0  0
    3.1713  -10.1816   17.6634 C   0  0  0  0  0  0  0  0  0  0  0  0
    2.7878   -8.3822   16.2137 C   0  0  0  0  0  0  0  0  0  0  0  0
    9.4601   -2.6590   25.6528 C   0  0  0  0  0  0  0  0  0  0  0  0
   10.1182   -1.5672   23.1165 C   0  0  0  0  0  0  0  0  0  0  0  0
    1.0552   -9.6360   17.0650 C   0  0  0  0  0  0  0  0  0  0  0  0
    3.6519   -9.1783   16.9039 C   0  0  0  0  0  0  0  0  0  0  0  0
    7.8675   -7.0096   15.9415 C   0  0  0  0  0  0  0  0  0  0  0  0
    5.9733   -9.6553   17.3832 N   0  0  0  0  0  0  0  0  0  0  0  0
   10.2411   -2.9363   23.4301 C   0  0  0  0  0  0  0  0  0  0  0  0
   10.7288   -3.8197   19.9525 C   0  0  0  0  0  0  0  0  0  0  0  0
   10.1189   -5.0054   19.6987 C   0  0  0  0  0  0  0  0  0  0  0  0
  1  3  4  0
  1  7  4  0
  2 21  4  0
  2 27  4  0
  3  9  4  0
  3 10  4  0
  4  8  4  0
  4 18  4  0
  4 25  1  0
  5  9  4  0
  5 12  4  0
  6 13  1  0
  6 27  1  0
  7 28  4  0
  8 11  4  0
  9 29  4  0
 10 12  4  0
 11 24  1  0
 11 26  4  0
 12 25  1  0
 13 28  1  0
 14 20  4  0
 14 23  4  0
 15 17  4  0
 15 21  4  0
 16 19  4  0
 16 23  4  0
 17 22  4  0
 18 26  4  0
 19 24  4  0
 20 24  4  0
 22 27  4  0
 28 29  4  0
M  END
$$$$

 Created by Python create_sdf_string function

 29 33  0  0  0  0  0  0  0  0999 V2000
   10.7215   -3.3326   17.6437 C   0  0  0  0  0  0  0  0  0  0  0  0
    9.9489   -3.4675   24.6487 N   0  0  0  0  0  0  0  0  0  0  0  0
   10.0172   -4.4740   17.4101 C   0  0  0  0  0  0  0  0  0  0  0  0
    6.9051   -7.9575   16.4222 C   0  0  0  0  0  0  0  0  0  0  0  0
    8.9969   -6.3552   17.9668 N   0  0  0  0  0  0  0  0  0  0  0  0
   10.6702   -3.9051   22.4070 C   0  0  0  0  0  0  0  0  0  0  0  0
   11.0625   -3.0028   18.8894 C   0  0  0  0  0  0  0  0  0  0  0  0
    5.6180   -7.9194   16.1754 O   0  0  0  0  0  0  0  0  0  0  0  0
    9.7259   -5.3080   18.4485 C   0  0  0  0  0  0  0  0  0  0  0  0
    9.4578   -5.0200   16.3036 N   0  0  0  0  0  0  0  0  0  0  0  0
    5.0287   -8.9365   16.8223 C   0  0  0  0  0  0  0  0  0  0  0  0
    8.7742   -6.1498   16.6764 C   0  0  0  0  0  0  0  0  0  0  0  0
   10.9418   -3.4032   21.2053 O   0  0  0  0  0  0  0  0  0  0  0  0
    1.4797   -8.6258   16.2950 C   0  0  0  0  0  0  0  0  0  0  0  0
    9.2861   -1.2743   25.3585 C   0  0  0  0  0  0  0  0  0  0  0  0
    1.8892  -10.3985   17.7511 N   0  0  0  0  0  0  0  0  0  0  0  0
    9.6210   -0.6952   24.0976 C   0  0  0  0  0  0  0  0  0  0  0  0
    7.0792   -9.0217   17.1429 C   0  0  0  0  0  0  0  0  0  0  0  0
    3.1713  -10.1816   17.6634 C   0  0  0  0  0  0  0  0  0  0  0  0
    2.7878   -8.3822   16.2137 C   0  0  0  0  0  0  0  0  0  0  0  0
    9.4601   -2.6590   25.6528 C   0  0  0  0  0  0  0  0  0  0  0  0
   10.1182   -1.5672   23.1165 C   0  0  0  0  0  0  0  0  0  0  0  0
    1.0552   -9.6360   17.0650 C   0  0  0  0  0  0  0  0  0  0  0  0
    3.6519   -9.1783   16.9039 C   0  0  0  0  0  0  0  0  0  0  0  0
    7.8675   -7.0096   15.9415 C   0  0  0  0  0  0  0  0  0  0  0  0
    5.9733   -9.6553   17.3832 N   0  0  0  0  0  0  0  0  0  0  0  0
   10.2411   -2.9363   23.4301 C   0  0  0  0  0  0  0  0  0  0  0  0
   10.7288   -3.8197   19.9525 C   0  0  0  0  0  0  0  0  0  0  0  0
   10.1189   -5.0054   19.6987 C   0  0  0  0  0  0  0  0  0  0  0  0
  1  3  4  0
  1  7  4  0
  2 21  4  0
  2 27  4  0
  3  9  4  0
  3 10  4  0
  4  8  4  0
  4 18  4  0
  4 25  1  0
  5  9  4  0
  5 12  4  0
  6 13  1  0
  6 27  1  0
  7 28  4  0
  8 11  4  0
  9 29  4  0
 10 12  4  0
 11 24  1  0
 11 26  4  0
 12 25  1  0
 13 28  1  0
 14 20  4  0
 14 23  4  0
 15 17  4  0
 15 21  4  0
 16 19  4  0
 16 23  4  0
 17 22  4  0
 18 26  4  0
 19 24  4  0
 20 24  4  0
 22 27  4  0
 28 29  4  0
M  END
$$$$

 Created by Python create_sdf_string function

 29 33  0  0  0  0  0  0  0  0999 V2000
   10.7215   -3.3326   17.6437 C   0  0  0  0  0  0  0  0  0  0  0  0
    9.9489   -3.4675   24.6487 N   0  0  0  0  0  0  0  0  0  0  0  0
   10.0172   -4.4740   17.4101 C   0  0  0  0  0  0  0  0  0  0  0  0
    6.9051   -7.9575   16.4222 C   0  0  0  0  0  0  0  0  0  0  0  0
    8.9969   -6.3552   17.9668 N   0  0  0  0  0  0  0  0  0  0  0  0
   10.6702   -3.9051   22.4070 C   0  0  0  0  0  0  0  0  0  0  0  0
   11.0625   -3.0028   18.8894 C   0  0  0  0  0  0  0  0  0  0  0  0
    5.6180   -7.9194   16.1754 O   0  0  0  0  0  0  0  0  0  0  0  0
    9.7259   -5.3080   18.4485 C   0  0  0  0  0  0  0  0  0  0  0  0
    9.4578   -5.0200   16.3036 N   0  0  0  0  0  0  0  0  0  0  0  0
    5.0287   -8.9365   16.8223 C   0  0  0  0  0  0  0  0  0  0  0  0
    8.7742   -6.1498   16.6764 C   0  0  0  0  0  0  0  0  0  0  0  0
   10.9418   -3.4032   21.2053 O   0  0  0  0  0  0  0  0  0  0  0  0
    1.4797   -8.6258   16.2950 C   0  0  0  0  0  0  0  0  0  0  0  0
    9.2861   -1.2743   25.3585 C   0  0  0  0  0  0  0  0  0  0  0  0
    1.8892  -10.3985   17.7511 N   0  0  0  0  0  0  0  0  0  0  0  0
    9.6210   -0.6952   24.0976 C   0  0  0  0  0  0  0  0  0  0  0  0
    7.0792   -9.0217   17.1429 C   0  0  0  0  0  0  0  0  0  0  0  0
    3.1713  -10.1816   17.6634 C   0  0  0  0  0  0  0  0  0  0  0  0
    2.7878   -8.3822   16.2137 C   0  0  0  0  0  0  0  0  0  0  0  0
    9.4601   -2.6590   25.6528 C   0  0  0  0  0  0  0  0  0  0  0  0
   10.1182   -1.5672   23.1165 C   0  0  0  0  0  0  0  0  0  0  0  0
    1.0552   -9.6360   17.0650 C   0  0  0  0  0  0  0  0  0  0  0  0
    3.6519   -9.1783   16.9039 C   0  0  0  0  0  0  0  0  0  0  0  0
    7.8675   -7.0096   15.9415 C   0  0  0  0  0  0  0  0  0  0  0  0
    5.9733   -9.6553   17.3832 N   0  0  0  0  0  0  0  0  0  0  0  0
   10.2411   -2.9363   23.4301 C   0  0  0  0  0  0  0  0  0  0  0  0
   10.7288   -3.8197   19.9525 C   0  0  0  0  0  0  0  0  0  0  0  0
   10.1189   -5.0054   19.6987 C   0  0  0  0  0  0  0  0  0  0  0  0
  1  3  4  0
  1  7  4  0
  2 21  4  0
  2 27  4  0
  3  9  4  0
  3 10  4  0
  4  8  4  0
  4 18  4  0
  4 25  1  0
  5  9  4  0
  5 12  4  0
  6 13  1  0
  6 27  1  0
  7 28  4  0
  8 11  4  0
  9 29  4  0
 10 12  4  0
 11 24  1  0
 11 26  4  0
 12 25  1  0
 13 28  1  0
 14 20  4  0
 14 23  4  0
 15 17  4  0
 15 21  4  0
 16 19  4  0
 16 23  4  0
 17 22  4  0
 18 26  4  0
 19 24  4  0
 20 24  4  0
 22 27  4  0
 28 29  4  0
M  END
$$$$

 Created by Python create_sdf_string function

 29 33  0  0  0  0  0  0  0  0999 V2000
   10.7215   -3.3326   17.6437 C   0  0  0  0  0  0  0  0  0  0  0  0
    9.9489   -3.4675   24.6487 N   0  0  0  0  0  0  0  0  0  0  0  0
   10.0172   -4.4740   17.4101 C   0  0  0  0  0  0  0  0  0  0  0  0
    6.9051   -7.9575   16.4222 C   0  0  0  0  0  0  0  0  0  0  0  0
    8.9969   -6.3552   17.9668 N   0  0  0  0  0  0  0  0  0  0  0  0
   10.6702   -3.9051   22.4070 C   0  0  0  0  0  0  0  0  0  0  0  0
   11.0625   -3.0028   18.8894 C   0  0  0  0  0  0  0  0  0  0  0  0
    5.6180   -7.9194   16.1754 O   0  0  0  0  0  0  0  0  0  0  0  0
    9.7259   -5.3080   18.4485 C   0  0  0  0  0  0  0  0  0  0  0  0
    9.4578   -5.0200   16.3036 N   0  0  0  0  0  0  0  0  0  0  0  0
    5.0287   -8.9365   16.8223 C   0  0  0  0  0  0  0  0  0  0  0  0
    8.7742   -6.1498   16.6764 C   0  0  0  0  0  0  0  0  0  0  0  0
   10.9418   -3.4032   21.2053 O   0  0  0  0  0  0  0  0  0  0  0  0
    1.4797   -8.6258   16.2950 C   0  0  0  0  0  0  0  0  0  0  0  0
    9.2861   -1.2743   25.3585 C   0  0  0  0  0  0  0  0  0  0  0  0
    1.8892  -10.3985   17.7511 N   0  0  0  0  0  0  0  0  0  0  0  0
    9.6210   -0.6952   24.0976 C   0  0  0  0  0  0  0  0  0  0  0  0
    7.0792   -9.0217   17.1429 C   0  0  0  0  0  0  0  0  0  0  0  0
    3.1713  -10.1816   17.6634 C   0  0  0  0  0  0  0  0  0  0  0  0
    2.7878   -8.3822   16.2137 C   0  0  0  0  0  0  0  0  0  0  0  0
    9.4601   -2.6590   25.6528 C   0  0  0  0  0  0  0  0  0  0  0  0
   10.1182   -1.5672   23.1165 C   0  0  0  0  0  0  0  0  0  0  0  0
    1.0552   -9.6360   17.0650 C   0  0  0  0  0  0  0  0  0  0  0  0
    3.6519   -9.1783   16.9039 C   0  0  0  0  0  0  0  0  0  0  0  0
    7.8675   -7.0096   15.9415 C   0  0  0  0  0  0  0  0  0  0  0  0
    5.9733   -9.6553   17.3832 N   0  0  0  0  0  0  0  0  0  0  0  0
   10.2411   -2.9363   23.4301 C   0  0  0  0  0  0  0  0  0  0  0  0
   10.7288   -3.8197   19.9525 C   0  0  0  0  0  0  0  0  0  0  0  0
   10.1189   -5.0054   19.6987 C   0  0  0  0  0  0  0  0  0  0  0  0
  1  3  4  0
  1  7  4  0
  2 21  4  0
  2 27  4  0
  3  9  4  0
  3 10  4  0
  4  8  4  0
  4 18  4  0
  4 25  1  0
  5  9  4  0
  5 12  4  0
  6 13  1  0
  6 27  1  0
  7 28  4  0
  8 11  4  0
  9 29  4  0
 10 12  4  0
 11 24  1  0
 11 26  4  0
 12 25  1  0
 13 28  1  0
 14 20  4  0
 14 23  4  0
 15 17  4  0
 15 21  4  0
 16 19  4  0
 16 23  4  0
 17 22  4  0
 18 26  4  0
 19 24  4  0
 20 24  4  0
 22 27  4  0
 28 29  4  0
M  END
$$$$

 Created by Python create_sdf_string function

 29 33  0  0  0  0  0  0  0  0999 V2000
   10.7215   -3.3326   17.6437 C   0  0  0  0  0  0  0  0  0  0  0  0
    9.9489   -3.4675   24.6487 N   0  0  0  0  0  0  0  0  0  0  0  0
   10.0172   -4.4740   17.4101 C   0  0  0  0  0  0  0  0  0  0  0  0
    6.9051   -7.9575   16.4222 C   0  0  0  0  0  0  0  0  0  0  0  0
    8.9969   -6.3552   17.9668 N   0  0  0  0  0  0  0  0  0  0  0  0
   10.6702   -3.9051   22.4070 C   0  0  0  0  0  0  0  0  0  0  0  0
   11.0625   -3.0028   18.8894 C   0  0  0  0  0  0  0  0  0  0  0  0
    5.6180   -7.9194   16.1754 O   0  0  0  0  0  0  0  0  0  0  0  0
    9.7259   -5.3080   18.4485 C   0  0  0  0  0  0  0  0  0  0  0  0
    9.4578   -5.0200   16.3036 N   0  0  0  0  0  0  0  0  0  0  0  0
    5.0287   -8.9365   16.8223 C   0  0  0  0  0  0  0  0  0  0  0  0
    8.7742   -6.1498   16.6764 C   0  0  0  0  0  0  0  0  0  0  0  0
   10.9418   -3.4032   21.2053 O   0  0  0  0  0  0  0  0  0  0  0  0
    1.4797   -8.6258   16.2950 C   0  0  0  0  0  0  0  0  0  0  0  0
    9.2861   -1.2743   25.3585 C   0  0  0  0  0  0  0  0  0  0  0  0
    1.8892  -10.3985   17.7511 N   0  0  0  0  0  0  0  0  0  0  0  0
    9.6210   -0.6952   24.0976 C   0  0  0  0  0  0  0  0  0  0  0  0
    7.0792   -9.0217   17.1429 C   0  0  0  0  0  0  0  0  0  0  0  0
    3.1713  -10.1816   17.6634 C   0  0  0  0  0  0  0  0  0  0  0  0
    2.7878   -8.3822   16.2137 C   0  0  0  0  0  0  0  0  0  0  0  0
    9.4601   -2.6590   25.6528 C   0  0  0  0  0  0  0  0  0  0  0  0
   10.1182   -1.5672   23.1165 C   0  0  0  0  0  0  0  0  0  0  0  0
    1.0552   -9.6360   17.0650 C   0  0  0  0  0  0  0  0  0  0  0  0
    3.6519   -9.1783   16.9039 C   0  0  0  0  0  0  0  0  0  0  0  0
    7.8675   -7.0096   15.9415 C   0  0  0  0  0  0  0  0  0  0  0  0
    5.9733   -9.6553   17.3832 N   0  0  0  0  0  0  0  0  0  0  0  0
   10.2411   -2.9363   23.4301 C   0  0  0  0  0  0  0  0  0  0  0  0
   10.7288   -3.8197   19.9525 C   0  0  0  0  0  0  0  0  0  0  0  0
   10.1189   -5.0054   19.6987 C   0  0  0  0  0  0  0  0  0  0  0  0
  1  3  4  0
  1  7  4  0
  2 21  4  0
  2 27  4  0
  3  9  4  0
  3 10  4  0
  4  8  4  0
  4 18  4  0
  4 25  1  0
  5  9  4  0
  5 12  4  0
  6 13  1  0
  6 27  1  0
  7 28  4  0
  8 11  4  0
  9 29  4  0
 10 12  4  0
 11 24  1  0
 11 26  4  0
 12 25  1  0
 13 28  1  0
 14 20  4  0
 14 23  4  0
 15 17  4  0
 15 21  4  0
 16 19  4  0
 16 23  4  0
 17 22  4  0
 18 26  4  0
 19 24  4  0
 20 24  4  0
 22 27  4  0
 28 29  4  0
M  END
$$$$

 Created by Python create_sdf_string function

 29 33  0  0  0  0  0  0  0  0999 V2000
   10.7215   -3.3326   17.6437 C   0  0  0  0  0  0  0  0  0  0  0  0
    9.9489   -3.4675   24.6487 N   0  0  0  0  0  0  0  0  0  0  0  0
   10.0172   -4.4740   17.4101 C   0  0  0  0  0  0  0  0  0  0  0  0
    6.9051   -7.9575   16.4222 C   0  0  0  0  0  0  0  0  0  0  0  0
    8.9969   -6.3552   17.9668 N   0  0  0  0  0  0  0  0  0  0  0  0
   10.6702   -3.9051   22.4070 C   0  0  0  0  0  0  0  0  0  0  0  0
   11.0625   -3.0028   18.8894 C   0  0  0  0  0  0  0  0  0  0  0  0
    5.6180   -7.9194   16.1754 O   0  0  0  0  0  0  0  0  0  0  0  0
    9.7259   -5.3080   18.4485 C   0  0  0  0  0  0  0  0  0  0  0  0
    9.4578   -5.0200   16.3036 N   0  0  0  0  0  0  0  0  0  0  0  0
    5.0287   -8.9365   16.8223 C   0  0  0  0  0  0  0  0  0  0  0  0
    8.7742   -6.1498   16.6764 C   0  0  0  0  0  0  0  0  0  0  0  0
   10.9418   -3.4032   21.2053 O   0  0  0  0  0  0  0  0  0  0  0  0
    1.4797   -8.6258   16.2950 C   0  0  0  0  0  0  0  0  0  0  0  0
    9.2861   -1.2743   25.3585 C   0  0  0  0  0  0  0  0  0  0  0  0
    1.8892  -10.3985   17.7511 N   0  0  0  0  0  0  0  0  0  0  0  0
    9.6210   -0.6952   24.0976 C   0  0  0  0  0  0  0  0  0  0  0  0
    7.0792   -9.0217   17.1429 C   0  0  0  0  0  0  0  0  0  0  0  0
    3.1713  -10.1816   17.6634 C   0  0  0  0  0  0  0  0  0  0  0  0
    2.7878   -8.3822   16.2137 C   0  0  0  0  0  0  0  0  0  0  0  0
    9.4601   -2.6590   25.6528 C   0  0  0  0  0  0  0  0  0  0  0  0
   10.1182   -1.5672   23.1165 C   0  0  0  0  0  0  0  0  0  0  0  0
    1.0552   -9.6360   17.0650 C   0  0  0  0  0  0  0  0  0  0  0  0
    3.6519   -9.1783   16.9039 C   0  0  0  0  0  0  0  0  0  0  0  0
    7.8675   -7.0096   15.9415 C   0  0  0  0  0  0  0  0  0  0  0  0
    5.9733   -9.6553   17.3832 N   0  0  0  0  0  0  0  0  0  0  0  0
   10.2411   -2.9363   23.4301 C   0  0  0  0  0  0  0  0  0  0  0  0
   10.7288   -3.8197   19.9525 C   0  0  0  0  0  0  0  0  0  0  0  0
   10.1189   -5.0054   19.6987 C   0  0  0  0  0  0  0  0  0  0  0  0
  1  3  4  0
  1  7  4  0
  2 21  4  0
  2 27  4  0
  3  9  4  0
  3 10  4  0
  4  8  4  0
  4 18  4  0
  4 25  1  0
  5  9  4  0
  5 12  4  0
  6 13  1  0
  6 27  1  0
  7 28  4  0
  8 11  4  0
  9 29  4  0
 10 12  4  0
 11 24  1  0
 11 26  4  0
 12 25  1  0
 13 28  1  0
 14 20  4  0
 14 23  4  0
 15 17  4  0
 15 21  4  0
 16 19  4  0
 16 23  4  0
 17 22  4  0
 18 26  4  0
 19 24  4  0
 20 24  4  0
 22 27  4  0
 28 29  4  0
M  END
$$$$

 Created by Python create_sdf_string function

 29 33  0  0  0  0  0  0  0  0999 V2000
   10.7215   -3.3326   17.6437 C   0  0  0  0  0  0  0  0  0  0  0  0
    9.9489   -3.4675   24.6487 N   0  0  0  0  0  0  0  0  0  0  0  0
   10.0172   -4.4740   17.4101 C   0  0  0  0  0  0  0  0  0  0  0  0
    6.9051   -7.9575   16.4222 C   0  0  0  0  0  0  0  0  0  0  0  0
    8.9969   -6.3552   17.9668 N   0  0  0  0  0  0  0  0  0  0  0  0
   10.6702   -3.9051   22.4070 C   0  0  0  0  0  0  0  0  0  0  0  0
   11.0625   -3.0028   18.8894 C   0  0  0  0  0  0  0  0  0  0  0  0
    5.6180   -7.9194   16.1754 O   0  0  0  0  0  0  0  0  0  0  0  0
    9.7259   -5.3080   18.4485 C   0  0  0  0  0  0  0  0  0  0  0  0
    9.4578   -5.0200   16.3036 N   0  0  0  0  0  0  0  0  0  0  0  0
    5.0287   -8.9365   16.8223 C   0  0  0  0  0  0  0  0  0  0  0  0
    8.7742   -6.1498   16.6764 C   0  0  0  0  0  0  0  0  0  0  0  0
   10.9418   -3.4032   21.2053 O   0  0  0  0  0  0  0  0  0  0  0  0
    1.4797   -8.6258   16.2950 C   0  0  0  0  0  0  0  0  0  0  0  0
    9.2861   -1.2743   25.3585 C   0  0  0  0  0  0  0  0  0  0  0  0
    1.8892  -10.3985   17.7511 N   0  0  0  0  0  0  0  0  0  0  0  0
    9.6210   -0.6952   24.0976 C   0  0  0  0  0  0  0  0  0  0  0  0
    7.0792   -9.0217   17.1429 C   0  0  0  0  0  0  0  0  0  0  0  0
    3.1713  -10.1816   17.6634 C   0  0  0  0  0  0  0  0  0  0  0  0
    2.7878   -8.3822   16.2137 C   0  0  0  0  0  0  0  0  0  0  0  0
    9.4601   -2.6590   25.6528 C   0  0  0  0  0  0  0  0  0  0  0  0
   10.1182   -1.5672   23.1165 C   0  0  0  0  0  0  0  0  0  0  0  0
    1.0552   -9.6360   17.0650 C   0  0  0  0  0  0  0  0  0  0  0  0
    3.6519   -9.1783   16.9039 C   0  0  0  0  0  0  0  0  0  0  0  0
    7.8675   -7.0096   15.9415 C   0  0  0  0  0  0  0  0  0  0  0  0
    5.9733   -9.6553   17.3832 N   0  0  0  0  0  0  0  0  0  0  0  0
   10.2411   -2.9363   23.4301 C   0  0  0  0  0  0  0  0  0  0  0  0
   10.7288   -3.8197   19.9525 C   0  0  0  0  0  0  0  0  0  0  0  0
   10.1189   -5.0054   19.6987 C   0  0  0  0  0  0  0  0  0  0  0  0
  1  3  4  0
  1  7  4  0
  2 21  4  0
  2 27  4  0
  3  9  4  0
  3 10  4  0
  4  8  4  0
  4 18  4  0
  4 25  1  0
  5  9  4  0
  5 12  4  0
  6 13  1  0
  6 27  1  0
  7 28  4  0
  8 11  4  0
  9 29  4  0
 10 12  4  0
 11 24  1  0
 11 26  4  0
 12 25  1  0
 13 28  1  0
 14 20  4  0
 14 23  4  0
 15 17  4  0
 15 21  4  0
 16 19  4  0
 16 23  4  0
 17 22  4  0
 18 26  4  0
 19 24  4  0
 20 24  4  0
 22 27  4  0
 28 29  4  0
M  END
$$$$

 Created by Python create_sdf_string function

 29 33  0  0  0  0  0  0  0  0999 V2000
   10.7215   -3.3326   17.6437 C   0  0  0  0  0  0  0  0  0  0  0  0
    9.9489   -3.4675   24.6487 N   0  0  0  0  0  0  0  0  0  0  0  0
   10.0172   -4.4740   17.4101 C   0  0  0  0  0  0  0  0  0  0  0  0
    6.9051   -7.9575   16.4222 C   0  0  0  0  0  0  0  0  0  0  0  0
    8.9969   -6.3552   17.9668 N   0  0  0  0  0  0  0  0  0  0  0  0
   10.6702   -3.9051   22.4070 C   0  0  0  0  0  0  0  0  0  0  0  0
   11.0625   -3.0028   18.8894 C   0  0  0  0  0  0  0  0  0  0  0  0
    5.6180   -7.9194   16.1754 O   0  0  0  0  0  0  0  0  0  0  0  0
    9.7259   -5.3080   18.4485 C   0  0  0  0  0  0  0  0  0  0  0  0
    9.4578   -5.0200   16.3036 N   0  0  0  0  0  0  0  0  0  0  0  0
    5.0287   -8.9365   16.8223 C   0  0  0  0  0  0  0  0  0  0  0  0
    8.7742   -6.1498   16.6764 C   0  0  0  0  0  0  0  0  0  0  0  0
   10.9418   -3.4032   21.2053 O   0  0  0  0  0  0  0  0  0  0  0  0
    1.4797   -8.6258   16.2950 C   0  0  0  0  0  0  0  0  0  0  0  0
    9.2861   -1.2743   25.3585 C   0  0  0  0  0  0  0  0  0  0  0  0
    1.8892  -10.3985   17.7511 N   0  0  0  0  0  0  0  0  0  0  0  0
    9.6210   -0.6952   24.0976 C   0  0  0  0  0  0  0  0  0  0  0  0
    7.0792   -9.0217   17.1429 C   0  0  0  0  0  0  0  0  0  0  0  0
    3.1713  -10.1816   17.6634 C   0  0  0  0  0  0  0  0  0  0  0  0
    2.7878   -8.3822   16.2137 C   0  0  0  0  0  0  0  0  0  0  0  0
    9.4601   -2.6590   25.6528 C   0  0  0  0  0  0  0  0  0  0  0  0
   10.1182   -1.5672   23.1165 C   0  0  0  0  0  0  0  0  0  0  0  0
    1.0552   -9.6360   17.0650 C   0  0  0  0  0  0  0  0  0  0  0  0
    3.6519   -9.1783   16.9039 C   0  0  0  0  0  0  0  0  0  0  0  0
    7.8675   -7.0096   15.9415 C   0  0  0  0  0  0  0  0  0  0  0  0
    5.9733   -9.6553   17.3832 N   0  0  0  0  0  0  0  0  0  0  0  0
   10.2411   -2.9363   23.4301 C   0  0  0  0  0  0  0  0  0  0  0  0
   10.7288   -3.8197   19.9525 C   0  0  0  0  0  0  0  0  0  0  0  0
   10.1189   -5.0054   19.6987 C   0  0  0  0  0  0  0  0  0  0  0  0
  1  3  4  0
  1  7  4  0
  2 21  4  0
  2 27  4  0
  3  9  4  0
  3 10  4  0
  4  8  4  0
  4 18  4  0
  4 25  1  0
  5  9  4  0
  5 12  4  0
  6 13  1  0
  6 27  1  0
  7 28  4  0
  8 11  4  0
  9 29  4  0
 10 12  4  0
 11 24  1  0
 11 26  4  0
 12 25  1  0
 13 28  1  0
 14 20  4  0
 14 23  4  0
 15 17  4  0
 15 21  4  0
 16 19  4  0
 16 23  4  0
 17 22  4  0
 18 26  4  0
 19 24  4  0
 20 24  4  0
 22 27  4  0
 28 29  4  0
M  END
$$$$

 Created by Python create_sdf_string function

 29 33  0  0  0  0  0  0  0  0999 V2000
   10.7215   -3.3326   17.6437 C   0  0  0  0  0  0  0  0  0  0  0  0
    9.9489   -3.4675   24.6487 N   0  0  0  0  0  0  0  0  0  0  0  0
   10.0172   -4.4740   17.4101 C   0  0  0  0  0  0  0  0  0  0  0  0
    6.9051   -7.9575   16.4222 C   0  0  0  0  0  0  0  0  0  0  0  0
    8.9969   -6.3552   17.9668 N   0  0  0  0  0  0  0  0  0  0  0  0
   10.6702   -3.9051   22.4070 C   0  0  0  0  0  0  0  0  0  0  0  0
   11.0625   -3.0028   18.8894 C   0  0  0  0  0  0  0  0  0  0  0  0
    5.6180   -7.9194   16.1754 O   0  0  0  0  0  0  0  0  0  0  0  0
    9.7259   -5.3080   18.4485 C   0  0  0  0  0  0  0  0  0  0  0  0
    9.4578   -5.0200   16.3036 N   0  0  0  0  0  0  0  0  0  0  0  0
    5.0287   -8.9365   16.8223 C   0  0  0  0  0  0  0  0  0  0  0  0
    8.7742   -6.1498   16.6764 C   0  0  0  0  0  0  0  0  0  0  0  0
   10.9418   -3.4032   21.2053 O   0  0  0  0  0  0  0  0  0  0  0  0
    1.4797   -8.6258   16.2950 C   0  0  0  0  0  0  0  0  0  0  0  0
    9.2861   -1.2743   25.3585 C   0  0  0  0  0  0  0  0  0  0  0  0
    1.8892  -10.3985   17.7511 N   0  0  0  0  0  0  0  0  0  0  0  0
    9.6210   -0.6952   24.0976 C   0  0  0  0  0  0  0  0  0  0  0  0
    7.0792   -9.0217   17.1429 C   0  0  0  0  0  0  0  0  0  0  0  0
    3.1713  -10.1816   17.6634 C   0  0  0  0  0  0  0  0  0  0  0  0
    2.7878   -8.3822   16.2137 C   0  0  0  0  0  0  0  0  0  0  0  0
    9.4601   -2.6590   25.6528 C   0  0  0  0  0  0  0  0  0  0  0  0
   10.1182   -1.5672   23.1165 C   0  0  0  0  0  0  0  0  0  0  0  0
    1.0552   -9.6360   17.0650 C   0  0  0  0  0  0  0  0  0  0  0  0
    3.6519   -9.1783   16.9039 C   0  0  0  0  0  0  0  0  0  0  0  0
    7.8675   -7.0096   15.9415 C   0  0  0  0  0  0  0  0  0  0  0  0
    5.9733   -9.6553   17.3832 N   0  0  0  0  0  0  0  0  0  0  0  0
   10.2411   -2.9363   23.4301 C   0  0  0  0  0  0  0  0  0  0  0  0
   10.7288   -3.8197   19.9525 C   0  0  0  0  0  0  0  0  0  0  0  0
   10.1189   -5.0054   19.6987 C   0  0  0  0  0  0  0  0  0  0  0  0
  1  3  4  0
  1  7  4  0
  2 21  4  0
  2 27  4  0
  3  9  4  0
  3 10  4  0
  4  8  4  0
  4 18  4  0
  4 25  1  0
  5  9  4  0
  5 12  4  0
  6 13  1  0
  6 27  1  0
  7 28  4  0
  8 11  4  0
  9 29  4  0
 10 12  4  0
 11 24  1  0
 11 26  4  0
 12 25  1  0
 13 28  1  0
 14 20  4  0
 14 23  4  0
 15 17  4  0
 15 21  4  0
 16 19  4  0
 16 23  4  0
 17 22  4  0
 18 26  4  0
 19 24  4  0
 20 24  4  0
 22 27  4  0
 28 29  4  0
M  END
$$$$

 Created by Python create_sdf_string function

 29 33  0  0  0  0  0  0  0  0999 V2000
   10.7215   -3.3326   17.6437 C   0  0  0  0  0  0  0  0  0  0  0  0
    9.9489   -3.4675   24.6487 N   0  0  0  0  0  0  0  0  0  0  0  0
   10.0172   -4.4740   17.4101 C   0  0  0  0  0  0  0  0  0  0  0  0
    6.9051   -7.9575   16.4222 C   0  0  0  0  0  0  0  0  0  0  0  0
    8.9969   -6.3552   17.9668 N   0  0  0  0  0  0  0  0  0  0  0  0
   10.6702   -3.9051   22.4070 C   0  0  0  0  0  0  0  0  0  0  0  0
   11.0625   -3.0028   18.8894 C   0  0  0  0  0  0  0  0  0  0  0  0
    5.6180   -7.9194   16.1754 O   0  0  0  0  0  0  0  0  0  0  0  0
    9.7259   -5.3080   18.4485 C   0  0  0  0  0  0  0  0  0  0  0  0
    9.4578   -5.0200   16.3036 N   0  0  0  0  0  0  0  0  0  0  0  0
    5.0287   -8.9365   16.8223 C   0  0  0  0  0  0  0  0  0  0  0  0
    8.7742   -6.1498   16.6764 C   0  0  0  0  0  0  0  0  0  0  0  0
   10.9418   -3.4032   21.2053 O   0  0  0  0  0  0  0  0  0  0  0  0
    1.4797   -8.6258   16.2950 C   0  0  0  0  0  0  0  0  0  0  0  0
    9.2861   -1.2743   25.3585 C   0  0  0  0  0  0  0  0  0  0  0  0
    1.8892  -10.3985   17.7511 N   0  0  0  0  0  0  0  0  0  0  0  0
    9.6210   -0.6952   24.0976 C   0  0  0  0  0  0  0  0  0  0  0  0
    7.0792   -9.0217   17.1429 C   0  0  0  0  0  0  0  0  0  0  0  0
    3.1713  -10.1816   17.6634 C   0  0  0  0  0  0  0  0  0  0  0  0
    2.7878   -8.3822   16.2137 C   0  0  0  0  0  0  0  0  0  0  0  0
    9.4601   -2.6590   25.6528 C   0  0  0  0  0  0  0  0  0  0  0  0
   10.1182   -1.5672   23.1165 C   0  0  0  0  0  0  0  0  0  0  0  0
    1.0552   -9.6360   17.0650 C   0  0  0  0  0  0  0  0  0  0  0  0
    3.6519   -9.1783   16.9039 C   0  0  0  0  0  0  0  0  0  0  0  0
    7.8675   -7.0096   15.9415 C   0  0  0  0  0  0  0  0  0  0  0  0
    5.9733   -9.6553   17.3832 N   0  0  0  0  0  0  0  0  0  0  0  0
   10.2411   -2.9363   23.4301 C   0  0  0  0  0  0  0  0  0  0  0  0
   10.7288   -3.8197   19.9525 C   0  0  0  0  0  0  0  0  0  0  0  0
   10.1189   -5.0054   19.6987 C   0  0  0  0  0  0  0  0  0  0  0  0
  1  3  4  0
  1  7  4  0
  2 21  4  0
  2 27  4  0
  3  9  4  0
  3 10  4  0
  4  8  4  0
  4 18  4  0
  4 25  1  0
  5  9  4  0
  5 12  4  0
  6 13  1  0
  6 27  1  0
  7 28  4  0
  8 11  4  0
  9 29  4  0
 10 12  4  0
 11 24  1  0
 11 26  4  0
 12 25  1  0
 13 28  1  0
 14 20  4  0
 14 23  4  0
 15 17  4  0
 15 21  4  0
 16 19  4  0
 16 23  4  0
 17 22  4  0
 18 26  4  0
 19 24  4  0
 20 24  4  0
 22 27  4  0
 28 29  4  0
M  END
$$$$

 Created by Python create_sdf_string function

 29 33  0  0  0  0  0  0  0  0999 V2000
   10.7215   -3.3326   17.6437 C   0  0  0  0  0  0  0  0  0  0  0  0
    9.9489   -3.4675   24.6487 N   0  0  0  0  0  0  0  0  0  0  0  0
   10.0172   -4.4740   17.4101 C   0  0  0  0  0  0  0  0  0  0  0  0
    6.9051   -7.9575   16.4222 C   0  0  0  0  0  0  0  0  0  0  0  0
    8.9969   -6.3552   17.9668 N   0  0  0  0  0  0  0  0  0  0  0  0
   10.6702   -3.9051   22.4070 C   0  0  0  0  0  0  0  0  0  0  0  0
   11.0625   -3.0028   18.8894 C   0  0  0  0  0  0  0  0  0  0  0  0
    5.6180   -7.9194   16.1754 O   0  0  0  0  0  0  0  0  0  0  0  0
    9.7259   -5.3080   18.4485 C   0  0  0  0  0  0  0  0  0  0  0  0
    9.4578   -5.0200   16.3036 N   0  0  0  0  0  0  0  0  0  0  0  0
    5.0287   -8.9365   16.8223 C   0  0  0  0  0  0  0  0  0  0  0  0
    8.7742   -6.1498   16.6764 C   0  0  0  0  0  0  0  0  0  0  0  0
   10.9418   -3.4032   21.2053 O   0  0  0  0  0  0  0  0  0  0  0  0
    1.4797   -8.6258   16.2950 C   0  0  0  0  0  0  0  0  0  0  0  0
    9.2861   -1.2743   25.3585 C   0  0  0  0  0  0  0  0  0  0  0  0
    1.8892  -10.3985   17.7511 N   0  0  0  0  0  0  0  0  0  0  0  0
    9.6210   -0.6952   24.0976 C   0  0  0  0  0  0  0  0  0  0  0  0
    7.0792   -9.0217   17.1429 C   0  0  0  0  0  0  0  0  0  0  0  0
    3.1713  -10.1816   17.6634 C   0  0  0  0  0  0  0  0  0  0  0  0
    2.7878   -8.3822   16.2137 C   0  0  0  0  0  0  0  0  0  0  0  0
    9.4601   -2.6590   25.6528 C   0  0  0  0  0  0  0  0  0  0  0  0
   10.1182   -1.5672   23.1165 C   0  0  0  0  0  0  0  0  0  0  0  0
    1.0552   -9.6360   17.0650 C   0  0  0  0  0  0  0  0  0  0  0  0
    3.6519   -9.1783   16.9039 C   0  0  0  0  0  0  0  0  0  0  0  0
    7.8675   -7.0096   15.9415 C   0  0  0  0  0  0  0  0  0  0  0  0
    5.9733   -9.6553   17.3832 N   0  0  0  0  0  0  0  0  0  0  0  0
   10.2411   -2.9363   23.4301 C   0  0  0  0  0  0  0  0  0  0  0  0
   10.7288   -3.8197   19.9525 C   0  0  0  0  0  0  0  0  0  0  0  0
   10.1189   -5.0054   19.6987 C   0  0  0  0  0  0  0  0  0  0  0  0
  1  3  4  0
  1  7  4  0
  2 21  4  0
  2 27  4  0
  3  9  4  0
  3 10  4  0
  4  8  4  0
  4 18  4  0
  4 25  1  0
  5  9  4  0
  5 12  4  0
  6 13  1  0
  6 27  1  0
  7 28  4  0
  8 11  4  0
  9 29  4  0
 10 12  4  0
 11 24  1  0
 11 26  4  0
 12 25  1  0
 13 28  1  0
 14 20  4  0
 14 23  4  0
 15 17  4  0
 15 21  4  0
 16 19  4  0
 16 23  4  0
 17 22  4  0
 18 26  4  0
 19 24  4  0
 20 24  4  0
 22 27  4  0
 28 29  4  0
M  END
$$$$

 Created by Python create_sdf_string function

 29 33  0  0  0  0  0  0  0  0999 V2000
   10.7215   -3.3326   17.6437 C   0  0  0  0  0  0  0  0  0  0  0  0
    9.9489   -3.4675   24.6487 N   0  0  0  0  0  0  0  0  0  0  0  0
   10.0172   -4.4740   17.4101 C   0  0  0  0  0  0  0  0  0  0  0  0
    6.9051   -7.9575   16.4222 C   0  0  0  0  0  0  0  0  0  0  0  0
    8.9969   -6.3552   17.9668 N   0  0  0  0  0  0  0  0  0  0  0  0
   10.6702   -3.9051   22.4070 C   0  0  0  0  0  0  0  0  0  0  0  0
   11.0625   -3.0028   18.8894 C   0  0  0  0  0  0  0  0  0  0  0  0
    5.6180   -7.9194   16.1754 O   0  0  0  0  0  0  0  0  0  0  0  0
    9.7259   -5.3080   18.4485 C   0  0  0  0  0  0  0  0  0  0  0  0
    9.4578   -5.0200   16.3036 N   0  0  0  0  0  0  0  0  0  0  0  0
    5.0287   -8.9365   16.8223 C   0  0  0  0  0  0  0  0  0  0  0  0
    8.7742   -6.1498   16.6764 C   0  0  0  0  0  0  0  0  0  0  0  0
   10.9418   -3.4032   21.2053 O   0  0  0  0  0  0  0  0  0  0  0  0
    1.4797   -8.6258   16.2950 C   0  0  0  0  0  0  0  0  0  0  0  0
    9.2861   -1.2743   25.3585 C   0  0  0  0  0  0  0  0  0  0  0  0
    1.8892  -10.3985   17.7511 N   0  0  0  0  0  0  0  0  0  0  0  0
    9.6210   -0.6952   24.0976 C   0  0  0  0  0  0  0  0  0  0  0  0
    7.0792   -9.0217   17.1429 C   0  0  0  0  0  0  0  0  0  0  0  0
    3.1713  -10.1816   17.6634 C   0  0  0  0  0  0  0  0  0  0  0  0
    2.7878   -8.3822   16.2137 C   0  0  0  0  0  0  0  0  0  0  0  0
    9.4601   -2.6590   25.6528 C   0  0  0  0  0  0  0  0  0  0  0  0
   10.1182   -1.5672   23.1165 C   0  0  0  0  0  0  0  0  0  0  0  0
    1.0552   -9.6360   17.0650 C   0  0  0  0  0  0  0  0  0  0  0  0
    3.6519   -9.1783   16.9039 C   0  0  0  0  0  0  0  0  0  0  0  0
    7.8675   -7.0096   15.9415 C   0  0  0  0  0  0  0  0  0  0  0  0
    5.9733   -9.6553   17.3832 N   0  0  0  0  0  0  0  0  0  0  0  0
   10.2411   -2.9363   23.4301 C   0  0  0  0  0  0  0  0  0  0  0  0
   10.7288   -3.8197   19.9525 C   0  0  0  0  0  0  0  0  0  0  0  0
   10.1189   -5.0054   19.6987 C   0  0  0  0  0  0  0  0  0  0  0  0
  1  3  4  0
  1  7  4  0
  2 21  4  0
  2 27  4  0
  3  9  4  0
  3 10  4  0
  4  8  4  0
  4 18  4  0
  4 25  1  0
  5  9  4  0
  5 12  4  0
  6 13  1  0
  6 27  1  0
  7 28  4  0
  8 11  4  0
  9 29  4  0
 10 12  4  0
 11 24  1  0
 11 26  4  0
 12 25  1  0
 13 28  1  0
 14 20  4  0
 14 23  4  0
 15 17  4  0
 15 21  4  0
 16 19  4  0
 16 23  4  0
 17 22  4  0
 18 26  4  0
 19 24  4  0
 20 24  4  0
 22 27  4  0
 28 29  4  0
M  END
$$$$

 Created by Python create_sdf_string function

 29 33  0  0  0  0  0  0  0  0999 V2000
   10.7215   -3.3326   17.6437 C   0  0  0  0  0  0  0  0  0  0  0  0
    9.9489   -3.4675   24.6487 N   0  0  0  0  0  0  0  0  0  0  0  0
   10.0172   -4.4740   17.4101 C   0  0  0  0  0  0  0  0  0  0  0  0
    6.9051   -7.9575   16.4222 C   0  0  0  0  0  0  0  0  0  0  0  0
    8.9969   -6.3552   17.9668 N   0  0  0  0  0  0  0  0  0  0  0  0
   10.6702   -3.9051   22.4070 C   0  0  0  0  0  0  0  0  0  0  0  0
   11.0625   -3.0028   18.8894 C   0  0  0  0  0  0  0  0  0  0  0  0
    5.6180   -7.9194   16.1754 O   0  0  0  0  0  0  0  0  0  0  0  0
    9.7259   -5.3080   18.4485 C   0  0  0  0  0  0  0  0  0  0  0  0
    9.4578   -5.0200   16.3036 N   0  0  0  0  0  0  0  0  0  0  0  0
    5.0287   -8.9365   16.8223 C   0  0  0  0  0  0  0  0  0  0  0  0
    8.7742   -6.1498   16.6764 C   0  0  0  0  0  0  0  0  0  0  0  0
   10.9418   -3.4032   21.2053 O   0  0  0  0  0  0  0  0  0  0  0  0
    1.4797   -8.6258   16.2950 C   0  0  0  0  0  0  0  0  0  0  0  0
    9.2861   -1.2743   25.3585 C   0  0  0  0  0  0  0  0  0  0  0  0
    1.8892  -10.3985   17.7511 N   0  0  0  0  0  0  0  0  0  0  0  0
    9.6210   -0.6952   24.0976 C   0  0  0  0  0  0  0  0  0  0  0  0
    7.0792   -9.0217   17.1429 C   0  0  0  0  0  0  0  0  0  0  0  0
    3.1713  -10.1816   17.6634 C   0  0  0  0  0  0  0  0  0  0  0  0
    2.7878   -8.3822   16.2137 C   0  0  0  0  0  0  0  0  0  0  0  0
    9.4601   -2.6590   25.6528 C   0  0  0  0  0  0  0  0  0  0  0  0
   10.1182   -1.5672   23.1165 C   0  0  0  0  0  0  0  0  0  0  0  0
    1.0552   -9.6360   17.0650 C   0  0  0  0  0  0  0  0  0  0  0  0
    3.6519   -9.1783   16.9039 C   0  0  0  0  0  0  0  0  0  0  0  0
    7.8675   -7.0096   15.9415 C   0  0  0  0  0  0  0  0  0  0  0  0
    5.9733   -9.6553   17.3832 N   0  0  0  0  0  0  0  0  0  0  0  0
   10.2411   -2.9363   23.4301 C   0  0  0  0  0  0  0  0  0  0  0  0
   10.7288   -3.8197   19.9525 C   0  0  0  0  0  0  0  0  0  0  0  0
   10.1189   -5.0054   19.6987 C   0  0  0  0  0  0  0  0  0  0  0  0
  1  3  4  0
  1  7  4  0
  2 21  4  0
  2 27  4  0
  3  9  4  0
  3 10  4  0
  4  8  4  0
  4 18  4  0
  4 25  1  0
  5  9  4  0
  5 12  4  0
  6 13  1  0
  6 27  1  0
  7 28  4  0
  8 11  4  0
  9 29  4  0
 10 12  4  0
 11 24  1  0
 11 26  4  0
 12 25  1  0
 13 28  1  0
 14 20  4  0
 14 23  4  0
 15 17  4  0
 15 21  4  0
 16 19  4  0
 16 23  4  0
 17 22  4  0
 18 26  4  0
 19 24  4  0
 20 24  4  0
 22 27  4  0
 28 29  4  0
M  END
$$$$

 Created by Python create_sdf_string function

 29 33  0  0  0  0  0  0  0  0999 V2000
   10.7215   -3.3326   17.6437 C   0  0  0  0  0  0  0  0  0  0  0  0
    9.9489   -3.4675   24.6487 N   0  0  0  0  0  0  0  0  0  0  0  0
   10.0172   -4.4740   17.4101 C   0  0  0  0  0  0  0  0  0  0  0  0
    6.9051   -7.9575   16.4222 C   0  0  0  0  0  0  0  0  0  0  0  0
    8.9969   -6.3552   17.9668 N   0  0  0  0  0  0  0  0  0  0  0  0
   10.6702   -3.9051   22.4070 C   0  0  0  0  0  0  0  0  0  0  0  0
   11.0625   -3.0028   18.8894 C   0  0  0  0  0  0  0  0  0  0  0  0
    5.6180   -7.9194   16.1754 O   0  0  0  0  0  0  0  0  0  0  0  0
    9.7259   -5.3080   18.4485 C   0  0  0  0  0  0  0  0  0  0  0  0
    9.4578   -5.0200   16.3036 N   0  0  0  0  0  0  0  0  0  0  0  0
    5.0287   -8.9365   16.8223 C   0  0  0  0  0  0  0  0  0  0  0  0
    8.7742   -6.1498   16.6764 C   0  0  0  0  0  0  0  0  0  0  0  0
   10.9418   -3.4032   21.2053 O   0  0  0  0  0  0  0  0  0  0  0  0
    1.4797   -8.6258   16.2950 C   0  0  0  0  0  0  0  0  0  0  0  0
    9.2861   -1.2743   25.3585 C   0  0  0  0  0  0  0  0  0  0  0  0
    1.8892  -10.3985   17.7511 N   0  0  0  0  0  0  0  0  0  0  0  0
    9.6210   -0.6952   24.0976 C   0  0  0  0  0  0  0  0  0  0  0  0
    7.0792   -9.0217   17.1429 C   0  0  0  0  0  0  0  0  0  0  0  0
    3.1713  -10.1816   17.6634 C   0  0  0  0  0  0  0  0  0  0  0  0
    2.7878   -8.3822   16.2137 C   0  0  0  0  0  0  0  0  0  0  0  0
    9.4601   -2.6590   25.6528 C   0  0  0  0  0  0  0  0  0  0  0  0
   10.1182   -1.5672   23.1165 C   0  0  0  0  0  0  0  0  0  0  0  0
    1.0552   -9.6360   17.0650 C   0  0  0  0  0  0  0  0  0  0  0  0
    3.6519   -9.1783   16.9039 C   0  0  0  0  0  0  0  0  0  0  0  0
    7.8675   -7.0096   15.9415 C   0  0  0  0  0  0  0  0  0  0  0  0
    5.9733   -9.6553   17.3832 N   0  0  0  0  0  0  0  0  0  0  0  0
   10.2411   -2.9363   23.4301 C   0  0  0  0  0  0  0  0  0  0  0  0
   10.7288   -3.8197   19.9525 C   0  0  0  0  0  0  0  0  0  0  0  0
   10.1189   -5.0054   19.6987 C   0  0  0  0  0  0  0  0  0  0  0  0
  1  3  4  0
  1  7  4  0
  2 21  4  0
  2 27  4  0
  3  9  4  0
  3 10  4  0
  4  8  4  0
  4 18  4  0
  4 25  1  0
  5  9  4  0
  5 12  4  0
  6 13  1  0
  6 27  1  0
  7 28  4  0
  8 11  4  0
  9 29  4  0
 10 12  4  0
 11 24  1  0
 11 26  4  0
 12 25  1  0
 13 28  1  0
 14 20  4  0
 14 23  4  0
 15 17  4  0
 15 21  4  0
 16 19  4  0
 16 23  4  0
 17 22  4  0
 18 26  4  0
 19 24  4  0
 20 24  4  0
 22 27  4  0
 28 29  4  0
M  END
$$$$

 Created by Python create_sdf_string function

 29 33  0  0  0  0  0  0  0  0999 V2000
   10.7215   -3.3326   17.6437 C   0  0  0  0  0  0  0  0  0  0  0  0
    9.9489   -3.4675   24.6487 N   0  0  0  0  0  0  0  0  0  0  0  0
   10.0172   -4.4740   17.4101 C   0  0  0  0  0  0  0  0  0  0  0  0
    6.9051   -7.9575   16.4222 C   0  0  0  0  0  0  0  0  0  0  0  0
    8.9969   -6.3552   17.9668 N   0  0  0  0  0  0  0  0  0  0  0  0
   10.6702   -3.9051   22.4070 C   0  0  0  0  0  0  0  0  0  0  0  0
   11.0625   -3.0028   18.8894 C   0  0  0  0  0  0  0  0  0  0  0  0
    5.6180   -7.9194   16.1754 O   0  0  0  0  0  0  0  0  0  0  0  0
    9.7259   -5.3080   18.4485 C   0  0  0  0  0  0  0  0  0  0  0  0
    9.4578   -5.0200   16.3036 N   0  0  0  0  0  0  0  0  0  0  0  0
    5.0287   -8.9365   16.8223 C   0  0  0  0  0  0  0  0  0  0  0  0
    8.7742   -6.1498   16.6764 C   0  0  0  0  0  0  0  0  0  0  0  0
   10.9418   -3.4032   21.2053 O   0  0  0  0  0  0  0  0  0  0  0  0
    1.4797   -8.6258   16.2950 C   0  0  0  0  0  0  0  0  0  0  0  0
    9.2861   -1.2743   25.3585 C   0  0  0  0  0  0  0  0  0  0  0  0
    1.8892  -10.3985   17.7511 N   0  0  0  0  0  0  0  0  0  0  0  0
    9.6210   -0.6952   24.0976 C   0  0  0  0  0  0  0  0  0  0  0  0
    7.0792   -9.0217   17.1429 C   0  0  0  0  0  0  0  0  0  0  0  0
    3.1713  -10.1816   17.6634 C   0  0  0  0  0  0  0  0  0  0  0  0
    2.7878   -8.3822   16.2137 C   0  0  0  0  0  0  0  0  0  0  0  0
    9.4601   -2.6590   25.6528 C   0  0  0  0  0  0  0  0  0  0  0  0
   10.1182   -1.5672   23.1165 C   0  0  0  0  0  0  0  0  0  0  0  0
    1.0552   -9.6360   17.0650 C   0  0  0  0  0  0  0  0  0  0  0  0
    3.6519   -9.1783   16.9039 C   0  0  0  0  0  0  0  0  0  0  0  0
    7.8675   -7.0096   15.9415 C   0  0  0  0  0  0  0  0  0  0  0  0
    5.9733   -9.6553   17.3832 N   0  0  0  0  0  0  0  0  0  0  0  0
   10.2411   -2.9363   23.4301 C   0  0  0  0  0  0  0  0  0  0  0  0
   10.7288   -3.8197   19.9525 C   0  0  0  0  0  0  0  0  0  0  0  0
   10.1189   -5.0054   19.6987 C   0  0  0  0  0  0  0  0  0  0  0  0
  1  3  4  0
  1  7  4  0
  2 21  4  0
  2 27  4  0
  3  9  4  0
  3 10  4  0
  4  8  4  0
  4 18  4  0
  4 25  1  0
  5  9  4  0
  5 12  4  0
  6 13  1  0
  6 27  1  0
  7 28  4  0
  8 11  4  0
  9 29  4  0
 10 12  4  0
 11 24  1  0
 11 26  4  0
 12 25  1  0
 13 28  1  0
 14 20  4  0
 14 23  4  0
 15 17  4  0
 15 21  4  0
 16 19  4  0
 16 23  4  0
 17 22  4  0
 18 26  4  0
 19 24  4  0
 20 24  4  0
 22 27  4  0
 28 29  4  0
M  END
$$$$

 Created by Python create_sdf_string function

 29 33  0  0  0  0  0  0  0  0999 V2000
   10.7215   -3.3326   17.6437 C   0  0  0  0  0  0  0  0  0  0  0  0
    9.9489   -3.4675   24.6487 N   0  0  0  0  0  0  0  0  0  0  0  0
   10.0172   -4.4740   17.4101 C   0  0  0  0  0  0  0  0  0  0  0  0
    6.9051   -7.9575   16.4222 C   0  0  0  0  0  0  0  0  0  0  0  0
    8.9969   -6.3552   17.9668 N   0  0  0  0  0  0  0  0  0  0  0  0
   10.6702   -3.9051   22.4070 C   0  0  0  0  0  0  0  0  0  0  0  0
   11.0625   -3.0028   18.8894 C   0  0  0  0  0  0  0  0  0  0  0  0
    5.6180   -7.9194   16.1754 O   0  0  0  0  0  0  0  0  0  0  0  0
    9.7259   -5.3080   18.4485 C   0  0  0  0  0  0  0  0  0  0  0  0
    9.4578   -5.0200   16.3036 N   0  0  0  0  0  0  0  0  0  0  0  0
    5.0287   -8.9365   16.8223 C   0  0  0  0  0  0  0  0  0  0  0  0
    8.7742   -6.1498   16.6764 C   0  0  0  0  0  0  0  0  0  0  0  0
   10.9418   -3.4032   21.2053 O   0  0  0  0  0  0  0  0  0  0  0  0
    1.4797   -8.6258   16.2950 C   0  0  0  0  0  0  0  0  0  0  0  0
    9.2861   -1.2743   25.3585 C   0  0  0  0  0  0  0  0  0  0  0  0
    1.8892  -10.3985   17.7511 N   0  0  0  0  0  0  0  0  0  0  0  0
    9.6210   -0.6952   24.0976 C   0  0  0  0  0  0  0  0  0  0  0  0
    7.0792   -9.0217   17.1429 C   0  0  0  0  0  0  0  0  0  0  0  0
    3.1713  -10.1816   17.6634 C   0  0  0  0  0  0  0  0  0  0  0  0
    2.7878   -8.3822   16.2137 C   0  0  0  0  0  0  0  0  0  0  0  0
    9.4601   -2.6590   25.6528 C   0  0  0  0  0  0  0  0  0  0  0  0
   10.1182   -1.5672   23.1165 C   0  0  0  0  0  0  0  0  0  0  0  0
    1.0552   -9.6360   17.0650 C   0  0  0  0  0  0  0  0  0  0  0  0
    3.6519   -9.1783   16.9039 C   0  0  0  0  0  0  0  0  0  0  0  0
    7.8675   -7.0096   15.9415 C   0  0  0  0  0  0  0  0  0  0  0  0
    5.9733   -9.6553   17.3832 N   0  0  0  0  0  0  0  0  0  0  0  0
   10.2411   -2.9363   23.4301 C   0  0  0  0  0  0  0  0  0  0  0  0
   10.7288   -3.8197   19.9525 C   0  0  0  0  0  0  0  0  0  0  0  0
   10.1189   -5.0054   19.6987 C   0  0  0  0  0  0  0  0  0  0  0  0
  1  3  4  0
  1  7  4  0
  2 21  4  0
  2 27  4  0
  3  9  4  0
  3 10  4  0
  4  8  4  0
  4 18  4  0
  4 25  1  0
  5  9  4  0
  5 12  4  0
  6 13  1  0
  6 27  1  0
  7 28  4  0
  8 11  4  0
  9 29  4  0
 10 12  4  0
 11 24  1  0
 11 26  4  0
 12 25  1  0
 13 28  1  0
 14 20  4  0
 14 23  4  0
 15 17  4  0
 15 21  4  0
 16 19  4  0
 16 23  4  0
 17 22  4  0
 18 26  4  0
 19 24  4  0
 20 24  4  0
 22 27  4  0
 28 29  4  0
M  END
$$$$

 Created by Python create_sdf_string function

 29 33  0  0  0  0  0  0  0  0999 V2000
   10.7215   -3.3326   17.6437 C   0  0  0  0  0  0  0  0  0  0  0  0
    9.9489   -3.4675   24.6487 N   0  0  0  0  0  0  0  0  0  0  0  0
   10.0172   -4.4740   17.4101 C   0  0  0  0  0  0  0  0  0  0  0  0
    6.9051   -7.9575   16.4222 C   0  0  0  0  0  0  0  0  0  0  0  0
    8.9969   -6.3552   17.9668 N   0  0  0  0  0  0  0  0  0  0  0  0
   10.6702   -3.9051   22.4070 C   0  0  0  0  0  0  0  0  0  0  0  0
   11.0625   -3.0028   18.8894 C   0  0  0  0  0  0  0  0  0  0  0  0
    5.6180   -7.9194   16.1754 O   0  0  0  0  0  0  0  0  0  0  0  0
    9.7259   -5.3080   18.4485 C   0  0  0  0  0  0  0  0  0  0  0  0
    9.4578   -5.0200   16.3036 N   0  0  0  0  0  0  0  0  0  0  0  0
    5.0287   -8.9365   16.8223 C   0  0  0  0  0  0  0  0  0  0  0  0
    8.7742   -6.1498   16.6764 C   0  0  0  0  0  0  0  0  0  0  0  0
   10.9418   -3.4032   21.2053 O   0  0  0  0  0  0  0  0  0  0  0  0
    1.4797   -8.6258   16.2950 C   0  0  0  0  0  0  0  0  0  0  0  0
    9.2861   -1.2743   25.3585 C   0  0  0  0  0  0  0  0  0  0  0  0
    1.8892  -10.3985   17.7511 N   0  0  0  0  0  0  0  0  0  0  0  0
    9.6210   -0.6952   24.0976 C   0  0  0  0  0  0  0  0  0  0  0  0
    7.0792   -9.0217   17.1429 C   0  0  0  0  0  0  0  0  0  0  0  0
    3.1713  -10.1816   17.6634 C   0  0  0  0  0  0  0  0  0  0  0  0
    2.7878   -8.3822   16.2137 C   0  0  0  0  0  0  0  0  0  0  0  0
    9.4601   -2.6590   25.6528 C   0  0  0  0  0  0  0  0  0  0  0  0
   10.1182   -1.5672   23.1165 C   0  0  0  0  0  0  0  0  0  0  0  0
    1.0552   -9.6360   17.0650 C   0  0  0  0  0  0  0  0  0  0  0  0
    3.6519   -9.1783   16.9039 C   0  0  0  0  0  0  0  0  0  0  0  0
    7.8675   -7.0096   15.9415 C   0  0  0  0  0  0  0  0  0  0  0  0
    5.9733   -9.6553   17.3832 N   0  0  0  0  0  0  0  0  0  0  0  0
   10.2411   -2.9363   23.4301 C   0  0  0  0  0  0  0  0  0  0  0  0
   10.7288   -3.8197   19.9525 C   0  0  0  0  0  0  0  0  0  0  0  0
   10.1189   -5.0054   19.6987 C   0  0  0  0  0  0  0  0  0  0  0  0
  1  3  4  0
  1  7  4  0
  2 21  4  0
  2 27  4  0
  3  9  4  0
  3 10  4  0
  4  8  4  0
  4 18  4  0
  4 25  1  0
  5  9  4  0
  5 12  4  0
  6 13  1  0
  6 27  1  0
  7 28  4  0
  8 11  4  0
  9 29  4  0
 10 12  4  0
 11 24  1  0
 11 26  4  0
 12 25  1  0
 13 28  1  0
 14 20  4  0
 14 23  4  0
 15 17  4  0
 15 21  4  0
 16 19  4  0
 16 23  4  0
 17 22  4  0
 18 26  4  0
 19 24  4  0
 20 24  4  0
 22 27  4  0
 28 29  4  0
M  END
$$$$

 Created by Python create_sdf_string function

 29 33  0  0  0  0  0  0  0  0999 V2000
   10.7215   -3.3326   17.6437 C   0  0  0  0  0  0  0  0  0  0  0  0
    9.9489   -3.4675   24.6487 N   0  0  0  0  0  0  0  0  0  0  0  0
   10.0172   -4.4740   17.4101 C   0  0  0  0  0  0  0  0  0  0  0  0
    6.9051   -7.9575   16.4222 C   0  0  0  0  0  0  0  0  0  0  0  0
    8.9969   -6.3552   17.9668 N   0  0  0  0  0  0  0  0  0  0  0  0
   10.6702   -3.9051   22.4070 C   0  0  0  0  0  0  0  0  0  0  0  0
   11.0625   -3.0028   18.8894 C   0  0  0  0  0  0  0  0  0  0  0  0
    5.6180   -7.9194   16.1754 O   0  0  0  0  0  0  0  0  0  0  0  0
    9.7259   -5.3080   18.4485 C   0  0  0  0  0  0  0  0  0  0  0  0
    9.4578   -5.0200   16.3036 N   0  0  0  0  0  0  0  0  0  0  0  0
    5.0287   -8.9365   16.8223 C   0  0  0  0  0  0  0  0  0  0  0  0
    8.7742   -6.1498   16.6764 C   0  0  0  0  0  0  0  0  0  0  0  0
   10.9418   -3.4032   21.2053 O   0  0  0  0  0  0  0  0  0  0  0  0
    1.4797   -8.6258   16.2950 C   0  0  0  0  0  0  0  0  0  0  0  0
    9.2861   -1.2743   25.3585 C   0  0  0  0  0  0  0  0  0  0  0  0
    1.8892  -10.3985   17.7511 N   0  0  0  0  0  0  0  0  0  0  0  0
    9.6210   -0.6952   24.0976 C   0  0  0  0  0  0  0  0  0  0  0  0
    7.0792   -9.0217   17.1429 C   0  0  0  0  0  0  0  0  0  0  0  0
    3.1713  -10.1816   17.6634 C   0  0  0  0  0  0  0  0  0  0  0  0
    2.7878   -8.3822   16.2137 C   0  0  0  0  0  0  0  0  0  0  0  0
    9.4601   -2.6590   25.6528 C   0  0  0  0  0  0  0  0  0  0  0  0
   10.1182   -1.5672   23.1165 C   0  0  0  0  0  0  0  0  0  0  0  0
    1.0552   -9.6360   17.0650 C   0  0  0  0  0  0  0  0  0  0  0  0
    3.6519   -9.1783   16.9039 C   0  0  0  0  0  0  0  0  0  0  0  0
    7.8675   -7.0096   15.9415 C   0  0  0  0  0  0  0  0  0  0  0  0
    5.9733   -9.6553   17.3832 N   0  0  0  0  0  0  0  0  0  0  0  0
   10.2411   -2.9363   23.4301 C   0  0  0  0  0  0  0  0  0  0  0  0
   10.7288   -3.8197   19.9525 C   0  0  0  0  0  0  0  0  0  0  0  0
   10.1189   -5.0054   19.6987 C   0  0  0  0  0  0  0  0  0  0  0  0
  1  3  4  0
  1  7  4  0
  2 21  4  0
  2 27  4  0
  3  9  4  0
  3 10  4  0
  4  8  4  0
  4 18  4  0
  4 25  1  0
  5  9  4  0
  5 12  4  0
  6 13  1  0
  6 27  1  0
  7 28  4  0
  8 11  4  0
  9 29  4  0
 10 12  4  0
 11 24  1  0
 11 26  4  0
 12 25  1  0
 13 28  1  0
 14 20  4  0
 14 23  4  0
 15 17  4  0
 15 21  4  0
 16 19  4  0
 16 23  4  0
 17 22  4  0
 18 26  4  0
 19 24  4  0
 20 24  4  0
 22 27  4  0
 28 29  4  0
M  END
$$$$

 Created by Python create_sdf_string function

 29 33  0  0  0  0  0  0  0  0999 V2000
   10.7215   -3.3326   17.6437 C   0  0  0  0  0  0  0  0  0  0  0  0
    9.9489   -3.4675   24.6487 N   0  0  0  0  0  0  0  0  0  0  0  0
   10.0172   -4.4740   17.4101 C   0  0  0  0  0  0  0  0  0  0  0  0
    6.9051   -7.9575   16.4222 C   0  0  0  0  0  0  0  0  0  0  0  0
    8.9969   -6.3552   17.9668 N   0  0  0  0  0  0  0  0  0  0  0  0
   10.6702   -3.9051   22.4070 C   0  0  0  0  0  0  0  0  0  0  0  0
   11.0625   -3.0028   18.8894 C   0  0  0  0  0  0  0  0  0  0  0  0
    5.6180   -7.9194   16.1754 O   0  0  0  0  0  0  0  0  0  0  0  0
    9.7259   -5.3080   18.4485 C   0  0  0  0  0  0  0  0  0  0  0  0
    9.4578   -5.0200   16.3036 N   0  0  0  0  0  0  0  0  0  0  0  0
    5.0287   -8.9365   16.8223 C   0  0  0  0  0  0  0  0  0  0  0  0
    8.7742   -6.1498   16.6764 C   0  0  0  0  0  0  0  0  0  0  0  0
   10.9418   -3.4032   21.2053 O   0  0  0  0  0  0  0  0  0  0  0  0
    1.4797   -8.6258   16.2950 C   0  0  0  0  0  0  0  0  0  0  0  0
    9.2861   -1.2743   25.3585 C   0  0  0  0  0  0  0  0  0  0  0  0
    1.8892  -10.3985   17.7511 N   0  0  0  0  0  0  0  0  0  0  0  0
    9.6210   -0.6952   24.0976 C   0  0  0  0  0  0  0  0  0  0  0  0
    7.0792   -9.0217   17.1429 C   0  0  0  0  0  0  0  0  0  0  0  0
    3.1713  -10.1816   17.6634 C   0  0  0  0  0  0  0  0  0  0  0  0
    2.7878   -8.3822   16.2137 C   0  0  0  0  0  0  0  0  0  0  0  0
    9.4601   -2.6590   25.6528 C   0  0  0  0  0  0  0  0  0  0  0  0
   10.1182   -1.5672   23.1165 C   0  0  0  0  0  0  0  0  0  0  0  0
    1.0552   -9.6360   17.0650 C   0  0  0  0  0  0  0  0  0  0  0  0
    3.6519   -9.1783   16.9039 C   0  0  0  0  0  0  0  0  0  0  0  0
    7.8675   -7.0096   15.9415 C   0  0  0  0  0  0  0  0  0  0  0  0
    5.9733   -9.6553   17.3832 N   0  0  0  0  0  0  0  0  0  0  0  0
   10.2411   -2.9363   23.4301 C   0  0  0  0  0  0  0  0  0  0  0  0
   10.7288   -3.8197   19.9525 C   0  0  0  0  0  0  0  0  0  0  0  0
   10.1189   -5.0054   19.6987 C   0  0  0  0  0  0  0  0  0  0  0  0
  1  3  4  0
  1  7  4  0
  2 21  4  0
  2 27  4  0
  3  9  4  0
  3 10  4  0
  4  8  4  0
  4 18  4  0
  4 25  1  0
  5  9  4  0
  5 12  4  0
  6 13  1  0
  6 27  1  0
  7 28  4  0
  8 11  4  0
  9 29  4  0
 10 12  4  0
 11 24  1  0
 11 26  4  0
 12 25  1  0
 13 28  1  0
 14 20  4  0
 14 23  4  0
 15 17  4  0
 15 21  4  0
 16 19  4  0
 16 23  4  0
 17 22  4  0
 18 26  4  0
 19 24  4  0
 20 24  4  0
 22 27  4  0
 28 29  4  0
M  END
$$$$

 Created by Python create_sdf_string function

 29 33  0  0  0  0  0  0  0  0999 V2000
   10.7215   -3.3326   17.6437 C   0  0  0  0  0  0  0  0  0  0  0  0
    9.9489   -3.4675   24.6487 N   0  0  0  0  0  0  0  0  0  0  0  0
   10.0172   -4.4740   17.4101 C   0  0  0  0  0  0  0  0  0  0  0  0
    6.9051   -7.9575   16.4222 C   0  0  0  0  0  0  0  0  0  0  0  0
    8.9969   -6.3552   17.9668 N   0  0  0  0  0  0  0  0  0  0  0  0
   10.6702   -3.9051   22.4070 C   0  0  0  0  0  0  0  0  0  0  0  0
   11.0625   -3.0028   18.8894 C   0  0  0  0  0  0  0  0  0  0  0  0
    5.6180   -7.9194   16.1754 O   0  0  0  0  0  0  0  0  0  0  0  0
    9.7259   -5.3080   18.4485 C   0  0  0  0  0  0  0  0  0  0  0  0
    9.4578   -5.0200   16.3036 N   0  0  0  0  0  0  0  0  0  0  0  0
    5.0287   -8.9365   16.8223 C   0  0  0  0  0  0  0  0  0  0  0  0
    8.7742   -6.1498   16.6764 C   0  0  0  0  0  0  0  0  0  0  0  0
   10.9418   -3.4032   21.2053 O   0  0  0  0  0  0  0  0  0  0  0  0
    1.4797   -8.6258   16.2950 C   0  0  0  0  0  0  0  0  0  0  0  0
    9.2861   -1.2743   25.3585 C   0  0  0  0  0  0  0  0  0  0  0  0
    1.8892  -10.3985   17.7511 N   0  0  0  0  0  0  0  0  0  0  0  0
    9.6210   -0.6952   24.0976 C   0  0  0  0  0  0  0  0  0  0  0  0
    7.0792   -9.0217   17.1429 C   0  0  0  0  0  0  0  0  0  0  0  0
    3.1713  -10.1816   17.6634 C   0  0  0  0  0  0  0  0  0  0  0  0
    2.7878   -8.3822   16.2137 C   0  0  0  0  0  0  0  0  0  0  0  0
    9.4601   -2.6590   25.6528 C   0  0  0  0  0  0  0  0  0  0  0  0
   10.1182   -1.5672   23.1165 C   0  0  0  0  0  0  0  0  0  0  0  0
    1.0552   -9.6360   17.0650 C   0  0  0  0  0  0  0  0  0  0  0  0
    3.6519   -9.1783   16.9039 C   0  0  0  0  0  0  0  0  0  0  0  0
    7.8675   -7.0096   15.9415 C   0  0  0  0  0  0  0  0  0  0  0  0
    5.9733   -9.6553   17.3832 N   0  0  0  0  0  0  0  0  0  0  0  0
   10.2411   -2.9363   23.4301 C   0  0  0  0  0  0  0  0  0  0  0  0
   10.7288   -3.8197   19.9525 C   0  0  0  0  0  0  0  0  0  0  0  0
   10.1189   -5.0054   19.6987 C   0  0  0  0  0  0  0  0  0  0  0  0
  1  3  4  0
  1  7  4  0
  2 21  4  0
  2 27  4  0
  3  9  4  0
  3 10  4  0
  4  8  4  0
  4 18  4  0
  4 25  1  0
  5  9  4  0
  5 12  4  0
  6 13  1  0
  6 27  1  0
  7 28  4  0
  8 11  4  0
  9 29  4  0
 10 12  4  0
 11 24  1  0
 11 26  4  0
 12 25  1  0
 13 28  1  0
 14 20  4  0
 14 23  4  0
 15 17  4  0
 15 21  4  0
 16 19  4  0
 16 23  4  0
 17 22  4  0
 18 26  4  0
 19 24  4  0
 20 24  4  0
 22 27  4  0
 28 29  4  0
M  END
$$$$

 Created by Python create_sdf_string function

 29 33  0  0  0  0  0  0  0  0999 V2000
   10.7215   -3.3326   17.6437 C   0  0  0  0  0  0  0  0  0  0  0  0
    9.9489   -3.4675   24.6487 N   0  0  0  0  0  0  0  0  0  0  0  0
   10.0172   -4.4740   17.4101 C   0  0  0  0  0  0  0  0  0  0  0  0
    6.9051   -7.9575   16.4222 C   0  0  0  0  0  0  0  0  0  0  0  0
    8.9969   -6.3552   17.9668 N   0  0  0  0  0  0  0  0  0  0  0  0
   10.6702   -3.9051   22.4070 C   0  0  0  0  0  0  0  0  0  0  0  0
   11.0625   -3.0028   18.8894 C   0  0  0  0  0  0  0  0  0  0  0  0
    5.6180   -7.9194   16.1754 O   0  0  0  0  0  0  0  0  0  0  0  0
    9.7259   -5.3080   18.4485 C   0  0  0  0  0  0  0  0  0  0  0  0
    9.4578   -5.0200   16.3036 N   0  0  0  0  0  0  0  0  0  0  0  0
    5.0287   -8.9365   16.8223 C   0  0  0  0  0  0  0  0  0  0  0  0
    8.7742   -6.1498   16.6764 C   0  0  0  0  0  0  0  0  0  0  0  0
   10.9418   -3.4032   21.2053 O   0  0  0  0  0  0  0  0  0  0  0  0
    1.4797   -8.6258   16.2950 C   0  0  0  0  0  0  0  0  0  0  0  0
    9.2861   -1.2743   25.3585 C   0  0  0  0  0  0  0  0  0  0  0  0
    1.8892  -10.3985   17.7511 N   0  0  0  0  0  0  0  0  0  0  0  0
    9.6210   -0.6952   24.0976 C   0  0  0  0  0  0  0  0  0  0  0  0
    7.0792   -9.0217   17.1429 C   0  0  0  0  0  0  0  0  0  0  0  0
    3.1713  -10.1816   17.6634 C   0  0  0  0  0  0  0  0  0  0  0  0
    2.7878   -8.3822   16.2137 C   0  0  0  0  0  0  0  0  0  0  0  0
    9.4601   -2.6590   25.6528 C   0  0  0  0  0  0  0  0  0  0  0  0
   10.1182   -1.5672   23.1165 C   0  0  0  0  0  0  0  0  0  0  0  0
    1.0552   -9.6360   17.0650 C   0  0  0  0  0  0  0  0  0  0  0  0
    3.6519   -9.1783   16.9039 C   0  0  0  0  0  0  0  0  0  0  0  0
    7.8675   -7.0096   15.9415 C   0  0  0  0  0  0  0  0  0  0  0  0
    5.9733   -9.6553   17.3832 N   0  0  0  0  0  0  0  0  0  0  0  0
   10.2411   -2.9363   23.4301 C   0  0  0  0  0  0  0  0  0  0  0  0
   10.7288   -3.8197   19.9525 C   0  0  0  0  0  0  0  0  0  0  0  0
   10.1189   -5.0054   19.6987 C   0  0  0  0  0  0  0  0  0  0  0  0
  1  3  4  0
  1  7  4  0
  2 21  4  0
  2 27  4  0
  3  9  4  0
  3 10  4  0
  4  8  4  0
  4 18  4  0
  4 25  1  0
  5  9  4  0
  5 12  4  0
  6 13  1  0
  6 27  1  0
  7 28  4  0
  8 11  4  0
  9 29  4  0
 10 12  4  0
 11 24  1  0
 11 26  4  0
 12 25  1  0
 13 28  1  0
 14 20  4  0
 14 23  4  0
 15 17  4  0
 15 21  4  0
 16 19  4  0
 16 23  4  0
 17 22  4  0
 18 26  4  0
 19 24  4  0
 20 24  4  0
 22 27  4  0
 28 29  4  0
M  END
$$$$

 Created by Python create_sdf_string function

 29 33  0  0  0  0  0  0  0  0999 V2000
   10.7215   -3.3326   17.6437 C   0  0  0  0  0  0  0  0  0  0  0  0
    9.9489   -3.4675   24.6487 N   0  0  0  0  0  0  0  0  0  0  0  0
   10.0172   -4.4740   17.4101 C   0  0  0  0  0  0  0  0  0  0  0  0
    6.9051   -7.9575   16.4222 C   0  0  0  0  0  0  0  0  0  0  0  0
    8.9969   -6.3552   17.9668 N   0  0  0  0  0  0  0  0  0  0  0  0
   10.6702   -3.9051   22.4070 C   0  0  0  0  0  0  0  0  0  0  0  0
   11.0625   -3.0028   18.8894 C   0  0  0  0  0  0  0  0  0  0  0  0
    5.6180   -7.9194   16.1754 O   0  0  0  0  0  0  0  0  0  0  0  0
    9.7259   -5.3080   18.4485 C   0  0  0  0  0  0  0  0  0  0  0  0
    9.4578   -5.0200   16.3036 N   0  0  0  0  0  0  0  0  0  0  0  0
    5.0287   -8.9365   16.8223 C   0  0  0  0  0  0  0  0  0  0  0  0
    8.7742   -6.1498   16.6764 C   0  0  0  0  0  0  0  0  0  0  0  0
   10.9418   -3.4032   21.2053 O   0  0  0  0  0  0  0  0  0  0  0  0
    1.4797   -8.6258   16.2950 C   0  0  0  0  0  0  0  0  0  0  0  0
    9.2861   -1.2743   25.3585 C   0  0  0  0  0  0  0  0  0  0  0  0
    1.8892  -10.3985   17.7511 N   0  0  0  0  0  0  0  0  0  0  0  0
    9.6210   -0.6952   24.0976 C   0  0  0  0  0  0  0  0  0  0  0  0
    7.0792   -9.0217   17.1429 C   0  0  0  0  0  0  0  0  0  0  0  0
    3.1713  -10.1816   17.6634 C   0  0  0  0  0  0  0  0  0  0  0  0
    2.7878   -8.3822   16.2137 C   0  0  0  0  0  0  0  0  0  0  0  0
    9.4601   -2.6590   25.6528 C   0  0  0  0  0  0  0  0  0  0  0  0
   10.1182   -1.5672   23.1165 C   0  0  0  0  0  0  0  0  0  0  0  0
    1.0552   -9.6360   17.0650 C   0  0  0  0  0  0  0  0  0  0  0  0
    3.6519   -9.1783   16.9039 C   0  0  0  0  0  0  0  0  0  0  0  0
    7.8675   -7.0096   15.9415 C   0  0  0  0  0  0  0  0  0  0  0  0
    5.9733   -9.6553   17.3832 N   0  0  0  0  0  0  0  0  0  0  0  0
   10.2411   -2.9363   23.4301 C   0  0  0  0  0  0  0  0  0  0  0  0
   10.7288   -3.8197   19.9525 C   0  0  0  0  0  0  0  0  0  0  0  0
   10.1189   -5.0054   19.6987 C   0  0  0  0  0  0  0  0  0  0  0  0
  1  3  4  0
  1  7  4  0
  2 21  4  0
  2 27  4  0
  3  9  4  0
  3 10  4  0
  4  8  4  0
  4 18  4  0
  4 25  1  0
  5  9  4  0
  5 12  4  0
  6 13  1  0
  6 27  1  0
  7 28  4  0
  8 11  4  0
  9 29  4  0
 10 12  4  0
 11 24  1  0
 11 26  4  0
 12 25  1  0
 13 28  1  0
 14 20  4  0
 14 23  4  0
 15 17  4  0
 15 21  4  0
 16 19  4  0
 16 23  4  0
 17 22  4  0
 18 26  4  0
 19 24  4  0
 20 24  4  0
 22 27  4  0
 28 29  4  0
M  END
$$$$

 Created by Python create_sdf_string function

 29 33  0  0  0  0  0  0  0  0999 V2000
   10.7215   -3.3326   17.6437 C   0  0  0  0  0  0  0  0  0  0  0  0
    9.9489   -3.4675   24.6487 N   0  0  0  0  0  0  0  0  0  0  0  0
   10.0172   -4.4740   17.4101 C   0  0  0  0  0  0  0  0  0  0  0  0
    6.9051   -7.9575   16.4222 C   0  0  0  0  0  0  0  0  0  0  0  0
    8.9969   -6.3552   17.9668 N   0  0  0  0  0  0  0  0  0  0  0  0
   10.6702   -3.9051   22.4070 C   0  0  0  0  0  0  0  0  0  0  0  0
   11.0625   -3.0028   18.8894 C   0  0  0  0  0  0  0  0  0  0  0  0
    5.6180   -7.9194   16.1754 O   0  0  0  0  0  0  0  0  0  0  0  0
    9.7259   -5.3080   18.4485 C   0  0  0  0  0  0  0  0  0  0  0  0
    9.4578   -5.0200   16.3036 N   0  0  0  0  0  0  0  0  0  0  0  0
    5.0287   -8.9365   16.8223 C   0  0  0  0  0  0  0  0  0  0  0  0
    8.7742   -6.1498   16.6764 C   0  0  0  0  0  0  0  0  0  0  0  0
   10.9418   -3.4032   21.2053 O   0  0  0  0  0  0  0  0  0  0  0  0
    1.4797   -8.6258   16.2950 C   0  0  0  0  0  0  0  0  0  0  0  0
    9.2861   -1.2743   25.3585 C   0  0  0  0  0  0  0  0  0  0  0  0
    1.8892  -10.3985   17.7511 N   0  0  0  0  0  0  0  0  0  0  0  0
    9.6210   -0.6952   24.0976 C   0  0  0  0  0  0  0  0  0  0  0  0
    7.0792   -9.0217   17.1429 C   0  0  0  0  0  0  0  0  0  0  0  0
    3.1713  -10.1816   17.6634 C   0  0  0  0  0  0  0  0  0  0  0  0
    2.7878   -8.3822   16.2137 C   0  0  0  0  0  0  0  0  0  0  0  0
    9.4601   -2.6590   25.6528 C   0  0  0  0  0  0  0  0  0  0  0  0
   10.1182   -1.5672   23.1165 C   0  0  0  0  0  0  0  0  0  0  0  0
    1.0552   -9.6360   17.0650 C   0  0  0  0  0  0  0  0  0  0  0  0
    3.6519   -9.1783   16.9039 C   0  0  0  0  0  0  0  0  0  0  0  0
    7.8675   -7.0096   15.9415 C   0  0  0  0  0  0  0  0  0  0  0  0
    5.9733   -9.6553   17.3832 N   0  0  0  0  0  0  0  0  0  0  0  0
   10.2411   -2.9363   23.4301 C   0  0  0  0  0  0  0  0  0  0  0  0
   10.7288   -3.8197   19.9525 C   0  0  0  0  0  0  0  0  0  0  0  0
   10.1189   -5.0054   19.6987 C   0  0  0  0  0  0  0  0  0  0  0  0
  1  3  4  0
  1  7  4  0
  2 21  4  0
  2 27  4  0
  3  9  4  0
  3 10  4  0
  4  8  4  0
  4 18  4  0
  4 25  1  0
  5  9  4  0
  5 12  4  0
  6 13  1  0
  6 27  1  0
  7 28  4  0
  8 11  4  0
  9 29  4  0
 10 12  4  0
 11 24  1  0
 11 26  4  0
 12 25  1  0
 13 28  1  0
 14 20  4  0
 14 23  4  0
 15 17  4  0
 15 21  4  0
 16 19  4  0
 16 23  4  0
 17 22  4  0
 18 26  4  0
 19 24  4  0
 20 24  4  0
 22 27  4  0
 28 29  4  0
M  END
$$$$

 Created by Python create_sdf_string function

 29 33  0  0  0  0  0  0  0  0999 V2000
   10.7215   -3.3326   17.6437 C   0  0  0  0  0  0  0  0  0  0  0  0
    9.9489   -3.4675   24.6487 N   0  0  0  0  0  0  0  0  0  0  0  0
   10.0172   -4.4740   17.4101 C   0  0  0  0  0  0  0  0  0  0  0  0
    6.9051   -7.9575   16.4222 C   0  0  0  0  0  0  0  0  0  0  0  0
    8.9969   -6.3552   17.9668 N   0  0  0  0  0  0  0  0  0  0  0  0
   10.6702   -3.9051   22.4070 C   0  0  0  0  0  0  0  0  0  0  0  0
   11.0625   -3.0028   18.8894 C   0  0  0  0  0  0  0  0  0  0  0  0
    5.6180   -7.9194   16.1754 O   0  0  0  0  0  0  0  0  0  0  0  0
    9.7259   -5.3080   18.4485 C   0  0  0  0  0  0  0  0  0  0  0  0
    9.4578   -5.0200   16.3036 N   0  0  0  0  0  0  0  0  0  0  0  0
    5.0287   -8.9365   16.8223 C   0  0  0  0  0  0  0  0  0  0  0  0
    8.7742   -6.1498   16.6764 C   0  0  0  0  0  0  0  0  0  0  0  0
   10.9418   -3.4032   21.2053 O   0  0  0  0  0  0  0  0  0  0  0  0
    1.4797   -8.6258   16.2950 C   0  0  0  0  0  0  0  0  0  0  0  0
    9.2861   -1.2743   25.3585 C   0  0  0  0  0  0  0  0  0  0  0  0
    1.8892  -10.3985   17.7511 N   0  0  0  0  0  0  0  0  0  0  0  0
    9.6210   -0.6952   24.0976 C   0  0  0  0  0  0  0  0  0  0  0  0
    7.0792   -9.0217   17.1429 C   0  0  0  0  0  0  0  0  0  0  0  0
    3.1713  -10.1816   17.6634 C   0  0  0  0  0  0  0  0  0  0  0  0
    2.7878   -8.3822   16.2137 C   0  0  0  0  0  0  0  0  0  0  0  0
    9.4601   -2.6590   25.6528 C   0  0  0  0  0  0  0  0  0  0  0  0
   10.1182   -1.5672   23.1165 C   0  0  0  0  0  0  0  0  0  0  0  0
    1.0552   -9.6360   17.0650 C   0  0  0  0  0  0  0  0  0  0  0  0
    3.6519   -9.1783   16.9039 C   0  0  0  0  0  0  0  0  0  0  0  0
    7.8675   -7.0096   15.9415 C   0  0  0  0  0  0  0  0  0  0  0  0
    5.9733   -9.6553   17.3832 N   0  0  0  0  0  0  0  0  0  0  0  0
   10.2411   -2.9363   23.4301 C   0  0  0  0  0  0  0  0  0  0  0  0
   10.7288   -3.8197   19.9525 C   0  0  0  0  0  0  0  0  0  0  0  0
   10.1189   -5.0054   19.6987 C   0  0  0  0  0  0  0  0  0  0  0  0
  1  3  4  0
  1  7  4  0
  2 21  4  0
  2 27  4  0
  3  9  4  0
  3 10  4  0
  4  8  4  0
  4 18  4  0
  4 25  1  0
  5  9  4  0
  5 12  4  0
  6 13  1  0
  6 27  1  0
  7 28  4  0
  8 11  4  0
  9 29  4  0
 10 12  4  0
 11 24  1  0
 11 26  4  0
 12 25  1  0
 13 28  1  0
 14 20  4  0
 14 23  4  0
 15 17  4  0
 15 21  4  0
 16 19  4  0
 16 23  4  0
 17 22  4  0
 18 26  4  0
 19 24  4  0
 20 24  4  0
 22 27  4  0
 28 29  4  0
M  END
$$$$

 Created by Python create_sdf_string function

 29 33  0  0  0  0  0  0  0  0999 V2000
   10.7215   -3.3326   17.6437 C   0  0  0  0  0  0  0  0  0  0  0  0
    9.9489   -3.4675   24.6487 N   0  0  0  0  0  0  0  0  0  0  0  0
   10.0172   -4.4740   17.4101 C   0  0  0  0  0  0  0  0  0  0  0  0
    6.9051   -7.9575   16.4222 C   0  0  0  0  0  0  0  0  0  0  0  0
    8.9969   -6.3552   17.9668 N   0  0  0  0  0  0  0  0  0  0  0  0
   10.6702   -3.9051   22.4070 C   0  0  0  0  0  0  0  0  0  0  0  0
   11.0625   -3.0028   18.8894 C   0  0  0  0  0  0  0  0  0  0  0  0
    5.6180   -7.9194   16.1754 O   0  0  0  0  0  0  0  0  0  0  0  0
    9.7259   -5.3080   18.4485 C   0  0  0  0  0  0  0  0  0  0  0  0
    9.4578   -5.0200   16.3036 N   0  0  0  0  0  0  0  0  0  0  0  0
    5.0287   -8.9365   16.8223 C   0  0  0  0  0  0  0  0  0  0  0  0
    8.7742   -6.1498   16.6764 C   0  0  0  0  0  0  0  0  0  0  0  0
   10.9418   -3.4032   21.2053 O   0  0  0  0  0  0  0  0  0  0  0  0
    1.4797   -8.6258   16.2950 C   0  0  0  0  0  0  0  0  0  0  0  0
    9.2861   -1.2743   25.3585 C   0  0  0  0  0  0  0  0  0  0  0  0
    1.8892  -10.3985   17.7511 N   0  0  0  0  0  0  0  0  0  0  0  0
    9.6210   -0.6952   24.0976 C   0  0  0  0  0  0  0  0  0  0  0  0
    7.0792   -9.0217   17.1429 C   0  0  0  0  0  0  0  0  0  0  0  0
    3.1713  -10.1816   17.6634 C   0  0  0  0  0  0  0  0  0  0  0  0
    2.7878   -8.3822   16.2137 C   0  0  0  0  0  0  0  0  0  0  0  0
    9.4601   -2.6590   25.6528 C   0  0  0  0  0  0  0  0  0  0  0  0
   10.1182   -1.5672   23.1165 C   0  0  0  0  0  0  0  0  0  0  0  0
    1.0552   -9.6360   17.0650 C   0  0  0  0  0  0  0  0  0  0  0  0
    3.6519   -9.1783   16.9039 C   0  0  0  0  0  0  0  0  0  0  0  0
    7.8675   -7.0096   15.9415 C   0  0  0  0  0  0  0  0  0  0  0  0
    5.9733   -9.6553   17.3832 N   0  0  0  0  0  0  0  0  0  0  0  0
   10.2411   -2.9363   23.4301 C   0  0  0  0  0  0  0  0  0  0  0  0
   10.7288   -3.8197   19.9525 C   0  0  0  0  0  0  0  0  0  0  0  0
   10.1189   -5.0054   19.6987 C   0  0  0  0  0  0  0  0  0  0  0  0
  1  3  4  0
  1  7  4  0
  2 21  4  0
  2 27  4  0
  3  9  4  0
  3 10  4  0
  4  8  4  0
  4 18  4  0
  4 25  1  0
  5  9  4  0
  5 12  4  0
  6 13  1  0
  6 27  1  0
  7 28  4  0
  8 11  4  0
  9 29  4  0
 10 12  4  0
 11 24  1  0
 11 26  4  0
 12 25  1  0
 13 28  1  0
 14 20  4  0
 14 23  4  0
 15 17  4  0
 15 21  4  0
 16 19  4  0
 16 23  4  0
 17 22  4  0
 18 26  4  0
 19 24  4  0
 20 24  4  0
 22 27  4  0
 28 29  4  0
M  END
$$$$

 Created by Python create_sdf_string function

 29 33  0  0  0  0  0  0  0  0999 V2000
   10.7215   -3.3326   17.6437 C   0  0  0  0  0  0  0  0  0  0  0  0
    9.9489   -3.4675   24.6487 N   0  0  0  0  0  0  0  0  0  0  0  0
   10.0172   -4.4740   17.4101 C   0  0  0  0  0  0  0  0  0  0  0  0
    6.9051   -7.9575   16.4222 C   0  0  0  0  0  0  0  0  0  0  0  0
    8.9969   -6.3552   17.9668 N   0  0  0  0  0  0  0  0  0  0  0  0
   10.6702   -3.9051   22.4070 C   0  0  0  0  0  0  0  0  0  0  0  0
   11.0625   -3.0028   18.8894 C   0  0  0  0  0  0  0  0  0  0  0  0
    5.6180   -7.9194   16.1754 O   0  0  0  0  0  0  0  0  0  0  0  0
    9.7259   -5.3080   18.4485 C   0  0  0  0  0  0  0  0  0  0  0  0
    9.4578   -5.0200   16.3036 N   0  0  0  0  0  0  0  0  0  0  0  0
    5.0287   -8.9365   16.8223 C   0  0  0  0  0  0  0  0  0  0  0  0
    8.7742   -6.1498   16.6764 C   0  0  0  0  0  0  0  0  0  0  0  0
   10.9418   -3.4032   21.2053 O   0  0  0  0  0  0  0  0  0  0  0  0
    1.4797   -8.6258   16.2950 C   0  0  0  0  0  0  0  0  0  0  0  0
    9.2861   -1.2743   25.3585 C   0  0  0  0  0  0  0  0  0  0  0  0
    1.8892  -10.3985   17.7511 N   0  0  0  0  0  0  0  0  0  0  0  0
    9.6210   -0.6952   24.0976 C   0  0  0  0  0  0  0  0  0  0  0  0
    7.0792   -9.0217   17.1429 C   0  0  0  0  0  0  0  0  0  0  0  0
    3.1713  -10.1816   17.6634 C   0  0  0  0  0  0  0  0  0  0  0  0
    2.7878   -8.3822   16.2137 C   0  0  0  0  0  0  0  0  0  0  0  0
    9.4601   -2.6590   25.6528 C   0  0  0  0  0  0  0  0  0  0  0  0
   10.1182   -1.5672   23.1165 C   0  0  0  0  0  0  0  0  0  0  0  0
    1.0552   -9.6360   17.0650 C   0  0  0  0  0  0  0  0  0  0  0  0
    3.6519   -9.1783   16.9039 C   0  0  0  0  0  0  0  0  0  0  0  0
    7.8675   -7.0096   15.9415 C   0  0  0  0  0  0  0  0  0  0  0  0
    5.9733   -9.6553   17.3832 N   0  0  0  0  0  0  0  0  0  0  0  0
   10.2411   -2.9363   23.4301 C   0  0  0  0  0  0  0  0  0  0  0  0
   10.7288   -3.8197   19.9525 C   0  0  0  0  0  0  0  0  0  0  0  0
   10.1189   -5.0054   19.6987 C   0  0  0  0  0  0  0  0  0  0  0  0
  1  3  4  0
  1  7  4  0
  2 21  4  0
  2 27  4  0
  3  9  4  0
  3 10  4  0
  4  8  4  0
  4 18  4  0
  4 25  1  0
  5  9  4  0
  5 12  4  0
  6 13  1  0
  6 27  1  0
  7 28  4  0
  8 11  4  0
  9 29  4  0
 10 12  4  0
 11 24  1  0
 11 26  4  0
 12 25  1  0
 13 28  1  0
 14 20  4  0
 14 23  4  0
 15 17  4  0
 15 21  4  0
 16 19  4  0
 16 23  4  0
 17 22  4  0
 18 26  4  0
 19 24  4  0
 20 24  4  0
 22 27  4  0
 28 29  4  0
M  END
$$$$

 Created by Python create_sdf_string function

 29 33  0  0  0  0  0  0  0  0999 V2000
   10.7215   -3.3326   17.6437 C   0  0  0  0  0  0  0  0  0  0  0  0
    9.9489   -3.4675   24.6487 N   0  0  0  0  0  0  0  0  0  0  0  0
   10.0172   -4.4740   17.4101 C   0  0  0  0  0  0  0  0  0  0  0  0
    6.9051   -7.9575   16.4222 C   0  0  0  0  0  0  0  0  0  0  0  0
    8.9969   -6.3552   17.9668 N   0  0  0  0  0  0  0  0  0  0  0  0
   10.6702   -3.9051   22.4070 C   0  0  0  0  0  0  0  0  0  0  0  0
   11.0625   -3.0028   18.8894 C   0  0  0  0  0  0  0  0  0  0  0  0
    5.6180   -7.9194   16.1754 O   0  0  0  0  0  0  0  0  0  0  0  0
    9.7259   -5.3080   18.4485 C   0  0  0  0  0  0  0  0  0  0  0  0
    9.4578   -5.0200   16.3036 N   0  0  0  0  0  0  0  0  0  0  0  0
    5.0287   -8.9365   16.8223 C   0  0  0  0  0  0  0  0  0  0  0  0
    8.7742   -6.1498   16.6764 C   0  0  0  0  0  0  0  0  0  0  0  0
   10.9418   -3.4032   21.2053 O   0  0  0  0  0  0  0  0  0  0  0  0
    1.4797   -8.6258   16.2950 C   0  0  0  0  0  0  0  0  0  0  0  0
    9.2861   -1.2743   25.3585 C   0  0  0  0  0  0  0  0  0  0  0  0
    1.8892  -10.3985   17.7511 N   0  0  0  0  0  0  0  0  0  0  0  0
    9.6210   -0.6952   24.0976 C   0  0  0  0  0  0  0  0  0  0  0  0
    7.0792   -9.0217   17.1429 C   0  0  0  0  0  0  0  0  0  0  0  0
    3.1713  -10.1816   17.6634 C   0  0  0  0  0  0  0  0  0  0  0  0
    2.7878   -8.3822   16.2137 C   0  0  0  0  0  0  0  0  0  0  0  0
    9.4601   -2.6590   25.6528 C   0  0  0  0  0  0  0  0  0  0  0  0
   10.1182   -1.5672   23.1165 C   0  0  0  0  0  0  0  0  0  0  0  0
    1.0552   -9.6360   17.0650 C   0  0  0  0  0  0  0  0  0  0  0  0
    3.6519   -9.1783   16.9039 C   0  0  0  0  0  0  0  0  0  0  0  0
    7.8675   -7.0096   15.9415 C   0  0  0  0  0  0  0  0  0  0  0  0
    5.9733   -9.6553   17.3832 N   0  0  0  0  0  0  0  0  0  0  0  0
   10.2411   -2.9363   23.4301 C   0  0  0  0  0  0  0  0  0  0  0  0
   10.7288   -3.8197   19.9525 C   0  0  0  0  0  0  0  0  0  0  0  0
   10.1189   -5.0054   19.6987 C   0  0  0  0  0  0  0  0  0  0  0  0
  1  3  4  0
  1  7  4  0
  2 21  4  0
  2 27  4  0
  3  9  4  0
  3 10  4  0
  4  8  4  0
  4 18  4  0
  4 25  1  0
  5  9  4  0
  5 12  4  0
  6 13  1  0
  6 27  1  0
  7 28  4  0
  8 11  4  0
  9 29  4  0
 10 12  4  0
 11 24  1  0
 11 26  4  0
 12 25  1  0
 13 28  1  0
 14 20  4  0
 14 23  4  0
 15 17  4  0
 15 21  4  0
 16 19  4  0
 16 23  4  0
 17 22  4  0
 18 26  4  0
 19 24  4  0
 20 24  4  0
 22 27  4  0
 28 29  4  0
M  END
$$$$

 Created by Python create_sdf_string function

 29 33  0  0  0  0  0  0  0  0999 V2000
   10.7215   -3.3326   17.6437 C   0  0  0  0  0  0  0  0  0  0  0  0
    9.9489   -3.4675   24.6487 N   0  0  0  0  0  0  0  0  0  0  0  0
   10.0172   -4.4740   17.4101 C   0  0  0  0  0  0  0  0  0  0  0  0
    6.9051   -7.9575   16.4222 C   0  0  0  0  0  0  0  0  0  0  0  0
    8.9969   -6.3552   17.9668 N   0  0  0  0  0  0  0  0  0  0  0  0
   10.6702   -3.9051   22.4070 C   0  0  0  0  0  0  0  0  0  0  0  0
   11.0625   -3.0028   18.8894 C   0  0  0  0  0  0  0  0  0  0  0  0
    5.6180   -7.9194   16.1754 O   0  0  0  0  0  0  0  0  0  0  0  0
    9.7259   -5.3080   18.4485 C   0  0  0  0  0  0  0  0  0  0  0  0
    9.4578   -5.0200   16.3036 N   0  0  0  0  0  0  0  0  0  0  0  0
    5.0287   -8.9365   16.8223 C   0  0  0  0  0  0  0  0  0  0  0  0
    8.7742   -6.1498   16.6764 C   0  0  0  0  0  0  0  0  0  0  0  0
   10.9418   -3.4032   21.2053 O   0  0  0  0  0  0  0  0  0  0  0  0
    1.4797   -8.6258   16.2950 C   0  0  0  0  0  0  0  0  0  0  0  0
    9.2861   -1.2743   25.3585 C   0  0  0  0  0  0  0  0  0  0  0  0
    1.8892  -10.3985   17.7511 N   0  0  0  0  0  0  0  0  0  0  0  0
    9.6210   -0.6952   24.0976 C   0  0  0  0  0  0  0  0  0  0  0  0
    7.0792   -9.0217   17.1429 C   0  0  0  0  0  0  0  0  0  0  0  0
    3.1713  -10.1816   17.6634 C   0  0  0  0  0  0  0  0  0  0  0  0
    2.7878   -8.3822   16.2137 C   0  0  0  0  0  0  0  0  0  0  0  0
    9.4601   -2.6590   25.6528 C   0  0  0  0  0  0  0  0  0  0  0  0
   10.1182   -1.5672   23.1165 C   0  0  0  0  0  0  0  0  0  0  0  0
    1.0552   -9.6360   17.0650 C   0  0  0  0  0  0  0  0  0  0  0  0
    3.6519   -9.1783   16.9039 C   0  0  0  0  0  0  0  0  0  0  0  0
    7.8675   -7.0096   15.9415 C   0  0  0  0  0  0  0  0  0  0  0  0
    5.9733   -9.6553   17.3832 N   0  0  0  0  0  0  0  0  0  0  0  0
   10.2411   -2.9363   23.4301 C   0  0  0  0  0  0  0  0  0  0  0  0
   10.7288   -3.8197   19.9525 C   0  0  0  0  0  0  0  0  0  0  0  0
   10.1189   -5.0054   19.6987 C   0  0  0  0  0  0  0  0  0  0  0  0
  1  3  4  0
  1  7  4  0
  2 21  4  0
  2 27  4  0
  3  9  4  0
  3 10  4  0
  4  8  4  0
  4 18  4  0
  4 25  1  0
  5  9  4  0
  5 12  4  0
  6 13  1  0
  6 27  1  0
  7 28  4  0
  8 11  4  0
  9 29  4  0
 10 12  4  0
 11 24  1  0
 11 26  4  0
 12 25  1  0
 13 28  1  0
 14 20  4  0
 14 23  4  0
 15 17  4  0
 15 21  4  0
 16 19  4  0
 16 23  4  0
 17 22  4  0
 18 26  4  0
 19 24  4  0
 20 24  4  0
 22 27  4  0
 28 29  4  0
M  END
$$$$

 Created by Python create_sdf_string function

 29 33  0  0  0  0  0  0  0  0999 V2000
   10.7215   -3.3326   17.6437 C   0  0  0  0  0  0  0  0  0  0  0  0
    9.9489   -3.4675   24.6487 N   0  0  0  0  0  0  0  0  0  0  0  0
   10.0172   -4.4740   17.4101 C   0  0  0  0  0  0  0  0  0  0  0  0
    6.9051   -7.9575   16.4222 C   0  0  0  0  0  0  0  0  0  0  0  0
    8.9969   -6.3552   17.9668 N   0  0  0  0  0  0  0  0  0  0  0  0
   10.6702   -3.9051   22.4070 C   0  0  0  0  0  0  0  0  0  0  0  0
   11.0625   -3.0028   18.8894 C   0  0  0  0  0  0  0  0  0  0  0  0
    5.6180   -7.9194   16.1754 O   0  0  0  0  0  0  0  0  0  0  0  0
    9.7259   -5.3080   18.4485 C   0  0  0  0  0  0  0  0  0  0  0  0
    9.4578   -5.0200   16.3036 N   0  0  0  0  0  0  0  0  0  0  0  0
    5.0287   -8.9365   16.8223 C   0  0  0  0  0  0  0  0  0  0  0  0
    8.7742   -6.1498   16.6764 C   0  0  0  0  0  0  0  0  0  0  0  0
   10.9418   -3.4032   21.2053 O   0  0  0  0  0  0  0  0  0  0  0  0
    1.4797   -8.6258   16.2950 C   0  0  0  0  0  0  0  0  0  0  0  0
    9.2861   -1.2743   25.3585 C   0  0  0  0  0  0  0  0  0  0  0  0
    1.8892  -10.3985   17.7511 N   0  0  0  0  0  0  0  0  0  0  0  0
    9.6210   -0.6952   24.0976 C   0  0  0  0  0  0  0  0  0  0  0  0
    7.0792   -9.0217   17.1429 C   0  0  0  0  0  0  0  0  0  0  0  0
    3.1713  -10.1816   17.6634 C   0  0  0  0  0  0  0  0  0  0  0  0
    2.7878   -8.3822   16.2137 C   0  0  0  0  0  0  0  0  0  0  0  0
    9.4601   -2.6590   25.6528 C   0  0  0  0  0  0  0  0  0  0  0  0
   10.1182   -1.5672   23.1165 C   0  0  0  0  0  0  0  0  0  0  0  0
    1.0552   -9.6360   17.0650 C   0  0  0  0  0  0  0  0  0  0  0  0
    3.6519   -9.1783   16.9039 C   0  0  0  0  0  0  0  0  0  0  0  0
    7.8675   -7.0096   15.9415 C   0  0  0  0  0  0  0  0  0  0  0  0
    5.9733   -9.6553   17.3832 N   0  0  0  0  0  0  0  0  0  0  0  0
   10.2411   -2.9363   23.4301 C   0  0  0  0  0  0  0  0  0  0  0  0
   10.7288   -3.8197   19.9525 C   0  0  0  0  0  0  0  0  0  0  0  0
   10.1189   -5.0054   19.6987 C   0  0  0  0  0  0  0  0  0  0  0  0
  1  3  4  0
  1  7  4  0
  2 21  4  0
  2 27  4  0
  3  9  4  0
  3 10  4  0
  4  8  4  0
  4 18  4  0
  4 25  1  0
  5  9  4  0
  5 12  4  0
  6 13  1  0
  6 27  1  0
  7 28  4  0
  8 11  4  0
  9 29  4  0
 10 12  4  0
 11 24  1  0
 11 26  4  0
 12 25  1  0
 13 28  1  0
 14 20  4  0
 14 23  4  0
 15 17  4  0
 15 21  4  0
 16 19  4  0
 16 23  4  0
 17 22  4  0
 18 26  4  0
 19 24  4  0
 20 24  4  0
 22 27  4  0
 28 29  4  0
M  END
$$$$

 Created by Python create_sdf_string function

 29 33  0  0  0  0  0  0  0  0999 V2000
   10.7215   -3.3326   17.6437 C   0  0  0  0  0  0  0  0  0  0  0  0
    9.9489   -3.4675   24.6487 N   0  0  0  0  0  0  0  0  0  0  0  0
   10.0172   -4.4740   17.4101 C   0  0  0  0  0  0  0  0  0  0  0  0
    6.9051   -7.9575   16.4222 C   0  0  0  0  0  0  0  0  0  0  0  0
    8.9969   -6.3552   17.9668 N   0  0  0  0  0  0  0  0  0  0  0  0
   10.6702   -3.9051   22.4070 C   0  0  0  0  0  0  0  0  0  0  0  0
   11.0625   -3.0028   18.8894 C   0  0  0  0  0  0  0  0  0  0  0  0
    5.6180   -7.9194   16.1754 O   0  0  0  0  0  0  0  0  0  0  0  0
    9.7259   -5.3080   18.4485 C   0  0  0  0  0  0  0  0  0  0  0  0
    9.4578   -5.0200   16.3036 N   0  0  0  0  0  0  0  0  0  0  0  0
    5.0287   -8.9365   16.8223 C   0  0  0  0  0  0  0  0  0  0  0  0
    8.7742   -6.1498   16.6764 C   0  0  0  0  0  0  0  0  0  0  0  0
   10.9418   -3.4032   21.2053 O   0  0  0  0  0  0  0  0  0  0  0  0
    1.4797   -8.6258   16.2950 C   0  0  0  0  0  0  0  0  0  0  0  0
    9.2861   -1.2743   25.3585 C   0  0  0  0  0  0  0  0  0  0  0  0
    1.8892  -10.3985   17.7511 N   0  0  0  0  0  0  0  0  0  0  0  0
    9.6210   -0.6952   24.0976 C   0  0  0  0  0  0  0  0  0  0  0  0
    7.0792   -9.0217   17.1429 C   0  0  0  0  0  0  0  0  0  0  0  0
    3.1713  -10.1816   17.6634 C   0  0  0  0  0  0  0  0  0  0  0  0
    2.7878   -8.3822   16.2137 C   0  0  0  0  0  0  0  0  0  0  0  0
    9.4601   -2.6590   25.6528 C   0  0  0  0  0  0  0  0  0  0  0  0
   10.1182   -1.5672   23.1165 C   0  0  0  0  0  0  0  0  0  0  0  0
    1.0552   -9.6360   17.0650 C   0  0  0  0  0  0  0  0  0  0  0  0
    3.6519   -9.1783   16.9039 C   0  0  0  0  0  0  0  0  0  0  0  0
    7.8675   -7.0096   15.9415 C   0  0  0  0  0  0  0  0  0  0  0  0
    5.9733   -9.6553   17.3832 N   0  0  0  0  0  0  0  0  0  0  0  0
   10.2411   -2.9363   23.4301 C   0  0  0  0  0  0  0  0  0  0  0  0
   10.7288   -3.8197   19.9525 C   0  0  0  0  0  0  0  0  0  0  0  0
   10.1189   -5.0054   19.6987 C   0  0  0  0  0  0  0  0  0  0  0  0
  1  3  4  0
  1  7  4  0
  2 21  4  0
  2 27  4  0
  3  9  4  0
  3 10  4  0
  4  8  4  0
  4 18  4  0
  4 25  1  0
  5  9  4  0
  5 12  4  0
  6 13  1  0
  6 27  1  0
  7 28  4  0
  8 11  4  0
  9 29  4  0
 10 12  4  0
 11 24  1  0
 11 26  4  0
 12 25  1  0
 13 28  1  0
 14 20  4  0
 14 23  4  0
 15 17  4  0
 15 21  4  0
 16 19  4  0
 16 23  4  0
 17 22  4  0
 18 26  4  0
 19 24  4  0
 20 24  4  0
 22 27  4  0
 28 29  4  0
M  END
$$$$

 Created by Python create_sdf_string function

 29 33  0  0  0  0  0  0  0  0999 V2000
   10.7215   -3.3326   17.6437 C   0  0  0  0  0  0  0  0  0  0  0  0
    9.9489   -3.4675   24.6487 N   0  0  0  0  0  0  0  0  0  0  0  0
   10.0172   -4.4740   17.4101 C   0  0  0  0  0  0  0  0  0  0  0  0
    6.9051   -7.9575   16.4222 C   0  0  0  0  0  0  0  0  0  0  0  0
    8.9969   -6.3552   17.9668 N   0  0  0  0  0  0  0  0  0  0  0  0
   10.6702   -3.9051   22.4070 C   0  0  0  0  0  0  0  0  0  0  0  0
   11.0625   -3.0028   18.8894 C   0  0  0  0  0  0  0  0  0  0  0  0
    5.6180   -7.9194   16.1754 O   0  0  0  0  0  0  0  0  0  0  0  0
    9.7259   -5.3080   18.4485 C   0  0  0  0  0  0  0  0  0  0  0  0
    9.4578   -5.0200   16.3036 N   0  0  0  0  0  0  0  0  0  0  0  0
    5.0287   -8.9365   16.8223 C   0  0  0  0  0  0  0  0  0  0  0  0
    8.7742   -6.1498   16.6764 C   0  0  0  0  0  0  0  0  0  0  0  0
   10.9418   -3.4032   21.2053 O   0  0  0  0  0  0  0  0  0  0  0  0
    1.4797   -8.6258   16.2950 C   0  0  0  0  0  0  0  0  0  0  0  0
    9.2861   -1.2743   25.3585 C   0  0  0  0  0  0  0  0  0  0  0  0
    1.8892  -10.3985   17.7511 N   0  0  0  0  0  0  0  0  0  0  0  0
    9.6210   -0.6952   24.0976 C   0  0  0  0  0  0  0  0  0  0  0  0
    7.0792   -9.0217   17.1429 C   0  0  0  0  0  0  0  0  0  0  0  0
    3.1713  -10.1816   17.6634 C   0  0  0  0  0  0  0  0  0  0  0  0
    2.7878   -8.3822   16.2137 C   0  0  0  0  0  0  0  0  0  0  0  0
    9.4601   -2.6590   25.6528 C   0  0  0  0  0  0  0  0  0  0  0  0
   10.1182   -1.5672   23.1165 C   0  0  0  0  0  0  0  0  0  0  0  0
    1.0552   -9.6360   17.0650 C   0  0  0  0  0  0  0  0  0  0  0  0
    3.6519   -9.1783   16.9039 C   0  0  0  0  0  0  0  0  0  0  0  0
    7.8675   -7.0096   15.9415 C   0  0  0  0  0  0  0  0  0  0  0  0
    5.9733   -9.6553   17.3832 N   0  0  0  0  0  0  0  0  0  0  0  0
   10.2411   -2.9363   23.4301 C   0  0  0  0  0  0  0  0  0  0  0  0
   10.7288   -3.8197   19.9525 C   0  0  0  0  0  0  0  0  0  0  0  0
   10.1189   -5.0054   19.6987 C   0  0  0  0  0  0  0  0  0  0  0  0
  1  3  4  0
  1  7  4  0
  2 21  4  0
  2 27  4  0
  3  9  4  0
  3 10  4  0
  4  8  4  0
  4 18  4  0
  4 25  1  0
  5  9  4  0
  5 12  4  0
  6 13  1  0
  6 27  1  0
  7 28  4  0
  8 11  4  0
  9 29  4  0
 10 12  4  0
 11 24  1  0
 11 26  4  0
 12 25  1  0
 13 28  1  0
 14 20  4  0
 14 23  4  0
 15 17  4  0
 15 21  4  0
 16 19  4  0
 16 23  4  0
 17 22  4  0
 18 26  4  0
 19 24  4  0
 20 24  4  0
 22 27  4  0
 28 29  4  0
M  END
$$$$

 Created by Python create_sdf_string function

 29 33  0  0  0  0  0  0  0  0999 V2000
   10.7215   -3.3326   17.6437 C   0  0  0  0  0  0  0  0  0  0  0  0
    9.9489   -3.4675   24.6487 N   0  0  0  0  0  0  0  0  0  0  0  0
   10.0172   -4.4740   17.4101 C   0  0  0  0  0  0  0  0  0  0  0  0
    6.9051   -7.9575   16.4222 C   0  0  0  0  0  0  0  0  0  0  0  0
    8.9969   -6.3552   17.9668 N   0  0  0  0  0  0  0  0  0  0  0  0
   10.6702   -3.9051   22.4070 C   0  0  0  0  0  0  0  0  0  0  0  0
   11.0625   -3.0028   18.8894 C   0  0  0  0  0  0  0  0  0  0  0  0
    5.6180   -7.9194   16.1754 O   0  0  0  0  0  0  0  0  0  0  0  0
    9.7259   -5.3080   18.4485 C   0  0  0  0  0  0  0  0  0  0  0  0
    9.4578   -5.0200   16.3036 N   0  0  0  0  0  0  0  0  0  0  0  0
    5.0287   -8.9365   16.8223 C   0  0  0  0  0  0  0  0  0  0  0  0
    8.7742   -6.1498   16.6764 C   0  0  0  0  0  0  0  0  0  0  0  0
   10.9418   -3.4032   21.2053 O   0  0  0  0  0  0  0  0  0  0  0  0
    1.4797   -8.6258   16.2950 C   0  0  0  0  0  0  0  0  0  0  0  0
    9.2861   -1.2743   25.3585 C   0  0  0  0  0  0  0  0  0  0  0  0
    1.8892  -10.3985   17.7511 N   0  0  0  0  0  0  0  0  0  0  0  0
    9.6210   -0.6952   24.0976 C   0  0  0  0  0  0  0  0  0  0  0  0
    7.0792   -9.0217   17.1429 C   0  0  0  0  0  0  0  0  0  0  0  0
    3.1713  -10.1816   17.6634 C   0  0  0  0  0  0  0  0  0  0  0  0
    2.7878   -8.3822   16.2137 C   0  0  0  0  0  0  0  0  0  0  0  0
    9.4601   -2.6590   25.6528 C   0  0  0  0  0  0  0  0  0  0  0  0
   10.1182   -1.5672   23.1165 C   0  0  0  0  0  0  0  0  0  0  0  0
    1.0552   -9.6360   17.0650 C   0  0  0  0  0  0  0  0  0  0  0  0
    3.6519   -9.1783   16.9039 C   0  0  0  0  0  0  0  0  0  0  0  0
    7.8675   -7.0096   15.9415 C   0  0  0  0  0  0  0  0  0  0  0  0
    5.9733   -9.6553   17.3832 N   0  0  0  0  0  0  0  0  0  0  0  0
   10.2411   -2.9363   23.4301 C   0  0  0  0  0  0  0  0  0  0  0  0
   10.7288   -3.8197   19.9525 C   0  0  0  0  0  0  0  0  0  0  0  0
   10.1189   -5.0054   19.6987 C   0  0  0  0  0  0  0  0  0  0  0  0
  1  3  4  0
  1  7  4  0
  2 21  4  0
  2 27  4  0
  3  9  4  0
  3 10  4  0
  4  8  4  0
  4 18  4  0
  4 25  1  0
  5  9  4  0
  5 12  4  0
  6 13  1  0
  6 27  1  0
  7 28  4  0
  8 11  4  0
  9 29  4  0
 10 12  4  0
 11 24  1  0
 11 26  4  0
 12 25  1  0
 13 28  1  0
 14 20  4  0
 14 23  4  0
 15 17  4  0
 15 21  4  0
 16 19  4  0
 16 23  4  0
 17 22  4  0
 18 26  4  0
 19 24  4  0
 20 24  4  0
 22 27  4  0
 28 29  4  0
M  END
$$$$

 Created by Python create_sdf_string function

 29 33  0  0  0  0  0  0  0  0999 V2000
   10.7215   -3.3326   17.6437 C   0  0  0  0  0  0  0  0  0  0  0  0
    9.9489   -3.4675   24.6487 N   0  0  0  0  0  0  0  0  0  0  0  0
   10.0172   -4.4740   17.4101 C   0  0  0  0  0  0  0  0  0  0  0  0
    6.9051   -7.9575   16.4222 C   0  0  0  0  0  0  0  0  0  0  0  0
    8.9969   -6.3552   17.9668 N   0  0  0  0  0  0  0  0  0  0  0  0
   10.6702   -3.9051   22.4070 C   0  0  0  0  0  0  0  0  0  0  0  0
   11.0625   -3.0028   18.8894 C   0  0  0  0  0  0  0  0  0  0  0  0
    5.6180   -7.9194   16.1754 O   0  0  0  0  0  0  0  0  0  0  0  0
    9.7259   -5.3080   18.4485 C   0  0  0  0  0  0  0  0  0  0  0  0
    9.4578   -5.0200   16.3036 N   0  0  0  0  0  0  0  0  0  0  0  0
    5.0287   -8.9365   16.8223 C   0  0  0  0  0  0  0  0  0  0  0  0
    8.7742   -6.1498   16.6764 C   0  0  0  0  0  0  0  0  0  0  0  0
   10.9418   -3.4032   21.2053 O   0  0  0  0  0  0  0  0  0  0  0  0
    1.4797   -8.6258   16.2950 C   0  0  0  0  0  0  0  0  0  0  0  0
    9.2861   -1.2743   25.3585 C   0  0  0  0  0  0  0  0  0  0  0  0
    1.8892  -10.3985   17.7511 N   0  0  0  0  0  0  0  0  0  0  0  0
    9.6210   -0.6952   24.0976 C   0  0  0  0  0  0  0  0  0  0  0  0
    7.0792   -9.0217   17.1429 C   0  0  0  0  0  0  0  0  0  0  0  0
    3.1713  -10.1816   17.6634 C   0  0  0  0  0  0  0  0  0  0  0  0
    2.7878   -8.3822   16.2137 C   0  0  0  0  0  0  0  0  0  0  0  0
    9.4601   -2.6590   25.6528 C   0  0  0  0  0  0  0  0  0  0  0  0
   10.1182   -1.5672   23.1165 C   0  0  0  0  0  0  0  0  0  0  0  0
    1.0552   -9.6360   17.0650 C   0  0  0  0  0  0  0  0  0  0  0  0
    3.6519   -9.1783   16.9039 C   0  0  0  0  0  0  0  0  0  0  0  0
    7.8675   -7.0096   15.9415 C   0  0  0  0  0  0  0  0  0  0  0  0
    5.9733   -9.6553   17.3832 N   0  0  0  0  0  0  0  0  0  0  0  0
   10.2411   -2.9363   23.4301 C   0  0  0  0  0  0  0  0  0  0  0  0
   10.7288   -3.8197   19.9525 C   0  0  0  0  0  0  0  0  0  0  0  0
   10.1189   -5.0054   19.6987 C   0  0  0  0  0  0  0  0  0  0  0  0
  1  3  4  0
  1  7  4  0
  2 21  4  0
  2 27  4  0
  3  9  4  0
  3 10  4  0
  4  8  4  0
  4 18  4  0
  4 25  1  0
  5  9  4  0
  5 12  4  0
  6 13  1  0
  6 27  1  0
  7 28  4  0
  8 11  4  0
  9 29  4  0
 10 12  4  0
 11 24  1  0
 11 26  4  0
 12 25  1  0
 13 28  1  0
 14 20  4  0
 14 23  4  0
 15 17  4  0
 15 21  4  0
 16 19  4  0
 16 23  4  0
 17 22  4  0
 18 26  4  0
 19 24  4  0
 20 24  4  0
 22 27  4  0
 28 29  4  0
M  END
$$$$

 Created by Python create_sdf_string function

 29 33  0  0  0  0  0  0  0  0999 V2000
   10.7215   -3.3326   17.6437 C   0  0  0  0  0  0  0  0  0  0  0  0
    9.9489   -3.4675   24.6487 N   0  0  0  0  0  0  0  0  0  0  0  0
   10.0172   -4.4740   17.4101 C   0  0  0  0  0  0  0  0  0  0  0  0
    6.9051   -7.9575   16.4222 C   0  0  0  0  0  0  0  0  0  0  0  0
    8.9969   -6.3552   17.9668 N   0  0  0  0  0  0  0  0  0  0  0  0
   10.6702   -3.9051   22.4070 C   0  0  0  0  0  0  0  0  0  0  0  0
   11.0625   -3.0028   18.8894 C   0  0  0  0  0  0  0  0  0  0  0  0
    5.6180   -7.9194   16.1754 O   0  0  0  0  0  0  0  0  0  0  0  0
    9.7259   -5.3080   18.4485 C   0  0  0  0  0  0  0  0  0  0  0  0
    9.4578   -5.0200   16.3036 N   0  0  0  0  0  0  0  0  0  0  0  0
    5.0287   -8.9365   16.8223 C   0  0  0  0  0  0  0  0  0  0  0  0
    8.7742   -6.1498   16.6764 C   0  0  0  0  0  0  0  0  0  0  0  0
   10.9418   -3.4032   21.2053 O   0  0  0  0  0  0  0  0  0  0  0  0
    1.4797   -8.6258   16.2950 C   0  0  0  0  0  0  0  0  0  0  0  0
    9.2861   -1.2743   25.3585 C   0  0  0  0  0  0  0  0  0  0  0  0
    1.8892  -10.3985   17.7511 N   0  0  0  0  0  0  0  0  0  0  0  0
    9.6210   -0.6952   24.0976 C   0  0  0  0  0  0  0  0  0  0  0  0
    7.0792   -9.0217   17.1429 C   0  0  0  0  0  0  0  0  0  0  0  0
    3.1713  -10.1816   17.6634 C   0  0  0  0  0  0  0  0  0  0  0  0
    2.7878   -8.3822   16.2137 C   0  0  0  0  0  0  0  0  0  0  0  0
    9.4601   -2.6590   25.6528 C   0  0  0  0  0  0  0  0  0  0  0  0
   10.1182   -1.5672   23.1165 C   0  0  0  0  0  0  0  0  0  0  0  0
    1.0552   -9.6360   17.0650 C   0  0  0  0  0  0  0  0  0  0  0  0
    3.6519   -9.1783   16.9039 C   0  0  0  0  0  0  0  0  0  0  0  0
    7.8675   -7.0096   15.9415 C   0  0  0  0  0  0  0  0  0  0  0  0
    5.9733   -9.6553   17.3832 N   0  0  0  0  0  0  0  0  0  0  0  0
   10.2411   -2.9363   23.4301 C   0  0  0  0  0  0  0  0  0  0  0  0
   10.7288   -3.8197   19.9525 C   0  0  0  0  0  0  0  0  0  0  0  0
   10.1189   -5.0054   19.6987 C   0  0  0  0  0  0  0  0  0  0  0  0
  1  3  4  0
  1  7  4  0
  2 21  4  0
  2 27  4  0
  3  9  4  0
  3 10  4  0
  4  8  4  0
  4 18  4  0
  4 25  1  0
  5  9  4  0
  5 12  4  0
  6 13  1  0
  6 27  1  0
  7 28  4  0
  8 11  4  0
  9 29  4  0
 10 12  4  0
 11 24  1  0
 11 26  4  0
 12 25  1  0
 13 28  1  0
 14 20  4  0
 14 23  4  0
 15 17  4  0
 15 21  4  0
 16 19  4  0
 16 23  4  0
 17 22  4  0
 18 26  4  0
 19 24  4  0
 20 24  4  0
 22 27  4  0
 28 29  4  0
M  END
$$$$

 Created by Python create_sdf_string function

 29 33  0  0  0  0  0  0  0  0999 V2000
   10.7215   -3.3326   17.6437 C   0  0  0  0  0  0  0  0  0  0  0  0
    9.9489   -3.4675   24.6487 N   0  0  0  0  0  0  0  0  0  0  0  0
   10.0172   -4.4740   17.4101 C   0  0  0  0  0  0  0  0  0  0  0  0
    6.9051   -7.9575   16.4222 C   0  0  0  0  0  0  0  0  0  0  0  0
    8.9969   -6.3552   17.9668 N   0  0  0  0  0  0  0  0  0  0  0  0
   10.6702   -3.9051   22.4070 C   0  0  0  0  0  0  0  0  0  0  0  0
   11.0625   -3.0028   18.8894 C   0  0  0  0  0  0  0  0  0  0  0  0
    5.6180   -7.9194   16.1754 O   0  0  0  0  0  0  0  0  0  0  0  0
    9.7259   -5.3080   18.4485 C   0  0  0  0  0  0  0  0  0  0  0  0
    9.4578   -5.0200   16.3036 N   0  0  0  0  0  0  0  0  0  0  0  0
    5.0287   -8.9365   16.8223 C   0  0  0  0  0  0  0  0  0  0  0  0
    8.7742   -6.1498   16.6764 C   0  0  0  0  0  0  0  0  0  0  0  0
   10.9418   -3.4032   21.2053 O   0  0  0  0  0  0  0  0  0  0  0  0
    1.4797   -8.6258   16.2950 C   0  0  0  0  0  0  0  0  0  0  0  0
    9.2861   -1.2743   25.3585 C   0  0  0  0  0  0  0  0  0  0  0  0
    1.8892  -10.3985   17.7511 N   0  0  0  0  0  0  0  0  0  0  0  0
    9.6210   -0.6952   24.0976 C   0  0  0  0  0  0  0  0  0  0  0  0
    7.0792   -9.0217   17.1429 C   0  0  0  0  0  0  0  0  0  0  0  0
    3.1713  -10.1816   17.6634 C   0  0  0  0  0  0  0  0  0  0  0  0
    2.7878   -8.3822   16.2137 C   0  0  0  0  0  0  0  0  0  0  0  0
    9.4601   -2.6590   25.6528 C   0  0  0  0  0  0  0  0  0  0  0  0
   10.1182   -1.5672   23.1165 C   0  0  0  0  0  0  0  0  0  0  0  0
    1.0552   -9.6360   17.0650 C   0  0  0  0  0  0  0  0  0  0  0  0
    3.6519   -9.1783   16.9039 C   0  0  0  0  0  0  0  0  0  0  0  0
    7.8675   -7.0096   15.9415 C   0  0  0  0  0  0  0  0  0  0  0  0
    5.9733   -9.6553   17.3832 N   0  0  0  0  0  0  0  0  0  0  0  0
   10.2411   -2.9363   23.4301 C   0  0  0  0  0  0  0  0  0  0  0  0
   10.7288   -3.8197   19.9525 C   0  0  0  0  0  0  0  0  0  0  0  0
   10.1189   -5.0054   19.6987 C   0  0  0  0  0  0  0  0  0  0  0  0
  1  3  4  0
  1  7  4  0
  2 21  4  0
  2 27  4  0
  3  9  4  0
  3 10  4  0
  4  8  4  0
  4 18  4  0
  4 25  1  0
  5  9  4  0
  5 12  4  0
  6 13  1  0
  6 27  1  0
  7 28  4  0
  8 11  4  0
  9 29  4  0
 10 12  4  0
 11 24  1  0
 11 26  4  0
 12 25  1  0
 13 28  1  0
 14 20  4  0
 14 23  4  0
 15 17  4  0
 15 21  4  0
 16 19  4  0
 16 23  4  0
 17 22  4  0
 18 26  4  0
 19 24  4  0
 20 24  4  0
 22 27  4  0
 28 29  4  0
M  END
$$$$

 Created by Python create_sdf_string function

 29 33  0  0  0  0  0  0  0  0999 V2000
   10.7215   -3.3326   17.6437 C   0  0  0  0  0  0  0  0  0  0  0  0
    9.9489   -3.4675   24.6487 N   0  0  0  0  0  0  0  0  0  0  0  0
   10.0172   -4.4740   17.4101 C   0  0  0  0  0  0  0  0  0  0  0  0
    6.9051   -7.9575   16.4222 C   0  0  0  0  0  0  0  0  0  0  0  0
    8.9969   -6.3552   17.9668 N   0  0  0  0  0  0  0  0  0  0  0  0
   10.6702   -3.9051   22.4070 C   0  0  0  0  0  0  0  0  0  0  0  0
   11.0625   -3.0028   18.8894 C   0  0  0  0  0  0  0  0  0  0  0  0
    5.6180   -7.9194   16.1754 O   0  0  0  0  0  0  0  0  0  0  0  0
    9.7259   -5.3080   18.4485 C   0  0  0  0  0  0  0  0  0  0  0  0
    9.4578   -5.0200   16.3036 N   0  0  0  0  0  0  0  0  0  0  0  0
    5.0287   -8.9365   16.8223 C   0  0  0  0  0  0  0  0  0  0  0  0
    8.7742   -6.1498   16.6764 C   0  0  0  0  0  0  0  0  0  0  0  0
   10.9418   -3.4032   21.2053 O   0  0  0  0  0  0  0  0  0  0  0  0
    1.4797   -8.6258   16.2950 C   0  0  0  0  0  0  0  0  0  0  0  0
    9.2861   -1.2743   25.3585 C   0  0  0  0  0  0  0  0  0  0  0  0
    1.8892  -10.3985   17.7511 N   0  0  0  0  0  0  0  0  0  0  0  0
    9.6210   -0.6952   24.0976 C   0  0  0  0  0  0  0  0  0  0  0  0
    7.0792   -9.0217   17.1429 C   0  0  0  0  0  0  0  0  0  0  0  0
    3.1713  -10.1816   17.6634 C   0  0  0  0  0  0  0  0  0  0  0  0
    2.7878   -8.3822   16.2137 C   0  0  0  0  0  0  0  0  0  0  0  0
    9.4601   -2.6590   25.6528 C   0  0  0  0  0  0  0  0  0  0  0  0
   10.1182   -1.5672   23.1165 C   0  0  0  0  0  0  0  0  0  0  0  0
    1.0552   -9.6360   17.0650 C   0  0  0  0  0  0  0  0  0  0  0  0
    3.6519   -9.1783   16.9039 C   0  0  0  0  0  0  0  0  0  0  0  0
    7.8675   -7.0096   15.9415 C   0  0  0  0  0  0  0  0  0  0  0  0
    5.9733   -9.6553   17.3832 N   0  0  0  0  0  0  0  0  0  0  0  0
   10.2411   -2.9363   23.4301 C   0  0  0  0  0  0  0  0  0  0  0  0
   10.7288   -3.8197   19.9525 C   0  0  0  0  0  0  0  0  0  0  0  0
   10.1189   -5.0054   19.6987 C   0  0  0  0  0  0  0  0  0  0  0  0
  1  3  4  0
  1  7  4  0
  2 21  4  0
  2 27  4  0
  3  9  4  0
  3 10  4  0
  4  8  4  0
  4 18  4  0
  4 25  1  0
  5  9  4  0
  5 12  4  0
  6 13  1  0
  6 27  1  0
  7 28  4  0
  8 11  4  0
  9 29  4  0
 10 12  4  0
 11 24  1  0
 11 26  4  0
 12 25  1  0
 13 28  1  0
 14 20  4  0
 14 23  4  0
 15 17  4  0
 15 21  4  0
 16 19  4  0
 16 23  4  0
 17 22  4  0
 18 26  4  0
 19 24  4  0
 20 24  4  0
 22 27  4  0
 28 29  4  0
M  END
$$$$

 Created by Python create_sdf_string function

 29 33  0  0  0  0  0  0  0  0999 V2000
   10.7215   -3.3326   17.6437 C   0  0  0  0  0  0  0  0  0  0  0  0
    9.9489   -3.4675   24.6487 N   0  0  0  0  0  0  0  0  0  0  0  0
   10.0172   -4.4740   17.4101 C   0  0  0  0  0  0  0  0  0  0  0  0
    6.9051   -7.9575   16.4222 C   0  0  0  0  0  0  0  0  0  0  0  0
    8.9969   -6.3552   17.9668 N   0  0  0  0  0  0  0  0  0  0  0  0
   10.6702   -3.9051   22.4070 C   0  0  0  0  0  0  0  0  0  0  0  0
   11.0625   -3.0028   18.8894 C   0  0  0  0  0  0  0  0  0  0  0  0
    5.6180   -7.9194   16.1754 O   0  0  0  0  0  0  0  0  0  0  0  0
    9.7259   -5.3080   18.4485 C   0  0  0  0  0  0  0  0  0  0  0  0
    9.4578   -5.0200   16.3036 N   0  0  0  0  0  0  0  0  0  0  0  0
    5.0287   -8.9365   16.8223 C   0  0  0  0  0  0  0  0  0  0  0  0
    8.7742   -6.1498   16.6764 C   0  0  0  0  0  0  0  0  0  0  0  0
   10.9418   -3.4032   21.2053 O   0  0  0  0  0  0  0  0  0  0  0  0
    1.4797   -8.6258   16.2950 C   0  0  0  0  0  0  0  0  0  0  0  0
    9.2861   -1.2743   25.3585 C   0  0  0  0  0  0  0  0  0  0  0  0
    1.8892  -10.3985   17.7511 N   0  0  0  0  0  0  0  0  0  0  0  0
    9.6210   -0.6952   24.0976 C   0  0  0  0  0  0  0  0  0  0  0  0
    7.0792   -9.0217   17.1429 C   0  0  0  0  0  0  0  0  0  0  0  0
    3.1713  -10.1816   17.6634 C   0  0  0  0  0  0  0  0  0  0  0  0
    2.7878   -8.3822   16.2137 C   0  0  0  0  0  0  0  0  0  0  0  0
    9.4601   -2.6590   25.6528 C   0  0  0  0  0  0  0  0  0  0  0  0
   10.1182   -1.5672   23.1165 C   0  0  0  0  0  0  0  0  0  0  0  0
    1.0552   -9.6360   17.0650 C   0  0  0  0  0  0  0  0  0  0  0  0
    3.6519   -9.1783   16.9039 C   0  0  0  0  0  0  0  0  0  0  0  0
    7.8675   -7.0096   15.9415 C   0  0  0  0  0  0  0  0  0  0  0  0
    5.9733   -9.6553   17.3832 N   0  0  0  0  0  0  0  0  0  0  0  0
   10.2411   -2.9363   23.4301 C   0  0  0  0  0  0  0  0  0  0  0  0
   10.7288   -3.8197   19.9525 C   0  0  0  0  0  0  0  0  0  0  0  0
   10.1189   -5.0054   19.6987 C   0  0  0  0  0  0  0  0  0  0  0  0
  1  3  4  0
  1  7  4  0
  2 21  4  0
  2 27  4  0
  3  9  4  0
  3 10  4  0
  4  8  4  0
  4 18  4  0
  4 25  1  0
  5  9  4  0
  5 12  4  0
  6 13  1  0
  6 27  1  0
  7 28  4  0
  8 11  4  0
  9 29  4  0
 10 12  4  0
 11 24  1  0
 11 26  4  0
 12 25  1  0
 13 28  1  0
 14 20  4  0
 14 23  4  0
 15 17  4  0
 15 21  4  0
 16 19  4  0
 16 23  4  0
 17 22  4  0
 18 26  4  0
 19 24  4  0
 20 24  4  0
 22 27  4  0
 28 29  4  0
M  END
$$$$

 Created by Python create_sdf_string function

 29 33  0  0  0  0  0  0  0  0999 V2000
   10.7215   -3.3326   17.6437 C   0  0  0  0  0  0  0  0  0  0  0  0
    9.9489   -3.4675   24.6487 N   0  0  0  0  0  0  0  0  0  0  0  0
   10.0172   -4.4740   17.4101 C   0  0  0  0  0  0  0  0  0  0  0  0
    6.9051   -7.9575   16.4222 C   0  0  0  0  0  0  0  0  0  0  0  0
    8.9969   -6.3552   17.9668 N   0  0  0  0  0  0  0  0  0  0  0  0
   10.6702   -3.9051   22.4070 C   0  0  0  0  0  0  0  0  0  0  0  0
   11.0625   -3.0028   18.8894 C   0  0  0  0  0  0  0  0  0  0  0  0
    5.6180   -7.9194   16.1754 O   0  0  0  0  0  0  0  0  0  0  0  0
    9.7259   -5.3080   18.4485 C   0  0  0  0  0  0  0  0  0  0  0  0
    9.4578   -5.0200   16.3036 N   0  0  0  0  0  0  0  0  0  0  0  0
    5.0287   -8.9365   16.8223 C   0  0  0  0  0  0  0  0  0  0  0  0
    8.7742   -6.1498   16.6764 C   0  0  0  0  0  0  0  0  0  0  0  0
   10.9418   -3.4032   21.2053 O   0  0  0  0  0  0  0  0  0  0  0  0
    1.4797   -8.6258   16.2950 C   0  0  0  0  0  0  0  0  0  0  0  0
    9.2861   -1.2743   25.3585 C   0  0  0  0  0  0  0  0  0  0  0  0
    1.8892  -10.3985   17.7511 N   0  0  0  0  0  0  0  0  0  0  0  0
    9.6210   -0.6952   24.0976 C   0  0  0  0  0  0  0  0  0  0  0  0
    7.0792   -9.0217   17.1429 C   0  0  0  0  0  0  0  0  0  0  0  0
    3.1713  -10.1816   17.6634 C   0  0  0  0  0  0  0  0  0  0  0  0
    2.7878   -8.3822   16.2137 C   0  0  0  0  0  0  0  0  0  0  0  0
    9.4601   -2.6590   25.6528 C   0  0  0  0  0  0  0  0  0  0  0  0
   10.1182   -1.5672   23.1165 C   0  0  0  0  0  0  0  0  0  0  0  0
    1.0552   -9.6360   17.0650 C   0  0  0  0  0  0  0  0  0  0  0  0
    3.6519   -9.1783   16.9039 C   0  0  0  0  0  0  0  0  0  0  0  0
    7.8675   -7.0096   15.9415 C   0  0  0  0  0  0  0  0  0  0  0  0
    5.9733   -9.6553   17.3832 N   0  0  0  0  0  0  0  0  0  0  0  0
   10.2411   -2.9363   23.4301 C   0  0  0  0  0  0  0  0  0  0  0  0
   10.7288   -3.8197   19.9525 C   0  0  0  0  0  0  0  0  0  0  0  0
   10.1189   -5.0054   19.6987 C   0  0  0  0  0  0  0  0  0  0  0  0
  1  3  4  0
  1  7  4  0
  2 21  4  0
  2 27  4  0
  3  9  4  0
  3 10  4  0
  4  8  4  0
  4 18  4  0
  4 25  1  0
  5  9  4  0
  5 12  4  0
  6 13  1  0
  6 27  1  0
  7 28  4  0
  8 11  4  0
  9 29  4  0
 10 12  4  0
 11 24  1  0
 11 26  4  0
 12 25  1  0
 13 28  1  0
 14 20  4  0
 14 23  4  0
 15 17  4  0
 15 21  4  0
 16 19  4  0
 16 23  4  0
 17 22  4  0
 18 26  4  0
 19 24  4  0
 20 24  4  0
 22 27  4  0
 28 29  4  0
M  END
$$$$

 Created by Python create_sdf_string function

 29 33  0  0  0  0  0  0  0  0999 V2000
   10.7215   -3.3326   17.6437 C   0  0  0  0  0  0  0  0  0  0  0  0
    9.9489   -3.4675   24.6487 N   0  0  0  0  0  0  0  0  0  0  0  0
   10.0172   -4.4740   17.4101 C   0  0  0  0  0  0  0  0  0  0  0  0
    6.9051   -7.9575   16.4222 C   0  0  0  0  0  0  0  0  0  0  0  0
    8.9969   -6.3552   17.9668 N   0  0  0  0  0  0  0  0  0  0  0  0
   10.6702   -3.9051   22.4070 C   0  0  0  0  0  0  0  0  0  0  0  0
   11.0625   -3.0028   18.8894 C   0  0  0  0  0  0  0  0  0  0  0  0
    5.6180   -7.9194   16.1754 O   0  0  0  0  0  0  0  0  0  0  0  0
    9.7259   -5.3080   18.4485 C   0  0  0  0  0  0  0  0  0  0  0  0
    9.4578   -5.0200   16.3036 N   0  0  0  0  0  0  0  0  0  0  0  0
    5.0287   -8.9365   16.8223 C   0  0  0  0  0  0  0  0  0  0  0  0
    8.7742   -6.1498   16.6764 C   0  0  0  0  0  0  0  0  0  0  0  0
   10.9418   -3.4032   21.2053 O   0  0  0  0  0  0  0  0  0  0  0  0
    1.4797   -8.6258   16.2950 C   0  0  0  0  0  0  0  0  0  0  0  0
    9.2861   -1.2743   25.3585 C   0  0  0  0  0  0  0  0  0  0  0  0
    1.8892  -10.3985   17.7511 N   0  0  0  0  0  0  0  0  0  0  0  0
    9.6210   -0.6952   24.0976 C   0  0  0  0  0  0  0  0  0  0  0  0
    7.0792   -9.0217   17.1429 C   0  0  0  0  0  0  0  0  0  0  0  0
    3.1713  -10.1816   17.6634 C   0  0  0  0  0  0  0  0  0  0  0  0
    2.7878   -8.3822   16.2137 C   0  0  0  0  0  0  0  0  0  0  0  0
    9.4601   -2.6590   25.6528 C   0  0  0  0  0  0  0  0  0  0  0  0
   10.1182   -1.5672   23.1165 C   0  0  0  0  0  0  0  0  0  0  0  0
    1.0552   -9.6360   17.0650 C   0  0  0  0  0  0  0  0  0  0  0  0
    3.6519   -9.1783   16.9039 C   0  0  0  0  0  0  0  0  0  0  0  0
    7.8675   -7.0096   15.9415 C   0  0  0  0  0  0  0  0  0  0  0  0
    5.9733   -9.6553   17.3832 N   0  0  0  0  0  0  0  0  0  0  0  0
   10.2411   -2.9363   23.4301 C   0  0  0  0  0  0  0  0  0  0  0  0
   10.7288   -3.8197   19.9525 C   0  0  0  0  0  0  0  0  0  0  0  0
   10.1189   -5.0054   19.6987 C   0  0  0  0  0  0  0  0  0  0  0  0
  1  3  4  0
  1  7  4  0
  2 21  4  0
  2 27  4  0
  3  9  4  0
  3 10  4  0
  4  8  4  0
  4 18  4  0
  4 25  1  0
  5  9  4  0
  5 12  4  0
  6 13  1  0
  6 27  1  0
  7 28  4  0
  8 11  4  0
  9 29  4  0
 10 12  4  0
 11 24  1  0
 11 26  4  0
 12 25  1  0
 13 28  1  0
 14 20  4  0
 14 23  4  0
 15 17  4  0
 15 21  4  0
 16 19  4  0
 16 23  4  0
 17 22  4  0
 18 26  4  0
 19 24  4  0
 20 24  4  0
 22 27  4  0
 28 29  4  0
M  END
$$$$

 Created by Python create_sdf_string function

 29 33  0  0  0  0  0  0  0  0999 V2000
   10.7215   -3.3326   17.6437 C   0  0  0  0  0  0  0  0  0  0  0  0
    9.9489   -3.4675   24.6487 N   0  0  0  0  0  0  0  0  0  0  0  0
   10.0172   -4.4740   17.4101 C   0  0  0  0  0  0  0  0  0  0  0  0
    6.9051   -7.9575   16.4222 C   0  0  0  0  0  0  0  0  0  0  0  0
    8.9969   -6.3552   17.9668 N   0  0  0  0  0  0  0  0  0  0  0  0
   10.6702   -3.9051   22.4070 C   0  0  0  0  0  0  0  0  0  0  0  0
   11.0625   -3.0028   18.8894 C   0  0  0  0  0  0  0  0  0  0  0  0
    5.6180   -7.9194   16.1754 O   0  0  0  0  0  0  0  0  0  0  0  0
    9.7259   -5.3080   18.4485 C   0  0  0  0  0  0  0  0  0  0  0  0
    9.4578   -5.0200   16.3036 N   0  0  0  0  0  0  0  0  0  0  0  0
    5.0287   -8.9365   16.8223 C   0  0  0  0  0  0  0  0  0  0  0  0
    8.7742   -6.1498   16.6764 C   0  0  0  0  0  0  0  0  0  0  0  0
   10.9418   -3.4032   21.2053 O   0  0  0  0  0  0  0  0  0  0  0  0
    1.4797   -8.6258   16.2950 C   0  0  0  0  0  0  0  0  0  0  0  0
    9.2861   -1.2743   25.3585 C   0  0  0  0  0  0  0  0  0  0  0  0
    1.8892  -10.3985   17.7511 N   0  0  0  0  0  0  0  0  0  0  0  0
    9.6210   -0.6952   24.0976 C   0  0  0  0  0  0  0  0  0  0  0  0
    7.0792   -9.0217   17.1429 C   0  0  0  0  0  0  0  0  0  0  0  0
    3.1713  -10.1816   17.6634 C   0  0  0  0  0  0  0  0  0  0  0  0
    2.7878   -8.3822   16.2137 C   0  0  0  0  0  0  0  0  0  0  0  0
    9.4601   -2.6590   25.6528 C   0  0  0  0  0  0  0  0  0  0  0  0
   10.1182   -1.5672   23.1165 C   0  0  0  0  0  0  0  0  0  0  0  0
    1.0552   -9.6360   17.0650 C   0  0  0  0  0  0  0  0  0  0  0  0
    3.6519   -9.1783   16.9039 C   0  0  0  0  0  0  0  0  0  0  0  0
    7.8675   -7.0096   15.9415 C   0  0  0  0  0  0  0  0  0  0  0  0
    5.9733   -9.6553   17.3832 N   0  0  0  0  0  0  0  0  0  0  0  0
   10.2411   -2.9363   23.4301 C   0  0  0  0  0  0  0  0  0  0  0  0
   10.7288   -3.8197   19.9525 C   0  0  0  0  0  0  0  0  0  0  0  0
   10.1189   -5.0054   19.6987 C   0  0  0  0  0  0  0  0  0  0  0  0
  1  3  4  0
  1  7  4  0
  2 21  4  0
  2 27  4  0
  3  9  4  0
  3 10  4  0
  4  8  4  0
  4 18  4  0
  4 25  1  0
  5  9  4  0
  5 12  4  0
  6 13  1  0
  6 27  1  0
  7 28  4  0
  8 11  4  0
  9 29  4  0
 10 12  4  0
 11 24  1  0
 11 26  4  0
 12 25  1  0
 13 28  1  0
 14 20  4  0
 14 23  4  0
 15 17  4  0
 15 21  4  0
 16 19  4  0
 16 23  4  0
 17 22  4  0
 18 26  4  0
 19 24  4  0
 20 24  4  0
 22 27  4  0
 28 29  4  0
M  END
$$$$

 Created by Python create_sdf_string function

 29 33  0  0  0  0  0  0  0  0999 V2000
   10.7215   -3.3326   17.6437 C   0  0  0  0  0  0  0  0  0  0  0  0
    9.9489   -3.4675   24.6487 N   0  0  0  0  0  0  0  0  0  0  0  0
   10.0172   -4.4740   17.4101 C   0  0  0  0  0  0  0  0  0  0  0  0
    6.9051   -7.9575   16.4222 C   0  0  0  0  0  0  0  0  0  0  0  0
    8.9969   -6.3552   17.9668 N   0  0  0  0  0  0  0  0  0  0  0  0
   10.6702   -3.9051   22.4070 C   0  0  0  0  0  0  0  0  0  0  0  0
   11.0625   -3.0028   18.8894 C   0  0  0  0  0  0  0  0  0  0  0  0
    5.6180   -7.9194   16.1754 O   0  0  0  0  0  0  0  0  0  0  0  0
    9.7259   -5.3080   18.4485 C   0  0  0  0  0  0  0  0  0  0  0  0
    9.4578   -5.0200   16.3036 N   0  0  0  0  0  0  0  0  0  0  0  0
    5.0287   -8.9365   16.8223 C   0  0  0  0  0  0  0  0  0  0  0  0
    8.7742   -6.1498   16.6764 C   0  0  0  0  0  0  0  0  0  0  0  0
   10.9418   -3.4032   21.2053 O   0  0  0  0  0  0  0  0  0  0  0  0
    1.4797   -8.6258   16.2950 C   0  0  0  0  0  0  0  0  0  0  0  0
    9.2861   -1.2743   25.3585 C   0  0  0  0  0  0  0  0  0  0  0  0
    1.8892  -10.3985   17.7511 N   0  0  0  0  0  0  0  0  0  0  0  0
    9.6210   -0.6952   24.0976 C   0  0  0  0  0  0  0  0  0  0  0  0
    7.0792   -9.0217   17.1429 C   0  0  0  0  0  0  0  0  0  0  0  0
    3.1713  -10.1816   17.6634 C   0  0  0  0  0  0  0  0  0  0  0  0
    2.7878   -8.3822   16.2137 C   0  0  0  0  0  0  0  0  0  0  0  0
    9.4601   -2.6590   25.6528 C   0  0  0  0  0  0  0  0  0  0  0  0
   10.1182   -1.5672   23.1165 C   0  0  0  0  0  0  0  0  0  0  0  0
    1.0552   -9.6360   17.0650 C   0  0  0  0  0  0  0  0  0  0  0  0
    3.6519   -9.1783   16.9039 C   0  0  0  0  0  0  0  0  0  0  0  0
    7.8675   -7.0096   15.9415 C   0  0  0  0  0  0  0  0  0  0  0  0
    5.9733   -9.6553   17.3832 N   0  0  0  0  0  0  0  0  0  0  0  0
   10.2411   -2.9363   23.4301 C   0  0  0  0  0  0  0  0  0  0  0  0
   10.7288   -3.8197   19.9525 C   0  0  0  0  0  0  0  0  0  0  0  0
   10.1189   -5.0054   19.6987 C   0  0  0  0  0  0  0  0  0  0  0  0
  1  3  4  0
  1  7  4  0
  2 21  4  0
  2 27  4  0
  3  9  4  0
  3 10  4  0
  4  8  4  0
  4 18  4  0
  4 25  1  0
  5  9  4  0
  5 12  4  0
  6 13  1  0
  6 27  1  0
  7 28  4  0
  8 11  4  0
  9 29  4  0
 10 12  4  0
 11 24  1  0
 11 26  4  0
 12 25  1  0
 13 28  1  0
 14 20  4  0
 14 23  4  0
 15 17  4  0
 15 21  4  0
 16 19  4  0
 16 23  4  0
 17 22  4  0
 18 26  4  0
 19 24  4  0
 20 24  4  0
 22 27  4  0
 28 29  4  0
M  END
$$$$

 Created by Python create_sdf_string function

 29 33  0  0  0  0  0  0  0  0999 V2000
   10.7215   -3.3326   17.6437 C   0  0  0  0  0  0  0  0  0  0  0  0
    9.9489   -3.4675   24.6487 N   0  0  0  0  0  0  0  0  0  0  0  0
   10.0172   -4.4740   17.4101 C   0  0  0  0  0  0  0  0  0  0  0  0
    6.9051   -7.9575   16.4222 C   0  0  0  0  0  0  0  0  0  0  0  0
    8.9969   -6.3552   17.9668 N   0  0  0  0  0  0  0  0  0  0  0  0
   10.6702   -3.9051   22.4070 C   0  0  0  0  0  0  0  0  0  0  0  0
   11.0625   -3.0028   18.8894 C   0  0  0  0  0  0  0  0  0  0  0  0
    5.6180   -7.9194   16.1754 O   0  0  0  0  0  0  0  0  0  0  0  0
    9.7259   -5.3080   18.4485 C   0  0  0  0  0  0  0  0  0  0  0  0
    9.4578   -5.0200   16.3036 N   0  0  0  0  0  0  0  0  0  0  0  0
    5.0287   -8.9365   16.8223 C   0  0  0  0  0  0  0  0  0  0  0  0
    8.7742   -6.1498   16.6764 C   0  0  0  0  0  0  0  0  0  0  0  0
   10.9418   -3.4032   21.2053 O   0  0  0  0  0  0  0  0  0  0  0  0
    1.4797   -8.6258   16.2950 C   0  0  0  0  0  0  0  0  0  0  0  0
    9.2861   -1.2743   25.3585 C   0  0  0  0  0  0  0  0  0  0  0  0
    1.8892  -10.3985   17.7511 N   0  0  0  0  0  0  0  0  0  0  0  0
    9.6210   -0.6952   24.0976 C   0  0  0  0  0  0  0  0  0  0  0  0
    7.0792   -9.0217   17.1429 C   0  0  0  0  0  0  0  0  0  0  0  0
    3.1713  -10.1816   17.6634 C   0  0  0  0  0  0  0  0  0  0  0  0
    2.7878   -8.3822   16.2137 C   0  0  0  0  0  0  0  0  0  0  0  0
    9.4601   -2.6590   25.6528 C   0  0  0  0  0  0  0  0  0  0  0  0
   10.1182   -1.5672   23.1165 C   0  0  0  0  0  0  0  0  0  0  0  0
    1.0552   -9.6360   17.0650 C   0  0  0  0  0  0  0  0  0  0  0  0
    3.6519   -9.1783   16.9039 C   0  0  0  0  0  0  0  0  0  0  0  0
    7.8675   -7.0096   15.9415 C   0  0  0  0  0  0  0  0  0  0  0  0
    5.9733   -9.6553   17.3832 N   0  0  0  0  0  0  0  0  0  0  0  0
   10.2411   -2.9363   23.4301 C   0  0  0  0  0  0  0  0  0  0  0  0
   10.7288   -3.8197   19.9525 C   0  0  0  0  0  0  0  0  0  0  0  0
   10.1189   -5.0054   19.6987 C   0  0  0  0  0  0  0  0  0  0  0  0
  1  3  4  0
  1  7  4  0
  2 21  4  0
  2 27  4  0
  3  9  4  0
  3 10  4  0
  4  8  4  0
  4 18  4  0
  4 25  1  0
  5  9  4  0
  5 12  4  0
  6 13  1  0
  6 27  1  0
  7 28  4  0
  8 11  4  0
  9 29  4  0
 10 12  4  0
 11 24  1  0
 11 26  4  0
 12 25  1  0
 13 28  1  0
 14 20  4  0
 14 23  4  0
 15 17  4  0
 15 21  4  0
 16 19  4  0
 16 23  4  0
 17 22  4  0
 18 26  4  0
 19 24  4  0
 20 24  4  0
 22 27  4  0
 28 29  4  0
M  END
$$$$

 Created by Python create_sdf_string function

 29 33  0  0  0  0  0  0  0  0999 V2000
   10.7215   -3.3326   17.6437 C   0  0  0  0  0  0  0  0  0  0  0  0
    9.9489   -3.4675   24.6487 N   0  0  0  0  0  0  0  0  0  0  0  0
   10.0172   -4.4740   17.4101 C   0  0  0  0  0  0  0  0  0  0  0  0
    6.9051   -7.9575   16.4222 C   0  0  0  0  0  0  0  0  0  0  0  0
    8.9969   -6.3552   17.9668 N   0  0  0  0  0  0  0  0  0  0  0  0
   10.6702   -3.9051   22.4070 C   0  0  0  0  0  0  0  0  0  0  0  0
   11.0625   -3.0028   18.8894 C   0  0  0  0  0  0  0  0  0  0  0  0
    5.6180   -7.9194   16.1754 O   0  0  0  0  0  0  0  0  0  0  0  0
    9.7259   -5.3080   18.4485 C   0  0  0  0  0  0  0  0  0  0  0  0
    9.4578   -5.0200   16.3036 N   0  0  0  0  0  0  0  0  0  0  0  0
    5.0287   -8.9365   16.8223 C   0  0  0  0  0  0  0  0  0  0  0  0
    8.7742   -6.1498   16.6764 C   0  0  0  0  0  0  0  0  0  0  0  0
   10.9418   -3.4032   21.2053 O   0  0  0  0  0  0  0  0  0  0  0  0
    1.4797   -8.6258   16.2950 C   0  0  0  0  0  0  0  0  0  0  0  0
    9.2861   -1.2743   25.3585 C   0  0  0  0  0  0  0  0  0  0  0  0
    1.8892  -10.3985   17.7511 N   0  0  0  0  0  0  0  0  0  0  0  0
    9.6210   -0.6952   24.0976 C   0  0  0  0  0  0  0  0  0  0  0  0
    7.0792   -9.0217   17.1429 C   0  0  0  0  0  0  0  0  0  0  0  0
    3.1713  -10.1816   17.6634 C   0  0  0  0  0  0  0  0  0  0  0  0
    2.7878   -8.3822   16.2137 C   0  0  0  0  0  0  0  0  0  0  0  0
    9.4601   -2.6590   25.6528 C   0  0  0  0  0  0  0  0  0  0  0  0
   10.1182   -1.5672   23.1165 C   0  0  0  0  0  0  0  0  0  0  0  0
    1.0552   -9.6360   17.0650 C   0  0  0  0  0  0  0  0  0  0  0  0
    3.6519   -9.1783   16.9039 C   0  0  0  0  0  0  0  0  0  0  0  0
    7.8675   -7.0096   15.9415 C   0  0  0  0  0  0  0  0  0  0  0  0
    5.9733   -9.6553   17.3832 N   0  0  0  0  0  0  0  0  0  0  0  0
   10.2411   -2.9363   23.4301 C   0  0  0  0  0  0  0  0  0  0  0  0
   10.7288   -3.8197   19.9525 C   0  0  0  0  0  0  0  0  0  0  0  0
   10.1189   -5.0054   19.6987 C   0  0  0  0  0  0  0  0  0  0  0  0
  1  3  4  0
  1  7  4  0
  2 21  4  0
  2 27  4  0
  3  9  4  0
  3 10  4  0
  4  8  4  0
  4 18  4  0
  4 25  1  0
  5  9  4  0
  5 12  4  0
  6 13  1  0
  6 27  1  0
  7 28  4  0
  8 11  4  0
  9 29  4  0
 10 12  4  0
 11 24  1  0
 11 26  4  0
 12 25  1  0
 13 28  1  0
 14 20  4  0
 14 23  4  0
 15 17  4  0
 15 21  4  0
 16 19  4  0
 16 23  4  0
 17 22  4  0
 18 26  4  0
 19 24  4  0
 20 24  4  0
 22 27  4  0
 28 29  4  0
M  END
$$$$

 Created by Python create_sdf_string function

 29 33  0  0  0  0  0  0  0  0999 V2000
   10.7215   -3.3326   17.6437 C   0  0  0  0  0  0  0  0  0  0  0  0
    9.9489   -3.4675   24.6487 N   0  0  0  0  0  0  0  0  0  0  0  0
   10.0172   -4.4740   17.4101 C   0  0  0  0  0  0  0  0  0  0  0  0
    6.9051   -7.9575   16.4222 C   0  0  0  0  0  0  0  0  0  0  0  0
    8.9969   -6.3552   17.9668 N   0  0  0  0  0  0  0  0  0  0  0  0
   10.6702   -3.9051   22.4070 C   0  0  0  0  0  0  0  0  0  0  0  0
   11.0625   -3.0028   18.8894 C   0  0  0  0  0  0  0  0  0  0  0  0
    5.6180   -7.9194   16.1754 O   0  0  0  0  0  0  0  0  0  0  0  0
    9.7259   -5.3080   18.4485 C   0  0  0  0  0  0  0  0  0  0  0  0
    9.4578   -5.0200   16.3036 N   0  0  0  0  0  0  0  0  0  0  0  0
    5.0287   -8.9365   16.8223 C   0  0  0  0  0  0  0  0  0  0  0  0
    8.7742   -6.1498   16.6764 C   0  0  0  0  0  0  0  0  0  0  0  0
   10.9418   -3.4032   21.2053 O   0  0  0  0  0  0  0  0  0  0  0  0
    1.4797   -8.6258   16.2950 C   0  0  0  0  0  0  0  0  0  0  0  0
    9.2861   -1.2743   25.3585 C   0  0  0  0  0  0  0  0  0  0  0  0
    1.8892  -10.3985   17.7511 N   0  0  0  0  0  0  0  0  0  0  0  0
    9.6210   -0.6952   24.0976 C   0  0  0  0  0  0  0  0  0  0  0  0
    7.0792   -9.0217   17.1429 C   0  0  0  0  0  0  0  0  0  0  0  0
    3.1713  -10.1816   17.6634 C   0  0  0  0  0  0  0  0  0  0  0  0
    2.7878   -8.3822   16.2137 C   0  0  0  0  0  0  0  0  0  0  0  0
    9.4601   -2.6590   25.6528 C   0  0  0  0  0  0  0  0  0  0  0  0
   10.1182   -1.5672   23.1165 C   0  0  0  0  0  0  0  0  0  0  0  0
    1.0552   -9.6360   17.0650 C   0  0  0  0  0  0  0  0  0  0  0  0
    3.6519   -9.1783   16.9039 C   0  0  0  0  0  0  0  0  0  0  0  0
    7.8675   -7.0096   15.9415 C   0  0  0  0  0  0  0  0  0  0  0  0
    5.9733   -9.6553   17.3832 N   0  0  0  0  0  0  0  0  0  0  0  0
   10.2411   -2.9363   23.4301 C   0  0  0  0  0  0  0  0  0  0  0  0
   10.7288   -3.8197   19.9525 C   0  0  0  0  0  0  0  0  0  0  0  0
   10.1189   -5.0054   19.6987 C   0  0  0  0  0  0  0  0  0  0  0  0
  1  3  4  0
  1  7  4  0
  2 21  4  0
  2 27  4  0
  3  9  4  0
  3 10  4  0
  4  8  4  0
  4 18  4  0
  4 25  1  0
  5  9  4  0
  5 12  4  0
  6 13  1  0
  6 27  1  0
  7 28  4  0
  8 11  4  0
  9 29  4  0
 10 12  4  0
 11 24  1  0
 11 26  4  0
 12 25  1  0
 13 28  1  0
 14 20  4  0
 14 23  4  0
 15 17  4  0
 15 21  4  0
 16 19  4  0
 16 23  4  0
 17 22  4  0
 18 26  4  0
 19 24  4  0
 20 24  4  0
 22 27  4  0
 28 29  4  0
M  END
$$$$

 Created by Python create_sdf_string function

 29 33  0  0  0  0  0  0  0  0999 V2000
   10.7215   -3.3326   17.6437 C   0  0  0  0  0  0  0  0  0  0  0  0
    9.9489   -3.4675   24.6487 N   0  0  0  0  0  0  0  0  0  0  0  0
   10.0172   -4.4740   17.4101 C   0  0  0  0  0  0  0  0  0  0  0  0
    6.9051   -7.9575   16.4222 C   0  0  0  0  0  0  0  0  0  0  0  0
    8.9969   -6.3552   17.9668 N   0  0  0  0  0  0  0  0  0  0  0  0
   10.6702   -3.9051   22.4070 C   0  0  0  0  0  0  0  0  0  0  0  0
   11.0625   -3.0028   18.8894 C   0  0  0  0  0  0  0  0  0  0  0  0
    5.6180   -7.9194   16.1754 O   0  0  0  0  0  0  0  0  0  0  0  0
    9.7259   -5.3080   18.4485 C   0  0  0  0  0  0  0  0  0  0  0  0
    9.4578   -5.0200   16.3036 N   0  0  0  0  0  0  0  0  0  0  0  0
    5.0287   -8.9365   16.8223 C   0  0  0  0  0  0  0  0  0  0  0  0
    8.7742   -6.1498   16.6764 C   0  0  0  0  0  0  0  0  0  0  0  0
   10.9418   -3.4032   21.2053 O   0  0  0  0  0  0  0  0  0  0  0  0
    1.4797   -8.6258   16.2950 C   0  0  0  0  0  0  0  0  0  0  0  0
    9.2861   -1.2743   25.3585 C   0  0  0  0  0  0  0  0  0  0  0  0
    1.8892  -10.3985   17.7511 N   0  0  0  0  0  0  0  0  0  0  0  0
    9.6210   -0.6952   24.0976 C   0  0  0  0  0  0  0  0  0  0  0  0
    7.0792   -9.0217   17.1429 C   0  0  0  0  0  0  0  0  0  0  0  0
    3.1713  -10.1816   17.6634 C   0  0  0  0  0  0  0  0  0  0  0  0
    2.7878   -8.3822   16.2137 C   0  0  0  0  0  0  0  0  0  0  0  0
    9.4601   -2.6590   25.6528 C   0  0  0  0  0  0  0  0  0  0  0  0
   10.1182   -1.5672   23.1165 C   0  0  0  0  0  0  0  0  0  0  0  0
    1.0552   -9.6360   17.0650 C   0  0  0  0  0  0  0  0  0  0  0  0
    3.6519   -9.1783   16.9039 C   0  0  0  0  0  0  0  0  0  0  0  0
    7.8675   -7.0096   15.9415 C   0  0  0  0  0  0  0  0  0  0  0  0
    5.9733   -9.6553   17.3832 N   0  0  0  0  0  0  0  0  0  0  0  0
   10.2411   -2.9363   23.4301 C   0  0  0  0  0  0  0  0  0  0  0  0
   10.7288   -3.8197   19.9525 C   0  0  0  0  0  0  0  0  0  0  0  0
   10.1189   -5.0054   19.6987 C   0  0  0  0  0  0  0  0  0  0  0  0
  1  3  4  0
  1  7  4  0
  2 21  4  0
  2 27  4  0
  3  9  4  0
  3 10  4  0
  4  8  4  0
  4 18  4  0
  4 25  1  0
  5  9  4  0
  5 12  4  0
  6 13  1  0
  6 27  1  0
  7 28  4  0
  8 11  4  0
  9 29  4  0
 10 12  4  0
 11 24  1  0
 11 26  4  0
 12 25  1  0
 13 28  1  0
 14 20  4  0
 14 23  4  0
 15 17  4  0
 15 21  4  0
 16 19  4  0
 16 23  4  0
 17 22  4  0
 18 26  4  0
 19 24  4  0
 20 24  4  0
 22 27  4  0
 28 29  4  0
M  END
$$$$

 Created by Python create_sdf_string function

 29 33  0  0  0  0  0  0  0  0999 V2000
   10.7215   -3.3326   17.6437 C   0  0  0  0  0  0  0  0  0  0  0  0
    9.9489   -3.4675   24.6487 N   0  0  0  0  0  0  0  0  0  0  0  0
   10.0172   -4.4740   17.4101 C   0  0  0  0  0  0  0  0  0  0  0  0
    6.9051   -7.9575   16.4222 C   0  0  0  0  0  0  0  0  0  0  0  0
    8.9969   -6.3552   17.9668 N   0  0  0  0  0  0  0  0  0  0  0  0
   10.6702   -3.9051   22.4070 C   0  0  0  0  0  0  0  0  0  0  0  0
   11.0625   -3.0028   18.8894 C   0  0  0  0  0  0  0  0  0  0  0  0
    5.6180   -7.9194   16.1754 O   0  0  0  0  0  0  0  0  0  0  0  0
    9.7259   -5.3080   18.4485 C   0  0  0  0  0  0  0  0  0  0  0  0
    9.4578   -5.0200   16.3036 N   0  0  0  0  0  0  0  0  0  0  0  0
    5.0287   -8.9365   16.8223 C   0  0  0  0  0  0  0  0  0  0  0  0
    8.7742   -6.1498   16.6764 C   0  0  0  0  0  0  0  0  0  0  0  0
   10.9418   -3.4032   21.2053 O   0  0  0  0  0  0  0  0  0  0  0  0
    1.4797   -8.6258   16.2950 C   0  0  0  0  0  0  0  0  0  0  0  0
    9.2861   -1.2743   25.3585 C   0  0  0  0  0  0  0  0  0  0  0  0
    1.8892  -10.3985   17.7511 N   0  0  0  0  0  0  0  0  0  0  0  0
    9.6210   -0.6952   24.0976 C   0  0  0  0  0  0  0  0  0  0  0  0
    7.0792   -9.0217   17.1429 C   0  0  0  0  0  0  0  0  0  0  0  0
    3.1713  -10.1816   17.6634 C   0  0  0  0  0  0  0  0  0  0  0  0
    2.7878   -8.3822   16.2137 C   0  0  0  0  0  0  0  0  0  0  0  0
    9.4601   -2.6590   25.6528 C   0  0  0  0  0  0  0  0  0  0  0  0
   10.1182   -1.5672   23.1165 C   0  0  0  0  0  0  0  0  0  0  0  0
    1.0552   -9.6360   17.0650 C   0  0  0  0  0  0  0  0  0  0  0  0
    3.6519   -9.1783   16.9039 C   0  0  0  0  0  0  0  0  0  0  0  0
    7.8675   -7.0096   15.9415 C   0  0  0  0  0  0  0  0  0  0  0  0
    5.9733   -9.6553   17.3832 N   0  0  0  0  0  0  0  0  0  0  0  0
   10.2411   -2.9363   23.4301 C   0  0  0  0  0  0  0  0  0  0  0  0
   10.7288   -3.8197   19.9525 C   0  0  0  0  0  0  0  0  0  0  0  0
   10.1189   -5.0054   19.6987 C   0  0  0  0  0  0  0  0  0  0  0  0
  1  3  4  0
  1  7  4  0
  2 21  4  0
  2 27  4  0
  3  9  4  0
  3 10  4  0
  4  8  4  0
  4 18  4  0
  4 25  1  0
  5  9  4  0
  5 12  4  0
  6 13  1  0
  6 27  1  0
  7 28  4  0
  8 11  4  0
  9 29  4  0
 10 12  4  0
 11 24  1  0
 11 26  4  0
 12 25  1  0
 13 28  1  0
 14 20  4  0
 14 23  4  0
 15 17  4  0
 15 21  4  0
 16 19  4  0
 16 23  4  0
 17 22  4  0
 18 26  4  0
 19 24  4  0
 20 24  4  0
 22 27  4  0
 28 29  4  0
M  END
$$$$

 Created by Python create_sdf_string function

 29 33  0  0  0  0  0  0  0  0999 V2000
   10.7215   -3.3326   17.6437 C   0  0  0  0  0  0  0  0  0  0  0  0
    9.9489   -3.4675   24.6487 N   0  0  0  0  0  0  0  0  0  0  0  0
   10.0172   -4.4740   17.4101 C   0  0  0  0  0  0  0  0  0  0  0  0
    6.9051   -7.9575   16.4222 C   0  0  0  0  0  0  0  0  0  0  0  0
    8.9969   -6.3552   17.9668 N   0  0  0  0  0  0  0  0  0  0  0  0
   10.6702   -3.9051   22.4070 C   0  0  0  0  0  0  0  0  0  0  0  0
   11.0625   -3.0028   18.8894 C   0  0  0  0  0  0  0  0  0  0  0  0
    5.6180   -7.9194   16.1754 O   0  0  0  0  0  0  0  0  0  0  0  0
    9.7259   -5.3080   18.4485 C   0  0  0  0  0  0  0  0  0  0  0  0
    9.4578   -5.0200   16.3036 N   0  0  0  0  0  0  0  0  0  0  0  0
    5.0287   -8.9365   16.8223 C   0  0  0  0  0  0  0  0  0  0  0  0
    8.7742   -6.1498   16.6764 C   0  0  0  0  0  0  0  0  0  0  0  0
   10.9418   -3.4032   21.2053 O   0  0  0  0  0  0  0  0  0  0  0  0
    1.4797   -8.6258   16.2950 C   0  0  0  0  0  0  0  0  0  0  0  0
    9.2861   -1.2743   25.3585 C   0  0  0  0  0  0  0  0  0  0  0  0
    1.8892  -10.3985   17.7511 N   0  0  0  0  0  0  0  0  0  0  0  0
    9.6210   -0.6952   24.0976 C   0  0  0  0  0  0  0  0  0  0  0  0
    7.0792   -9.0217   17.1429 C   0  0  0  0  0  0  0  0  0  0  0  0
    3.1713  -10.1816   17.6634 C   0  0  0  0  0  0  0  0  0  0  0  0
    2.7878   -8.3822   16.2137 C   0  0  0  0  0  0  0  0  0  0  0  0
    9.4601   -2.6590   25.6528 C   0  0  0  0  0  0  0  0  0  0  0  0
   10.1182   -1.5672   23.1165 C   0  0  0  0  0  0  0  0  0  0  0  0
    1.0552   -9.6360   17.0650 C   0  0  0  0  0  0  0  0  0  0  0  0
    3.6519   -9.1783   16.9039 C   0  0  0  0  0  0  0  0  0  0  0  0
    7.8675   -7.0096   15.9415 C   0  0  0  0  0  0  0  0  0  0  0  0
    5.9733   -9.6553   17.3832 N   0  0  0  0  0  0  0  0  0  0  0  0
   10.2411   -2.9363   23.4301 C   0  0  0  0  0  0  0  0  0  0  0  0
   10.7288   -3.8197   19.9525 C   0  0  0  0  0  0  0  0  0  0  0  0
   10.1189   -5.0054   19.6987 C   0  0  0  0  0  0  0  0  0  0  0  0
  1  3  4  0
  1  7  4  0
  2 21  4  0
  2 27  4  0
  3  9  4  0
  3 10  4  0
  4  8  4  0
  4 18  4  0
  4 25  1  0
  5  9  4  0
  5 12  4  0
  6 13  1  0
  6 27  1  0
  7 28  4  0
  8 11  4  0
  9 29  4  0
 10 12  4  0
 11 24  1  0
 11 26  4  0
 12 25  1  0
 13 28  1  0
 14 20  4  0
 14 23  4  0
 15 17  4  0
 15 21  4  0
 16 19  4  0
 16 23  4  0
 17 22  4  0
 18 26  4  0
 19 24  4  0
 20 24  4  0
 22 27  4  0
 28 29  4  0
M  END
$$$$

 Created by Python create_sdf_string function

 29 33  0  0  0  0  0  0  0  0999 V2000
   10.7215   -3.3326   17.6437 C   0  0  0  0  0  0  0  0  0  0  0  0
    9.9489   -3.4675   24.6487 N   0  0  0  0  0  0  0  0  0  0  0  0
   10.0172   -4.4740   17.4101 C   0  0  0  0  0  0  0  0  0  0  0  0
    6.9051   -7.9575   16.4222 C   0  0  0  0  0  0  0  0  0  0  0  0
    8.9969   -6.3552   17.9668 N   0  0  0  0  0  0  0  0  0  0  0  0
   10.6702   -3.9051   22.4070 C   0  0  0  0  0  0  0  0  0  0  0  0
   11.0625   -3.0028   18.8894 C   0  0  0  0  0  0  0  0  0  0  0  0
    5.6180   -7.9194   16.1754 O   0  0  0  0  0  0  0  0  0  0  0  0
    9.7259   -5.3080   18.4485 C   0  0  0  0  0  0  0  0  0  0  0  0
    9.4578   -5.0200   16.3036 N   0  0  0  0  0  0  0  0  0  0  0  0
    5.0287   -8.9365   16.8223 C   0  0  0  0  0  0  0  0  0  0  0  0
    8.7742   -6.1498   16.6764 C   0  0  0  0  0  0  0  0  0  0  0  0
   10.9418   -3.4032   21.2053 O   0  0  0  0  0  0  0  0  0  0  0  0
    1.4797   -8.6258   16.2950 C   0  0  0  0  0  0  0  0  0  0  0  0
    9.2861   -1.2743   25.3585 C   0  0  0  0  0  0  0  0  0  0  0  0
    1.8892  -10.3985   17.7511 N   0  0  0  0  0  0  0  0  0  0  0  0
    9.6210   -0.6952   24.0976 C   0  0  0  0  0  0  0  0  0  0  0  0
    7.0792   -9.0217   17.1429 C   0  0  0  0  0  0  0  0  0  0  0  0
    3.1713  -10.1816   17.6634 C   0  0  0  0  0  0  0  0  0  0  0  0
    2.7878   -8.3822   16.2137 C   0  0  0  0  0  0  0  0  0  0  0  0
    9.4601   -2.6590   25.6528 C   0  0  0  0  0  0  0  0  0  0  0  0
   10.1182   -1.5672   23.1165 C   0  0  0  0  0  0  0  0  0  0  0  0
    1.0552   -9.6360   17.0650 C   0  0  0  0  0  0  0  0  0  0  0  0
    3.6519   -9.1783   16.9039 C   0  0  0  0  0  0  0  0  0  0  0  0
    7.8675   -7.0096   15.9415 C   0  0  0  0  0  0  0  0  0  0  0  0
    5.9733   -9.6553   17.3832 N   0  0  0  0  0  0  0  0  0  0  0  0
   10.2411   -2.9363   23.4301 C   0  0  0  0  0  0  0  0  0  0  0  0
   10.7288   -3.8197   19.9525 C   0  0  0  0  0  0  0  0  0  0  0  0
   10.1189   -5.0054   19.6987 C   0  0  0  0  0  0  0  0  0  0  0  0
  1  3  4  0
  1  7  4  0
  2 21  4  0
  2 27  4  0
  3  9  4  0
  3 10  4  0
  4  8  4  0
  4 18  4  0
  4 25  1  0
  5  9  4  0
  5 12  4  0
  6 13  1  0
  6 27  1  0
  7 28  4  0
  8 11  4  0
  9 29  4  0
 10 12  4  0
 11 24  1  0
 11 26  4  0
 12 25  1  0
 13 28  1  0
 14 20  4  0
 14 23  4  0
 15 17  4  0
 15 21  4  0
 16 19  4  0
 16 23  4  0
 17 22  4  0
 18 26  4  0
 19 24  4  0
 20 24  4  0
 22 27  4  0
 28 29  4  0
M  END
$$$$

 Created by Python create_sdf_string function

 29 33  0  0  0  0  0  0  0  0999 V2000
   10.7215   -3.3326   17.6437 C   0  0  0  0  0  0  0  0  0  0  0  0
    9.9489   -3.4675   24.6487 N   0  0  0  0  0  0  0  0  0  0  0  0
   10.0172   -4.4740   17.4101 C   0  0  0  0  0  0  0  0  0  0  0  0
    6.9051   -7.9575   16.4222 C   0  0  0  0  0  0  0  0  0  0  0  0
    8.9969   -6.3552   17.9668 N   0  0  0  0  0  0  0  0  0  0  0  0
   10.6702   -3.9051   22.4070 C   0  0  0  0  0  0  0  0  0  0  0  0
   11.0625   -3.0028   18.8894 C   0  0  0  0  0  0  0  0  0  0  0  0
    5.6180   -7.9194   16.1754 O   0  0  0  0  0  0  0  0  0  0  0  0
    9.7259   -5.3080   18.4485 C   0  0  0  0  0  0  0  0  0  0  0  0
    9.4578   -5.0200   16.3036 N   0  0  0  0  0  0  0  0  0  0  0  0
    5.0287   -8.9365   16.8223 C   0  0  0  0  0  0  0  0  0  0  0  0
    8.7742   -6.1498   16.6764 C   0  0  0  0  0  0  0  0  0  0  0  0
   10.9418   -3.4032   21.2053 O   0  0  0  0  0  0  0  0  0  0  0  0
    1.4797   -8.6258   16.2950 C   0  0  0  0  0  0  0  0  0  0  0  0
    9.2861   -1.2743   25.3585 C   0  0  0  0  0  0  0  0  0  0  0  0
    1.8892  -10.3985   17.7511 N   0  0  0  0  0  0  0  0  0  0  0  0
    9.6210   -0.6952   24.0976 C   0  0  0  0  0  0  0  0  0  0  0  0
    7.0792   -9.0217   17.1429 C   0  0  0  0  0  0  0  0  0  0  0  0
    3.1713  -10.1816   17.6634 C   0  0  0  0  0  0  0  0  0  0  0  0
    2.7878   -8.3822   16.2137 C   0  0  0  0  0  0  0  0  0  0  0  0
    9.4601   -2.6590   25.6528 C   0  0  0  0  0  0  0  0  0  0  0  0
   10.1182   -1.5672   23.1165 C   0  0  0  0  0  0  0  0  0  0  0  0
    1.0552   -9.6360   17.0650 C   0  0  0  0  0  0  0  0  0  0  0  0
    3.6519   -9.1783   16.9039 C   0  0  0  0  0  0  0  0  0  0  0  0
    7.8675   -7.0096   15.9415 C   0  0  0  0  0  0  0  0  0  0  0  0
    5.9733   -9.6553   17.3832 N   0  0  0  0  0  0  0  0  0  0  0  0
   10.2411   -2.9363   23.4301 C   0  0  0  0  0  0  0  0  0  0  0  0
   10.7288   -3.8197   19.9525 C   0  0  0  0  0  0  0  0  0  0  0  0
   10.1189   -5.0054   19.6987 C   0  0  0  0  0  0  0  0  0  0  0  0
  1  3  4  0
  1  7  4  0
  2 21  4  0
  2 27  4  0
  3  9  4  0
  3 10  4  0
  4  8  4  0
  4 18  4  0
  4 25  1  0
  5  9  4  0
  5 12  4  0
  6 13  1  0
  6 27  1  0
  7 28  4  0
  8 11  4  0
  9 29  4  0
 10 12  4  0
 11 24  1  0
 11 26  4  0
 12 25  1  0
 13 28  1  0
 14 20  4  0
 14 23  4  0
 15 17  4  0
 15 21  4  0
 16 19  4  0
 16 23  4  0
 17 22  4  0
 18 26  4  0
 19 24  4  0
 20 24  4  0
 22 27  4  0
 28 29  4  0
M  END
$$$$

 Created by Python create_sdf_string function

 29 33  0  0  0  0  0  0  0  0999 V2000
   10.7215   -3.3326   17.6437 C   0  0  0  0  0  0  0  0  0  0  0  0
    9.9489   -3.4675   24.6487 N   0  0  0  0  0  0  0  0  0  0  0  0
   10.0172   -4.4740   17.4101 C   0  0  0  0  0  0  0  0  0  0  0  0
    6.9051   -7.9575   16.4222 C   0  0  0  0  0  0  0  0  0  0  0  0
    8.9969   -6.3552   17.9668 N   0  0  0  0  0  0  0  0  0  0  0  0
   10.6702   -3.9051   22.4070 C   0  0  0  0  0  0  0  0  0  0  0  0
   11.0625   -3.0028   18.8894 C   0  0  0  0  0  0  0  0  0  0  0  0
    5.6180   -7.9194   16.1754 O   0  0  0  0  0  0  0  0  0  0  0  0
    9.7259   -5.3080   18.4485 C   0  0  0  0  0  0  0  0  0  0  0  0
    9.4578   -5.0200   16.3036 N   0  0  0  0  0  0  0  0  0  0  0  0
    5.0287   -8.9365   16.8223 C   0  0  0  0  0  0  0  0  0  0  0  0
    8.7742   -6.1498   16.6764 C   0  0  0  0  0  0  0  0  0  0  0  0
   10.9418   -3.4032   21.2053 O   0  0  0  0  0  0  0  0  0  0  0  0
    1.4797   -8.6258   16.2950 C   0  0  0  0  0  0  0  0  0  0  0  0
    9.2861   -1.2743   25.3585 C   0  0  0  0  0  0  0  0  0  0  0  0
    1.8892  -10.3985   17.7511 N   0  0  0  0  0  0  0  0  0  0  0  0
    9.6210   -0.6952   24.0976 C   0  0  0  0  0  0  0  0  0  0  0  0
    7.0792   -9.0217   17.1429 C   0  0  0  0  0  0  0  0  0  0  0  0
    3.1713  -10.1816   17.6634 C   0  0  0  0  0  0  0  0  0  0  0  0
    2.7878   -8.3822   16.2137 C   0  0  0  0  0  0  0  0  0  0  0  0
    9.4601   -2.6590   25.6528 C   0  0  0  0  0  0  0  0  0  0  0  0
   10.1182   -1.5672   23.1165 C   0  0  0  0  0  0  0  0  0  0  0  0
    1.0552   -9.6360   17.0650 C   0  0  0  0  0  0  0  0  0  0  0  0
    3.6519   -9.1783   16.9039 C   0  0  0  0  0  0  0  0  0  0  0  0
    7.8675   -7.0096   15.9415 C   0  0  0  0  0  0  0  0  0  0  0  0
    5.9733   -9.6553   17.3832 N   0  0  0  0  0  0  0  0  0  0  0  0
   10.2411   -2.9363   23.4301 C   0  0  0  0  0  0  0  0  0  0  0  0
   10.7288   -3.8197   19.9525 C   0  0  0  0  0  0  0  0  0  0  0  0
   10.1189   -5.0054   19.6987 C   0  0  0  0  0  0  0  0  0  0  0  0
  1  3  4  0
  1  7  4  0
  2 21  4  0
  2 27  4  0
  3  9  4  0
  3 10  4  0
  4  8  4  0
  4 18  4  0
  4 25  1  0
  5  9  4  0
  5 12  4  0
  6 13  1  0
  6 27  1  0
  7 28  4  0
  8 11  4  0
  9 29  4  0
 10 12  4  0
 11 24  1  0
 11 26  4  0
 12 25  1  0
 13 28  1  0
 14 20  4  0
 14 23  4  0
 15 17  4  0
 15 21  4  0
 16 19  4  0
 16 23  4  0
 17 22  4  0
 18 26  4  0
 19 24  4  0
 20 24  4  0
 22 27  4  0
 28 29  4  0
M  END
$$$$

 Created by Python create_sdf_string function

 29 33  0  0  0  0  0  0  0  0999 V2000
   10.7215   -3.3326   17.6437 C   0  0  0  0  0  0  0  0  0  0  0  0
    9.9489   -3.4675   24.6487 N   0  0  0  0  0  0  0  0  0  0  0  0
   10.0172   -4.4740   17.4101 C   0  0  0  0  0  0  0  0  0  0  0  0
    6.9051   -7.9575   16.4222 C   0  0  0  0  0  0  0  0  0  0  0  0
    8.9969   -6.3552   17.9668 N   0  0  0  0  0  0  0  0  0  0  0  0
   10.6702   -3.9051   22.4070 C   0  0  0  0  0  0  0  0  0  0  0  0
   11.0625   -3.0028   18.8894 C   0  0  0  0  0  0  0  0  0  0  0  0
    5.6180   -7.9194   16.1754 O   0  0  0  0  0  0  0  0  0  0  0  0
    9.7259   -5.3080   18.4485 C   0  0  0  0  0  0  0  0  0  0  0  0
    9.4578   -5.0200   16.3036 N   0  0  0  0  0  0  0  0  0  0  0  0
    5.0287   -8.9365   16.8223 C   0  0  0  0  0  0  0  0  0  0  0  0
    8.7742   -6.1498   16.6764 C   0  0  0  0  0  0  0  0  0  0  0  0
   10.9418   -3.4032   21.2053 O   0  0  0  0  0  0  0  0  0  0  0  0
    1.4797   -8.6258   16.2950 C   0  0  0  0  0  0  0  0  0  0  0  0
    9.2861   -1.2743   25.3585 C   0  0  0  0  0  0  0  0  0  0  0  0
    1.8892  -10.3985   17.7511 N   0  0  0  0  0  0  0  0  0  0  0  0
    9.6210   -0.6952   24.0976 C   0  0  0  0  0  0  0  0  0  0  0  0
    7.0792   -9.0217   17.1429 C   0  0  0  0  0  0  0  0  0  0  0  0
    3.1713  -10.1816   17.6634 C   0  0  0  0  0  0  0  0  0  0  0  0
    2.7878   -8.3822   16.2137 C   0  0  0  0  0  0  0  0  0  0  0  0
    9.4601   -2.6590   25.6528 C   0  0  0  0  0  0  0  0  0  0  0  0
   10.1182   -1.5672   23.1165 C   0  0  0  0  0  0  0  0  0  0  0  0
    1.0552   -9.6360   17.0650 C   0  0  0  0  0  0  0  0  0  0  0  0
    3.6519   -9.1783   16.9039 C   0  0  0  0  0  0  0  0  0  0  0  0
    7.8675   -7.0096   15.9415 C   0  0  0  0  0  0  0  0  0  0  0  0
    5.9733   -9.6553   17.3832 N   0  0  0  0  0  0  0  0  0  0  0  0
   10.2411   -2.9363   23.4301 C   0  0  0  0  0  0  0  0  0  0  0  0
   10.7288   -3.8197   19.9525 C   0  0  0  0  0  0  0  0  0  0  0  0
   10.1189   -5.0054   19.6987 C   0  0  0  0  0  0  0  0  0  0  0  0
  1  3  4  0
  1  7  4  0
  2 21  4  0
  2 27  4  0
  3  9  4  0
  3 10  4  0
  4  8  4  0
  4 18  4  0
  4 25  1  0
  5  9  4  0
  5 12  4  0
  6 13  1  0
  6 27  1  0
  7 28  4  0
  8 11  4  0
  9 29  4  0
 10 12  4  0
 11 24  1  0
 11 26  4  0
 12 25  1  0
 13 28  1  0
 14 20  4  0
 14 23  4  0
 15 17  4  0
 15 21  4  0
 16 19  4  0
 16 23  4  0
 17 22  4  0
 18 26  4  0
 19 24  4  0
 20 24  4  0
 22 27  4  0
 28 29  4  0
M  END
$$$$

 Created by Python create_sdf_string function

 29 33  0  0  0  0  0  0  0  0999 V2000
   10.7215   -3.3326   17.6437 C   0  0  0  0  0  0  0  0  0  0  0  0
    9.9489   -3.4675   24.6487 N   0  0  0  0  0  0  0  0  0  0  0  0
   10.0172   -4.4740   17.4101 C   0  0  0  0  0  0  0  0  0  0  0  0
    6.9051   -7.9575   16.4222 C   0  0  0  0  0  0  0  0  0  0  0  0
    8.9969   -6.3552   17.9668 N   0  0  0  0  0  0  0  0  0  0  0  0
   10.6702   -3.9051   22.4070 C   0  0  0  0  0  0  0  0  0  0  0  0
   11.0625   -3.0028   18.8894 C   0  0  0  0  0  0  0  0  0  0  0  0
    5.6180   -7.9194   16.1754 O   0  0  0  0  0  0  0  0  0  0  0  0
    9.7259   -5.3080   18.4485 C   0  0  0  0  0  0  0  0  0  0  0  0
    9.4578   -5.0200   16.3036 N   0  0  0  0  0  0  0  0  0  0  0  0
    5.0287   -8.9365   16.8223 C   0  0  0  0  0  0  0  0  0  0  0  0
    8.7742   -6.1498   16.6764 C   0  0  0  0  0  0  0  0  0  0  0  0
   10.9418   -3.4032   21.2053 O   0  0  0  0  0  0  0  0  0  0  0  0
    1.4797   -8.6258   16.2950 C   0  0  0  0  0  0  0  0  0  0  0  0
    9.2861   -1.2743   25.3585 C   0  0  0  0  0  0  0  0  0  0  0  0
    1.8892  -10.3985   17.7511 N   0  0  0  0  0  0  0  0  0  0  0  0
    9.6210   -0.6952   24.0976 C   0  0  0  0  0  0  0  0  0  0  0  0
    7.0792   -9.0217   17.1429 C   0  0  0  0  0  0  0  0  0  0  0  0
    3.1713  -10.1816   17.6634 C   0  0  0  0  0  0  0  0  0  0  0  0
    2.7878   -8.3822   16.2137 C   0  0  0  0  0  0  0  0  0  0  0  0
    9.4601   -2.6590   25.6528 C   0  0  0  0  0  0  0  0  0  0  0  0
   10.1182   -1.5672   23.1165 C   0  0  0  0  0  0  0  0  0  0  0  0
    1.0552   -9.6360   17.0650 C   0  0  0  0  0  0  0  0  0  0  0  0
    3.6519   -9.1783   16.9039 C   0  0  0  0  0  0  0  0  0  0  0  0
    7.8675   -7.0096   15.9415 C   0  0  0  0  0  0  0  0  0  0  0  0
    5.9733   -9.6553   17.3832 N   0  0  0  0  0  0  0  0  0  0  0  0
   10.2411   -2.9363   23.4301 C   0  0  0  0  0  0  0  0  0  0  0  0
   10.7288   -3.8197   19.9525 C   0  0  0  0  0  0  0  0  0  0  0  0
   10.1189   -5.0054   19.6987 C   0  0  0  0  0  0  0  0  0  0  0  0
  1  3  4  0
  1  7  4  0
  2 21  4  0
  2 27  4  0
  3  9  4  0
  3 10  4  0
  4  8  4  0
  4 18  4  0
  4 25  1  0
  5  9  4  0
  5 12  4  0
  6 13  1  0
  6 27  1  0
  7 28  4  0
  8 11  4  0
  9 29  4  0
 10 12  4  0
 11 24  1  0
 11 26  4  0
 12 25  1  0
 13 28  1  0
 14 20  4  0
 14 23  4  0
 15 17  4  0
 15 21  4  0
 16 19  4  0
 16 23  4  0
 17 22  4  0
 18 26  4  0
 19 24  4  0
 20 24  4  0
 22 27  4  0
 28 29  4  0
M  END
$$$$

 Created by Python create_sdf_string function

 29 33  0  0  0  0  0  0  0  0999 V2000
   10.7215   -3.3326   17.6437 C   0  0  0  0  0  0  0  0  0  0  0  0
    9.9489   -3.4675   24.6487 N   0  0  0  0  0  0  0  0  0  0  0  0
   10.0172   -4.4740   17.4101 C   0  0  0  0  0  0  0  0  0  0  0  0
    6.9051   -7.9575   16.4222 C   0  0  0  0  0  0  0  0  0  0  0  0
    8.9969   -6.3552   17.9668 N   0  0  0  0  0  0  0  0  0  0  0  0
   10.6702   -3.9051   22.4070 C   0  0  0  0  0  0  0  0  0  0  0  0
   11.0625   -3.0028   18.8894 C   0  0  0  0  0  0  0  0  0  0  0  0
    5.6180   -7.9194   16.1754 O   0  0  0  0  0  0  0  0  0  0  0  0
    9.7259   -5.3080   18.4485 C   0  0  0  0  0  0  0  0  0  0  0  0
    9.4578   -5.0200   16.3036 N   0  0  0  0  0  0  0  0  0  0  0  0
    5.0287   -8.9365   16.8223 C   0  0  0  0  0  0  0  0  0  0  0  0
    8.7742   -6.1498   16.6764 C   0  0  0  0  0  0  0  0  0  0  0  0
   10.9418   -3.4032   21.2053 O   0  0  0  0  0  0  0  0  0  0  0  0
    1.4797   -8.6258   16.2950 C   0  0  0  0  0  0  0  0  0  0  0  0
    9.2861   -1.2743   25.3585 C   0  0  0  0  0  0  0  0  0  0  0  0
    1.8892  -10.3985   17.7511 N   0  0  0  0  0  0  0  0  0  0  0  0
    9.6210   -0.6952   24.0976 C   0  0  0  0  0  0  0  0  0  0  0  0
    7.0792   -9.0217   17.1429 C   0  0  0  0  0  0  0  0  0  0  0  0
    3.1713  -10.1816   17.6634 C   0  0  0  0  0  0  0  0  0  0  0  0
    2.7878   -8.3822   16.2137 C   0  0  0  0  0  0  0  0  0  0  0  0
    9.4601   -2.6590   25.6528 C   0  0  0  0  0  0  0  0  0  0  0  0
   10.1182   -1.5672   23.1165 C   0  0  0  0  0  0  0  0  0  0  0  0
    1.0552   -9.6360   17.0650 C   0  0  0  0  0  0  0  0  0  0  0  0
    3.6519   -9.1783   16.9039 C   0  0  0  0  0  0  0  0  0  0  0  0
    7.8675   -7.0096   15.9415 C   0  0  0  0  0  0  0  0  0  0  0  0
    5.9733   -9.6553   17.3832 N   0  0  0  0  0  0  0  0  0  0  0  0
   10.2411   -2.9363   23.4301 C   0  0  0  0  0  0  0  0  0  0  0  0
   10.7288   -3.8197   19.9525 C   0  0  0  0  0  0  0  0  0  0  0  0
   10.1189   -5.0054   19.6987 C   0  0  0  0  0  0  0  0  0  0  0  0
  1  3  4  0
  1  7  4  0
  2 21  4  0
  2 27  4  0
  3  9  4  0
  3 10  4  0
  4  8  4  0
  4 18  4  0
  4 25  1  0
  5  9  4  0
  5 12  4  0
  6 13  1  0
  6 27  1  0
  7 28  4  0
  8 11  4  0
  9 29  4  0
 10 12  4  0
 11 24  1  0
 11 26  4  0
 12 25  1  0
 13 28  1  0
 14 20  4  0
 14 23  4  0
 15 17  4  0
 15 21  4  0
 16 19  4  0
 16 23  4  0
 17 22  4  0
 18 26  4  0
 19 24  4  0
 20 24  4  0
 22 27  4  0
 28 29  4  0
M  END
$$$$

 Created by Python create_sdf_string function

 29 33  0  0  0  0  0  0  0  0999 V2000
   10.7215   -3.3326   17.6437 C   0  0  0  0  0  0  0  0  0  0  0  0
    9.9489   -3.4675   24.6487 N   0  0  0  0  0  0  0  0  0  0  0  0
   10.0172   -4.4740   17.4101 C   0  0  0  0  0  0  0  0  0  0  0  0
    6.9051   -7.9575   16.4222 C   0  0  0  0  0  0  0  0  0  0  0  0
    8.9969   -6.3552   17.9668 N   0  0  0  0  0  0  0  0  0  0  0  0
   10.6702   -3.9051   22.4070 C   0  0  0  0  0  0  0  0  0  0  0  0
   11.0625   -3.0028   18.8894 C   0  0  0  0  0  0  0  0  0  0  0  0
    5.6180   -7.9194   16.1754 O   0  0  0  0  0  0  0  0  0  0  0  0
    9.7259   -5.3080   18.4485 C   0  0  0  0  0  0  0  0  0  0  0  0
    9.4578   -5.0200   16.3036 N   0  0  0  0  0  0  0  0  0  0  0  0
    5.0287   -8.9365   16.8223 C   0  0  0  0  0  0  0  0  0  0  0  0
    8.7742   -6.1498   16.6764 C   0  0  0  0  0  0  0  0  0  0  0  0
   10.9418   -3.4032   21.2053 O   0  0  0  0  0  0  0  0  0  0  0  0
    1.4797   -8.6258   16.2950 C   0  0  0  0  0  0  0  0  0  0  0  0
    9.2861   -1.2743   25.3585 C   0  0  0  0  0  0  0  0  0  0  0  0
    1.8892  -10.3985   17.7511 N   0  0  0  0  0  0  0  0  0  0  0  0
    9.6210   -0.6952   24.0976 C   0  0  0  0  0  0  0  0  0  0  0  0
    7.0792   -9.0217   17.1429 C   0  0  0  0  0  0  0  0  0  0  0  0
    3.1713  -10.1816   17.6634 C   0  0  0  0  0  0  0  0  0  0  0  0
    2.7878   -8.3822   16.2137 C   0  0  0  0  0  0  0  0  0  0  0  0
    9.4601   -2.6590   25.6528 C   0  0  0  0  0  0  0  0  0  0  0  0
   10.1182   -1.5672   23.1165 C   0  0  0  0  0  0  0  0  0  0  0  0
    1.0552   -9.6360   17.0650 C   0  0  0  0  0  0  0  0  0  0  0  0
    3.6519   -9.1783   16.9039 C   0  0  0  0  0  0  0  0  0  0  0  0
    7.8675   -7.0096   15.9415 C   0  0  0  0  0  0  0  0  0  0  0  0
    5.9733   -9.6553   17.3832 N   0  0  0  0  0  0  0  0  0  0  0  0
   10.2411   -2.9363   23.4301 C   0  0  0  0  0  0  0  0  0  0  0  0
   10.7288   -3.8197   19.9525 C   0  0  0  0  0  0  0  0  0  0  0  0
   10.1189   -5.0054   19.6987 C   0  0  0  0  0  0  0  0  0  0  0  0
  1  3  4  0
  1  7  4  0
  2 21  4  0
  2 27  4  0
  3  9  4  0
  3 10  4  0
  4  8  4  0
  4 18  4  0
  4 25  1  0
  5  9  4  0
  5 12  4  0
  6 13  1  0
  6 27  1  0
  7 28  4  0
  8 11  4  0
  9 29  4  0
 10 12  4  0
 11 24  1  0
 11 26  4  0
 12 25  1  0
 13 28  1  0
 14 20  4  0
 14 23  4  0
 15 17  4  0
 15 21  4  0
 16 19  4  0
 16 23  4  0
 17 22  4  0
 18 26  4  0
 19 24  4  0
 20 24  4  0
 22 27  4  0
 28 29  4  0
M  END
$$$$

 Created by Python create_sdf_string function

 29 33  0  0  0  0  0  0  0  0999 V2000
   10.7215   -3.3326   17.6437 C   0  0  0  0  0  0  0  0  0  0  0  0
    9.9489   -3.4675   24.6487 N   0  0  0  0  0  0  0  0  0  0  0  0
   10.0172   -4.4740   17.4101 C   0  0  0  0  0  0  0  0  0  0  0  0
    6.9051   -7.9575   16.4222 C   0  0  0  0  0  0  0  0  0  0  0  0
    8.9969   -6.3552   17.9668 N   0  0  0  0  0  0  0  0  0  0  0  0
   10.6702   -3.9051   22.4070 C   0  0  0  0  0  0  0  0  0  0  0  0
   11.0625   -3.0028   18.8894 C   0  0  0  0  0  0  0  0  0  0  0  0
    5.6180   -7.9194   16.1754 O   0  0  0  0  0  0  0  0  0  0  0  0
    9.7259   -5.3080   18.4485 C   0  0  0  0  0  0  0  0  0  0  0  0
    9.4578   -5.0200   16.3036 N   0  0  0  0  0  0  0  0  0  0  0  0
    5.0287   -8.9365   16.8223 C   0  0  0  0  0  0  0  0  0  0  0  0
    8.7742   -6.1498   16.6764 C   0  0  0  0  0  0  0  0  0  0  0  0
   10.9418   -3.4032   21.2053 O   0  0  0  0  0  0  0  0  0  0  0  0
    1.4797   -8.6258   16.2950 C   0  0  0  0  0  0  0  0  0  0  0  0
    9.2861   -1.2743   25.3585 C   0  0  0  0  0  0  0  0  0  0  0  0
    1.8892  -10.3985   17.7511 N   0  0  0  0  0  0  0  0  0  0  0  0
    9.6210   -0.6952   24.0976 C   0  0  0  0  0  0  0  0  0  0  0  0
    7.0792   -9.0217   17.1429 C   0  0  0  0  0  0  0  0  0  0  0  0
    3.1713  -10.1816   17.6634 C   0  0  0  0  0  0  0  0  0  0  0  0
    2.7878   -8.3822   16.2137 C   0  0  0  0  0  0  0  0  0  0  0  0
    9.4601   -2.6590   25.6528 C   0  0  0  0  0  0  0  0  0  0  0  0
   10.1182   -1.5672   23.1165 C   0  0  0  0  0  0  0  0  0  0  0  0
    1.0552   -9.6360   17.0650 C   0  0  0  0  0  0  0  0  0  0  0  0
    3.6519   -9.1783   16.9039 C   0  0  0  0  0  0  0  0  0  0  0  0
    7.8675   -7.0096   15.9415 C   0  0  0  0  0  0  0  0  0  0  0  0
    5.9733   -9.6553   17.3832 N   0  0  0  0  0  0  0  0  0  0  0  0
   10.2411   -2.9363   23.4301 C   0  0  0  0  0  0  0  0  0  0  0  0
   10.7288   -3.8197   19.9525 C   0  0  0  0  0  0  0  0  0  0  0  0
   10.1189   -5.0054   19.6987 C   0  0  0  0  0  0  0  0  0  0  0  0
  1  3  4  0
  1  7  4  0
  2 21  4  0
  2 27  4  0
  3  9  4  0
  3 10  4  0
  4  8  4  0
  4 18  4  0
  4 25  1  0
  5  9  4  0
  5 12  4  0
  6 13  1  0
  6 27  1  0
  7 28  4  0
  8 11  4  0
  9 29  4  0
 10 12  4  0
 11 24  1  0
 11 26  4  0
 12 25  1  0
 13 28  1  0
 14 20  4  0
 14 23  4  0
 15 17  4  0
 15 21  4  0
 16 19  4  0
 16 23  4  0
 17 22  4  0
 18 26  4  0
 19 24  4  0
 20 24  4  0
 22 27  4  0
 28 29  4  0
M  END
$$$$

 Created by Python create_sdf_string function

 29 33  0  0  0  0  0  0  0  0999 V2000
   10.7215   -3.3326   17.6437 C   0  0  0  0  0  0  0  0  0  0  0  0
    9.9489   -3.4675   24.6487 N   0  0  0  0  0  0  0  0  0  0  0  0
   10.0172   -4.4740   17.4101 C   0  0  0  0  0  0  0  0  0  0  0  0
    6.9051   -7.9575   16.4222 C   0  0  0  0  0  0  0  0  0  0  0  0
    8.9969   -6.3552   17.9668 N   0  0  0  0  0  0  0  0  0  0  0  0
   10.6702   -3.9051   22.4070 C   0  0  0  0  0  0  0  0  0  0  0  0
   11.0625   -3.0028   18.8894 C   0  0  0  0  0  0  0  0  0  0  0  0
    5.6180   -7.9194   16.1754 O   0  0  0  0  0  0  0  0  0  0  0  0
    9.7259   -5.3080   18.4485 C   0  0  0  0  0  0  0  0  0  0  0  0
    9.4578   -5.0200   16.3036 N   0  0  0  0  0  0  0  0  0  0  0  0
    5.0287   -8.9365   16.8223 C   0  0  0  0  0  0  0  0  0  0  0  0
    8.7742   -6.1498   16.6764 C   0  0  0  0  0  0  0  0  0  0  0  0
   10.9418   -3.4032   21.2053 O   0  0  0  0  0  0  0  0  0  0  0  0
    1.4797   -8.6258   16.2950 C   0  0  0  0  0  0  0  0  0  0  0  0
    9.2861   -1.2743   25.3585 C   0  0  0  0  0  0  0  0  0  0  0  0
    1.8892  -10.3985   17.7511 N   0  0  0  0  0  0  0  0  0  0  0  0
    9.6210   -0.6952   24.0976 C   0  0  0  0  0  0  0  0  0  0  0  0
    7.0792   -9.0217   17.1429 C   0  0  0  0  0  0  0  0  0  0  0  0
    3.1713  -10.1816   17.6634 C   0  0  0  0  0  0  0  0  0  0  0  0
    2.7878   -8.3822   16.2137 C   0  0  0  0  0  0  0  0  0  0  0  0
    9.4601   -2.6590   25.6528 C   0  0  0  0  0  0  0  0  0  0  0  0
   10.1182   -1.5672   23.1165 C   0  0  0  0  0  0  0  0  0  0  0  0
    1.0552   -9.6360   17.0650 C   0  0  0  0  0  0  0  0  0  0  0  0
    3.6519   -9.1783   16.9039 C   0  0  0  0  0  0  0  0  0  0  0  0
    7.8675   -7.0096   15.9415 C   0  0  0  0  0  0  0  0  0  0  0  0
    5.9733   -9.6553   17.3832 N   0  0  0  0  0  0  0  0  0  0  0  0
   10.2411   -2.9363   23.4301 C   0  0  0  0  0  0  0  0  0  0  0  0
   10.7288   -3.8197   19.9525 C   0  0  0  0  0  0  0  0  0  0  0  0
   10.1189   -5.0054   19.6987 C   0  0  0  0  0  0  0  0  0  0  0  0
  1  3  4  0
  1  7  4  0
  2 21  4  0
  2 27  4  0
  3  9  4  0
  3 10  4  0
  4  8  4  0
  4 18  4  0
  4 25  1  0
  5  9  4  0
  5 12  4  0
  6 13  1  0
  6 27  1  0
  7 28  4  0
  8 11  4  0
  9 29  4  0
 10 12  4  0
 11 24  1  0
 11 26  4  0
 12 25  1  0
 13 28  1  0
 14 20  4  0
 14 23  4  0
 15 17  4  0
 15 21  4  0
 16 19  4  0
 16 23  4  0
 17 22  4  0
 18 26  4  0
 19 24  4  0
 20 24  4  0
 22 27  4  0
 28 29  4  0
M  END
$$$$

 Created by Python create_sdf_string function

 29 33  0  0  0  0  0  0  0  0999 V2000
   10.7215   -3.3326   17.6437 C   0  0  0  0  0  0  0  0  0  0  0  0
    9.9489   -3.4675   24.6487 N   0  0  0  0  0  0  0  0  0  0  0  0
   10.0172   -4.4740   17.4101 C   0  0  0  0  0  0  0  0  0  0  0  0
    6.9051   -7.9575   16.4222 C   0  0  0  0  0  0  0  0  0  0  0  0
    8.9969   -6.3552   17.9668 N   0  0  0  0  0  0  0  0  0  0  0  0
   10.6702   -3.9051   22.4070 C   0  0  0  0  0  0  0  0  0  0  0  0
   11.0625   -3.0028   18.8894 C   0  0  0  0  0  0  0  0  0  0  0  0
    5.6180   -7.9194   16.1754 O   0  0  0  0  0  0  0  0  0  0  0  0
    9.7259   -5.3080   18.4485 C   0  0  0  0  0  0  0  0  0  0  0  0
    9.4578   -5.0200   16.3036 N   0  0  0  0  0  0  0  0  0  0  0  0
    5.0287   -8.9365   16.8223 C   0  0  0  0  0  0  0  0  0  0  0  0
    8.7742   -6.1498   16.6764 C   0  0  0  0  0  0  0  0  0  0  0  0
   10.9418   -3.4032   21.2053 O   0  0  0  0  0  0  0  0  0  0  0  0
    1.4797   -8.6258   16.2950 C   0  0  0  0  0  0  0  0  0  0  0  0
    9.2861   -1.2743   25.3585 C   0  0  0  0  0  0  0  0  0  0  0  0
    1.8892  -10.3985   17.7511 N   0  0  0  0  0  0  0  0  0  0  0  0
    9.6210   -0.6952   24.0976 C   0  0  0  0  0  0  0  0  0  0  0  0
    7.0792   -9.0217   17.1429 C   0  0  0  0  0  0  0  0  0  0  0  0
    3.1713  -10.1816   17.6634 C   0  0  0  0  0  0  0  0  0  0  0  0
    2.7878   -8.3822   16.2137 C   0  0  0  0  0  0  0  0  0  0  0  0
    9.4601   -2.6590   25.6528 C   0  0  0  0  0  0  0  0  0  0  0  0
   10.1182   -1.5672   23.1165 C   0  0  0  0  0  0  0  0  0  0  0  0
    1.0552   -9.6360   17.0650 C   0  0  0  0  0  0  0  0  0  0  0  0
    3.6519   -9.1783   16.9039 C   0  0  0  0  0  0  0  0  0  0  0  0
    7.8675   -7.0096   15.9415 C   0  0  0  0  0  0  0  0  0  0  0  0
    5.9733   -9.6553   17.3832 N   0  0  0  0  0  0  0  0  0  0  0  0
   10.2411   -2.9363   23.4301 C   0  0  0  0  0  0  0  0  0  0  0  0
   10.7288   -3.8197   19.9525 C   0  0  0  0  0  0  0  0  0  0  0  0
   10.1189   -5.0054   19.6987 C   0  0  0  0  0  0  0  0  0  0  0  0
  1  3  4  0
  1  7  4  0
  2 21  4  0
  2 27  4  0
  3  9  4  0
  3 10  4  0
  4  8  4  0
  4 18  4  0
  4 25  1  0
  5  9  4  0
  5 12  4  0
  6 13  1  0
  6 27  1  0
  7 28  4  0
  8 11  4  0
  9 29  4  0
 10 12  4  0
 11 24  1  0
 11 26  4  0
 12 25  1  0
 13 28  1  0
 14 20  4  0
 14 23  4  0
 15 17  4  0
 15 21  4  0
 16 19  4  0
 16 23  4  0
 17 22  4  0
 18 26  4  0
 19 24  4  0
 20 24  4  0
 22 27  4  0
 28 29  4  0
M  END
$$$$

 Created by Python create_sdf_string function

 29 33  0  0  0  0  0  0  0  0999 V2000
   10.7215   -3.3326   17.6437 C   0  0  0  0  0  0  0  0  0  0  0  0
    9.9489   -3.4675   24.6487 N   0  0  0  0  0  0  0  0  0  0  0  0
   10.0172   -4.4740   17.4101 C   0  0  0  0  0  0  0  0  0  0  0  0
    6.9051   -7.9575   16.4222 C   0  0  0  0  0  0  0  0  0  0  0  0
    8.9969   -6.3552   17.9668 N   0  0  0  0  0  0  0  0  0  0  0  0
   10.6702   -3.9051   22.4070 C   0  0  0  0  0  0  0  0  0  0  0  0
   11.0625   -3.0028   18.8894 C   0  0  0  0  0  0  0  0  0  0  0  0
    5.6180   -7.9194   16.1754 O   0  0  0  0  0  0  0  0  0  0  0  0
    9.7259   -5.3080   18.4485 C   0  0  0  0  0  0  0  0  0  0  0  0
    9.4578   -5.0200   16.3036 N   0  0  0  0  0  0  0  0  0  0  0  0
    5.0287   -8.9365   16.8223 C   0  0  0  0  0  0  0  0  0  0  0  0
    8.7742   -6.1498   16.6764 C   0  0  0  0  0  0  0  0  0  0  0  0
   10.9418   -3.4032   21.2053 O   0  0  0  0  0  0  0  0  0  0  0  0
    1.4797   -8.6258   16.2950 C   0  0  0  0  0  0  0  0  0  0  0  0
    9.2861   -1.2743   25.3585 C   0  0  0  0  0  0  0  0  0  0  0  0
    1.8892  -10.3985   17.7511 N   0  0  0  0  0  0  0  0  0  0  0  0
    9.6210   -0.6952   24.0976 C   0  0  0  0  0  0  0  0  0  0  0  0
    7.0792   -9.0217   17.1429 C   0  0  0  0  0  0  0  0  0  0  0  0
    3.1713  -10.1816   17.6634 C   0  0  0  0  0  0  0  0  0  0  0  0
    2.7878   -8.3822   16.2137 C   0  0  0  0  0  0  0  0  0  0  0  0
    9.4601   -2.6590   25.6528 C   0  0  0  0  0  0  0  0  0  0  0  0
   10.1182   -1.5672   23.1165 C   0  0  0  0  0  0  0  0  0  0  0  0
    1.0552   -9.6360   17.0650 C   0  0  0  0  0  0  0  0  0  0  0  0
    3.6519   -9.1783   16.9039 C   0  0  0  0  0  0  0  0  0  0  0  0
    7.8675   -7.0096   15.9415 C   0  0  0  0  0  0  0  0  0  0  0  0
    5.9733   -9.6553   17.3832 N   0  0  0  0  0  0  0  0  0  0  0  0
   10.2411   -2.9363   23.4301 C   0  0  0  0  0  0  0  0  0  0  0  0
   10.7288   -3.8197   19.9525 C   0  0  0  0  0  0  0  0  0  0  0  0
   10.1189   -5.0054   19.6987 C   0  0  0  0  0  0  0  0  0  0  0  0
  1  3  4  0
  1  7  4  0
  2 21  4  0
  2 27  4  0
  3  9  4  0
  3 10  4  0
  4  8  4  0
  4 18  4  0
  4 25  1  0
  5  9  4  0
  5 12  4  0
  6 13  1  0
  6 27  1  0
  7 28  4  0
  8 11  4  0
  9 29  4  0
 10 12  4  0
 11 24  1  0
 11 26  4  0
 12 25  1  0
 13 28  1  0
 14 20  4  0
 14 23  4  0
 15 17  4  0
 15 21  4  0
 16 19  4  0
 16 23  4  0
 17 22  4  0
 18 26  4  0
 19 24  4  0
 20 24  4  0
 22 27  4  0
 28 29  4  0
M  END
$$$$

 Created by Python create_sdf_string function

 29 33  0  0  0  0  0  0  0  0999 V2000
   10.7215   -3.3326   17.6437 C   0  0  0  0  0  0  0  0  0  0  0  0
    9.9489   -3.4675   24.6487 N   0  0  0  0  0  0  0  0  0  0  0  0
   10.0172   -4.4740   17.4101 C   0  0  0  0  0  0  0  0  0  0  0  0
    6.9051   -7.9575   16.4222 C   0  0  0  0  0  0  0  0  0  0  0  0
    8.9969   -6.3552   17.9668 N   0  0  0  0  0  0  0  0  0  0  0  0
   10.6702   -3.9051   22.4070 C   0  0  0  0  0  0  0  0  0  0  0  0
   11.0625   -3.0028   18.8894 C   0  0  0  0  0  0  0  0  0  0  0  0
    5.6180   -7.9194   16.1754 O   0  0  0  0  0  0  0  0  0  0  0  0
    9.7259   -5.3080   18.4485 C   0  0  0  0  0  0  0  0  0  0  0  0
    9.4578   -5.0200   16.3036 N   0  0  0  0  0  0  0  0  0  0  0  0
    5.0287   -8.9365   16.8223 C   0  0  0  0  0  0  0  0  0  0  0  0
    8.7742   -6.1498   16.6764 C   0  0  0  0  0  0  0  0  0  0  0  0
   10.9418   -3.4032   21.2053 O   0  0  0  0  0  0  0  0  0  0  0  0
    1.4797   -8.6258   16.2950 C   0  0  0  0  0  0  0  0  0  0  0  0
    9.2861   -1.2743   25.3585 C   0  0  0  0  0  0  0  0  0  0  0  0
    1.8892  -10.3985   17.7511 N   0  0  0  0  0  0  0  0  0  0  0  0
    9.6210   -0.6952   24.0976 C   0  0  0  0  0  0  0  0  0  0  0  0
    7.0792   -9.0217   17.1429 C   0  0  0  0  0  0  0  0  0  0  0  0
    3.1713  -10.1816   17.6634 C   0  0  0  0  0  0  0  0  0  0  0  0
    2.7878   -8.3822   16.2137 C   0  0  0  0  0  0  0  0  0  0  0  0
    9.4601   -2.6590   25.6528 C   0  0  0  0  0  0  0  0  0  0  0  0
   10.1182   -1.5672   23.1165 C   0  0  0  0  0  0  0  0  0  0  0  0
    1.0552   -9.6360   17.0650 C   0  0  0  0  0  0  0  0  0  0  0  0
    3.6519   -9.1783   16.9039 C   0  0  0  0  0  0  0  0  0  0  0  0
    7.8675   -7.0096   15.9415 C   0  0  0  0  0  0  0  0  0  0  0  0
    5.9733   -9.6553   17.3832 N   0  0  0  0  0  0  0  0  0  0  0  0
   10.2411   -2.9363   23.4301 C   0  0  0  0  0  0  0  0  0  0  0  0
   10.7288   -3.8197   19.9525 C   0  0  0  0  0  0  0  0  0  0  0  0
   10.1189   -5.0054   19.6987 C   0  0  0  0  0  0  0  0  0  0  0  0
  1  3  4  0
  1  7  4  0
  2 21  4  0
  2 27  4  0
  3  9  4  0
  3 10  4  0
  4  8  4  0
  4 18  4  0
  4 25  1  0
  5  9  4  0
  5 12  4  0
  6 13  1  0
  6 27  1  0
  7 28  4  0
  8 11  4  0
  9 29  4  0
 10 12  4  0
 11 24  1  0
 11 26  4  0
 12 25  1  0
 13 28  1  0
 14 20  4  0
 14 23  4  0
 15 17  4  0
 15 21  4  0
 16 19  4  0
 16 23  4  0
 17 22  4  0
 18 26  4  0
 19 24  4  0
 20 24  4  0
 22 27  4  0
 28 29  4  0
M  END
$$$$

 Created by Python create_sdf_string function

 29 33  0  0  0  0  0  0  0  0999 V2000
   10.7215   -3.3326   17.6437 C   0  0  0  0  0  0  0  0  0  0  0  0
    9.9489   -3.4675   24.6487 N   0  0  0  0  0  0  0  0  0  0  0  0
   10.0172   -4.4740   17.4101 C   0  0  0  0  0  0  0  0  0  0  0  0
    6.9051   -7.9575   16.4222 C   0  0  0  0  0  0  0  0  0  0  0  0
    8.9969   -6.3552   17.9668 N   0  0  0  0  0  0  0  0  0  0  0  0
   10.6702   -3.9051   22.4070 C   0  0  0  0  0  0  0  0  0  0  0  0
   11.0625   -3.0028   18.8894 C   0  0  0  0  0  0  0  0  0  0  0  0
    5.6180   -7.9194   16.1754 O   0  0  0  0  0  0  0  0  0  0  0  0
    9.7259   -5.3080   18.4485 C   0  0  0  0  0  0  0  0  0  0  0  0
    9.4578   -5.0200   16.3036 N   0  0  0  0  0  0  0  0  0  0  0  0
    5.0287   -8.9365   16.8223 C   0  0  0  0  0  0  0  0  0  0  0  0
    8.7742   -6.1498   16.6764 C   0  0  0  0  0  0  0  0  0  0  0  0
   10.9418   -3.4032   21.2053 O   0  0  0  0  0  0  0  0  0  0  0  0
    1.4797   -8.6258   16.2950 C   0  0  0  0  0  0  0  0  0  0  0  0
    9.2861   -1.2743   25.3585 C   0  0  0  0  0  0  0  0  0  0  0  0
    1.8892  -10.3985   17.7511 N   0  0  0  0  0  0  0  0  0  0  0  0
    9.6210   -0.6952   24.0976 C   0  0  0  0  0  0  0  0  0  0  0  0
    7.0792   -9.0217   17.1429 C   0  0  0  0  0  0  0  0  0  0  0  0
    3.1713  -10.1816   17.6634 C   0  0  0  0  0  0  0  0  0  0  0  0
    2.7878   -8.3822   16.2137 C   0  0  0  0  0  0  0  0  0  0  0  0
    9.4601   -2.6590   25.6528 C   0  0  0  0  0  0  0  0  0  0  0  0
   10.1182   -1.5672   23.1165 C   0  0  0  0  0  0  0  0  0  0  0  0
    1.0552   -9.6360   17.0650 C   0  0  0  0  0  0  0  0  0  0  0  0
    3.6519   -9.1783   16.9039 C   0  0  0  0  0  0  0  0  0  0  0  0
    7.8675   -7.0096   15.9415 C   0  0  0  0  0  0  0  0  0  0  0  0
    5.9733   -9.6553   17.3832 N   0  0  0  0  0  0  0  0  0  0  0  0
   10.2411   -2.9363   23.4301 C   0  0  0  0  0  0  0  0  0  0  0  0
   10.7288   -3.8197   19.9525 C   0  0  0  0  0  0  0  0  0  0  0  0
   10.1189   -5.0054   19.6987 C   0  0  0  0  0  0  0  0  0  0  0  0
  1  3  4  0
  1  7  4  0
  2 21  4  0
  2 27  4  0
  3  9  4  0
  3 10  4  0
  4  8  4  0
  4 18  4  0
  4 25  1  0
  5  9  4  0
  5 12  4  0
  6 13  1  0
  6 27  1  0
  7 28  4  0
  8 11  4  0
  9 29  4  0
 10 12  4  0
 11 24  1  0
 11 26  4  0
 12 25  1  0
 13 28  1  0
 14 20  4  0
 14 23  4  0
 15 17  4  0
 15 21  4  0
 16 19  4  0
 16 23  4  0
 17 22  4  0
 18 26  4  0
 19 24  4  0
 20 24  4  0
 22 27  4  0
 28 29  4  0
M  END
$$$$

 Created by Python create_sdf_string function

 29 33  0  0  0  0  0  0  0  0999 V2000
   10.7215   -3.3326   17.6437 C   0  0  0  0  0  0  0  0  0  0  0  0
    9.9489   -3.4675   24.6487 N   0  0  0  0  0  0  0  0  0  0  0  0
   10.0172   -4.4740   17.4101 C   0  0  0  0  0  0  0  0  0  0  0  0
    6.9051   -7.9575   16.4222 C   0  0  0  0  0  0  0  0  0  0  0  0
    8.9969   -6.3552   17.9668 N   0  0  0  0  0  0  0  0  0  0  0  0
   10.6702   -3.9051   22.4070 C   0  0  0  0  0  0  0  0  0  0  0  0
   11.0625   -3.0028   18.8894 C   0  0  0  0  0  0  0  0  0  0  0  0
    5.6180   -7.9194   16.1754 O   0  0  0  0  0  0  0  0  0  0  0  0
    9.7259   -5.3080   18.4485 C   0  0  0  0  0  0  0  0  0  0  0  0
    9.4578   -5.0200   16.3036 N   0  0  0  0  0  0  0  0  0  0  0  0
    5.0287   -8.9365   16.8223 C   0  0  0  0  0  0  0  0  0  0  0  0
    8.7742   -6.1498   16.6764 C   0  0  0  0  0  0  0  0  0  0  0  0
   10.9418   -3.4032   21.2053 O   0  0  0  0  0  0  0  0  0  0  0  0
    1.4797   -8.6258   16.2950 C   0  0  0  0  0  0  0  0  0  0  0  0
    9.2861   -1.2743   25.3585 C   0  0  0  0  0  0  0  0  0  0  0  0
    1.8892  -10.3985   17.7511 N   0  0  0  0  0  0  0  0  0  0  0  0
    9.6210   -0.6952   24.0976 C   0  0  0  0  0  0  0  0  0  0  0  0
    7.0792   -9.0217   17.1429 C   0  0  0  0  0  0  0  0  0  0  0  0
    3.1713  -10.1816   17.6634 C   0  0  0  0  0  0  0  0  0  0  0  0
    2.7878   -8.3822   16.2137 C   0  0  0  0  0  0  0  0  0  0  0  0
    9.4601   -2.6590   25.6528 C   0  0  0  0  0  0  0  0  0  0  0  0
   10.1182   -1.5672   23.1165 C   0  0  0  0  0  0  0  0  0  0  0  0
    1.0552   -9.6360   17.0650 C   0  0  0  0  0  0  0  0  0  0  0  0
    3.6519   -9.1783   16.9039 C   0  0  0  0  0  0  0  0  0  0  0  0
    7.8675   -7.0096   15.9415 C   0  0  0  0  0  0  0  0  0  0  0  0
    5.9733   -9.6553   17.3832 N   0  0  0  0  0  0  0  0  0  0  0  0
   10.2411   -2.9363   23.4301 C   0  0  0  0  0  0  0  0  0  0  0  0
   10.7288   -3.8197   19.9525 C   0  0  0  0  0  0  0  0  0  0  0  0
   10.1189   -5.0054   19.6987 C   0  0  0  0  0  0  0  0  0  0  0  0
  1  3  4  0
  1  7  4  0
  2 21  4  0
  2 27  4  0
  3  9  4  0
  3 10  4  0
  4  8  4  0
  4 18  4  0
  4 25  1  0
  5  9  4  0
  5 12  4  0
  6 13  1  0
  6 27  1  0
  7 28  4  0
  8 11  4  0
  9 29  4  0
 10 12  4  0
 11 24  1  0
 11 26  4  0
 12 25  1  0
 13 28  1  0
 14 20  4  0
 14 23  4  0
 15 17  4  0
 15 21  4  0
 16 19  4  0
 16 23  4  0
 17 22  4  0
 18 26  4  0
 19 24  4  0
 20 24  4  0
 22 27  4  0
 28 29  4  0
M  END
$$$$

 Created by Python create_sdf_string function

 29 33  0  0  0  0  0  0  0  0999 V2000
   10.7215   -3.3326   17.6437 C   0  0  0  0  0  0  0  0  0  0  0  0
    9.9489   -3.4675   24.6487 N   0  0  0  0  0  0  0  0  0  0  0  0
   10.0172   -4.4740   17.4101 C   0  0  0  0  0  0  0  0  0  0  0  0
    6.9051   -7.9575   16.4222 C   0  0  0  0  0  0  0  0  0  0  0  0
    8.9969   -6.3552   17.9668 N   0  0  0  0  0  0  0  0  0  0  0  0
   10.6702   -3.9051   22.4070 C   0  0  0  0  0  0  0  0  0  0  0  0
   11.0625   -3.0028   18.8894 C   0  0  0  0  0  0  0  0  0  0  0  0
    5.6180   -7.9194   16.1754 O   0  0  0  0  0  0  0  0  0  0  0  0
    9.7259   -5.3080   18.4485 C   0  0  0  0  0  0  0  0  0  0  0  0
    9.4578   -5.0200   16.3036 N   0  0  0  0  0  0  0  0  0  0  0  0
    5.0287   -8.9365   16.8223 C   0  0  0  0  0  0  0  0  0  0  0  0
    8.7742   -6.1498   16.6764 C   0  0  0  0  0  0  0  0  0  0  0  0
   10.9418   -3.4032   21.2053 O   0  0  0  0  0  0  0  0  0  0  0  0
    1.4797   -8.6258   16.2950 C   0  0  0  0  0  0  0  0  0  0  0  0
    9.2861   -1.2743   25.3585 C   0  0  0  0  0  0  0  0  0  0  0  0
    1.8892  -10.3985   17.7511 N   0  0  0  0  0  0  0  0  0  0  0  0
    9.6210   -0.6952   24.0976 C   0  0  0  0  0  0  0  0  0  0  0  0
    7.0792   -9.0217   17.1429 C   0  0  0  0  0  0  0  0  0  0  0  0
    3.1713  -10.1816   17.6634 C   0  0  0  0  0  0  0  0  0  0  0  0
    2.7878   -8.3822   16.2137 C   0  0  0  0  0  0  0  0  0  0  0  0
    9.4601   -2.6590   25.6528 C   0  0  0  0  0  0  0  0  0  0  0  0
   10.1182   -1.5672   23.1165 C   0  0  0  0  0  0  0  0  0  0  0  0
    1.0552   -9.6360   17.0650 C   0  0  0  0  0  0  0  0  0  0  0  0
    3.6519   -9.1783   16.9039 C   0  0  0  0  0  0  0  0  0  0  0  0
    7.8675   -7.0096   15.9415 C   0  0  0  0  0  0  0  0  0  0  0  0
    5.9733   -9.6553   17.3832 N   0  0  0  0  0  0  0  0  0  0  0  0
   10.2411   -2.9363   23.4301 C   0  0  0  0  0  0  0  0  0  0  0  0
   10.7288   -3.8197   19.9525 C   0  0  0  0  0  0  0  0  0  0  0  0
   10.1189   -5.0054   19.6987 C   0  0  0  0  0  0  0  0  0  0  0  0
  1  3  4  0
  1  7  4  0
  2 21  4  0
  2 27  4  0
  3  9  4  0
  3 10  4  0
  4  8  4  0
  4 18  4  0
  4 25  1  0
  5  9  4  0
  5 12  4  0
  6 13  1  0
  6 27  1  0
  7 28  4  0
  8 11  4  0
  9 29  4  0
 10 12  4  0
 11 24  1  0
 11 26  4  0
 12 25  1  0
 13 28  1  0
 14 20  4  0
 14 23  4  0
 15 17  4  0
 15 21  4  0
 16 19  4  0
 16 23  4  0
 17 22  4  0
 18 26  4  0
 19 24  4  0
 20 24  4  0
 22 27  4  0
 28 29  4  0
M  END
$$$$

 Created by Python create_sdf_string function

 29 33  0  0  0  0  0  0  0  0999 V2000
   10.7215   -3.3326   17.6437 C   0  0  0  0  0  0  0  0  0  0  0  0
    9.9489   -3.4675   24.6487 N   0  0  0  0  0  0  0  0  0  0  0  0
   10.0172   -4.4740   17.4101 C   0  0  0  0  0  0  0  0  0  0  0  0
    6.9051   -7.9575   16.4222 C   0  0  0  0  0  0  0  0  0  0  0  0
    8.9969   -6.3552   17.9668 N   0  0  0  0  0  0  0  0  0  0  0  0
   10.6702   -3.9051   22.4070 C   0  0  0  0  0  0  0  0  0  0  0  0
   11.0625   -3.0028   18.8894 C   0  0  0  0  0  0  0  0  0  0  0  0
    5.6180   -7.9194   16.1754 O   0  0  0  0  0  0  0  0  0  0  0  0
    9.7259   -5.3080   18.4485 C   0  0  0  0  0  0  0  0  0  0  0  0
    9.4578   -5.0200   16.3036 N   0  0  0  0  0  0  0  0  0  0  0  0
    5.0287   -8.9365   16.8223 C   0  0  0  0  0  0  0  0  0  0  0  0
    8.7742   -6.1498   16.6764 C   0  0  0  0  0  0  0  0  0  0  0  0
   10.9418   -3.4032   21.2053 O   0  0  0  0  0  0  0  0  0  0  0  0
    1.4797   -8.6258   16.2950 C   0  0  0  0  0  0  0  0  0  0  0  0
    9.2861   -1.2743   25.3585 C   0  0  0  0  0  0  0  0  0  0  0  0
    1.8892  -10.3985   17.7511 N   0  0  0  0  0  0  0  0  0  0  0  0
    9.6210   -0.6952   24.0976 C   0  0  0  0  0  0  0  0  0  0  0  0
    7.0792   -9.0217   17.1429 C   0  0  0  0  0  0  0  0  0  0  0  0
    3.1713  -10.1816   17.6634 C   0  0  0  0  0  0  0  0  0  0  0  0
    2.7878   -8.3822   16.2137 C   0  0  0  0  0  0  0  0  0  0  0  0
    9.4601   -2.6590   25.6528 C   0  0  0  0  0  0  0  0  0  0  0  0
   10.1182   -1.5672   23.1165 C   0  0  0  0  0  0  0  0  0  0  0  0
    1.0552   -9.6360   17.0650 C   0  0  0  0  0  0  0  0  0  0  0  0
    3.6519   -9.1783   16.9039 C   0  0  0  0  0  0  0  0  0  0  0  0
    7.8675   -7.0096   15.9415 C   0  0  0  0  0  0  0  0  0  0  0  0
    5.9733   -9.6553   17.3832 N   0  0  0  0  0  0  0  0  0  0  0  0
   10.2411   -2.9363   23.4301 C   0  0  0  0  0  0  0  0  0  0  0  0
   10.7288   -3.8197   19.9525 C   0  0  0  0  0  0  0  0  0  0  0  0
   10.1189   -5.0054   19.6987 C   0  0  0  0  0  0  0  0  0  0  0  0
  1  3  4  0
  1  7  4  0
  2 21  4  0
  2 27  4  0
  3  9  4  0
  3 10  4  0
  4  8  4  0
  4 18  4  0
  4 25  1  0
  5  9  4  0
  5 12  4  0
  6 13  1  0
  6 27  1  0
  7 28  4  0
  8 11  4  0
  9 29  4  0
 10 12  4  0
 11 24  1  0
 11 26  4  0
 12 25  1  0
 13 28  1  0
 14 20  4  0
 14 23  4  0
 15 17  4  0
 15 21  4  0
 16 19  4  0
 16 23  4  0
 17 22  4  0
 18 26  4  0
 19 24  4  0
 20 24  4  0
 22 27  4  0
 28 29  4  0
M  END
$$$$

 Created by Python create_sdf_string function

 29 33  0  0  0  0  0  0  0  0999 V2000
   10.7215   -3.3326   17.6437 C   0  0  0  0  0  0  0  0  0  0  0  0
    9.9489   -3.4675   24.6487 N   0  0  0  0  0  0  0  0  0  0  0  0
   10.0172   -4.4740   17.4101 C   0  0  0  0  0  0  0  0  0  0  0  0
    6.9051   -7.9575   16.4222 C   0  0  0  0  0  0  0  0  0  0  0  0
    8.9969   -6.3552   17.9668 N   0  0  0  0  0  0  0  0  0  0  0  0
   10.6702   -3.9051   22.4070 C   0  0  0  0  0  0  0  0  0  0  0  0
   11.0625   -3.0028   18.8894 C   0  0  0  0  0  0  0  0  0  0  0  0
    5.6180   -7.9194   16.1754 O   0  0  0  0  0  0  0  0  0  0  0  0
    9.7259   -5.3080   18.4485 C   0  0  0  0  0  0  0  0  0  0  0  0
    9.4578   -5.0200   16.3036 N   0  0  0  0  0  0  0  0  0  0  0  0
    5.0287   -8.9365   16.8223 C   0  0  0  0  0  0  0  0  0  0  0  0
    8.7742   -6.1498   16.6764 C   0  0  0  0  0  0  0  0  0  0  0  0
   10.9418   -3.4032   21.2053 O   0  0  0  0  0  0  0  0  0  0  0  0
    1.4797   -8.6258   16.2950 C   0  0  0  0  0  0  0  0  0  0  0  0
    9.2861   -1.2743   25.3585 C   0  0  0  0  0  0  0  0  0  0  0  0
    1.8892  -10.3985   17.7511 N   0  0  0  0  0  0  0  0  0  0  0  0
    9.6210   -0.6952   24.0976 C   0  0  0  0  0  0  0  0  0  0  0  0
    7.0792   -9.0217   17.1429 C   0  0  0  0  0  0  0  0  0  0  0  0
    3.1713  -10.1816   17.6634 C   0  0  0  0  0  0  0  0  0  0  0  0
    2.7878   -8.3822   16.2137 C   0  0  0  0  0  0  0  0  0  0  0  0
    9.4601   -2.6590   25.6528 C   0  0  0  0  0  0  0  0  0  0  0  0
   10.1182   -1.5672   23.1165 C   0  0  0  0  0  0  0  0  0  0  0  0
    1.0552   -9.6360   17.0650 C   0  0  0  0  0  0  0  0  0  0  0  0
    3.6519   -9.1783   16.9039 C   0  0  0  0  0  0  0  0  0  0  0  0
    7.8675   -7.0096   15.9415 C   0  0  0  0  0  0  0  0  0  0  0  0
    5.9733   -9.6553   17.3832 N   0  0  0  0  0  0  0  0  0  0  0  0
   10.2411   -2.9363   23.4301 C   0  0  0  0  0  0  0  0  0  0  0  0
   10.7288   -3.8197   19.9525 C   0  0  0  0  0  0  0  0  0  0  0  0
   10.1189   -5.0054   19.6987 C   0  0  0  0  0  0  0  0  0  0  0  0
  1  3  4  0
  1  7  4  0
  2 21  4  0
  2 27  4  0
  3  9  4  0
  3 10  4  0
  4  8  4  0
  4 18  4  0
  4 25  1  0
  5  9  4  0
  5 12  4  0
  6 13  1  0
  6 27  1  0
  7 28  4  0
  8 11  4  0
  9 29  4  0
 10 12  4  0
 11 24  1  0
 11 26  4  0
 12 25  1  0
 13 28  1  0
 14 20  4  0
 14 23  4  0
 15 17  4  0
 15 21  4  0
 16 19  4  0
 16 23  4  0
 17 22  4  0
 18 26  4  0
 19 24  4  0
 20 24  4  0
 22 27  4  0
 28 29  4  0
M  END
$$$$

 Created by Python create_sdf_string function

 29 33  0  0  0  0  0  0  0  0999 V2000
   10.7215   -3.3326   17.6437 C   0  0  0  0  0  0  0  0  0  0  0  0
    9.9489   -3.4675   24.6487 N   0  0  0  0  0  0  0  0  0  0  0  0
   10.0172   -4.4740   17.4101 C   0  0  0  0  0  0  0  0  0  0  0  0
    6.9051   -7.9575   16.4222 C   0  0  0  0  0  0  0  0  0  0  0  0
    8.9969   -6.3552   17.9668 N   0  0  0  0  0  0  0  0  0  0  0  0
   10.6702   -3.9051   22.4070 C   0  0  0  0  0  0  0  0  0  0  0  0
   11.0625   -3.0028   18.8894 C   0  0  0  0  0  0  0  0  0  0  0  0
    5.6180   -7.9194   16.1754 O   0  0  0  0  0  0  0  0  0  0  0  0
    9.7259   -5.3080   18.4485 C   0  0  0  0  0  0  0  0  0  0  0  0
    9.4578   -5.0200   16.3036 N   0  0  0  0  0  0  0  0  0  0  0  0
    5.0287   -8.9365   16.8223 C   0  0  0  0  0  0  0  0  0  0  0  0
    8.7742   -6.1498   16.6764 C   0  0  0  0  0  0  0  0  0  0  0  0
   10.9418   -3.4032   21.2053 O   0  0  0  0  0  0  0  0  0  0  0  0
    1.4797   -8.6258   16.2950 C   0  0  0  0  0  0  0  0  0  0  0  0
    9.2861   -1.2743   25.3585 C   0  0  0  0  0  0  0  0  0  0  0  0
    1.8892  -10.3985   17.7511 N   0  0  0  0  0  0  0  0  0  0  0  0
    9.6210   -0.6952   24.0976 C   0  0  0  0  0  0  0  0  0  0  0  0
    7.0792   -9.0217   17.1429 C   0  0  0  0  0  0  0  0  0  0  0  0
    3.1713  -10.1816   17.6634 C   0  0  0  0  0  0  0  0  0  0  0  0
    2.7878   -8.3822   16.2137 C   0  0  0  0  0  0  0  0  0  0  0  0
    9.4601   -2.6590   25.6528 C   0  0  0  0  0  0  0  0  0  0  0  0
   10.1182   -1.5672   23.1165 C   0  0  0  0  0  0  0  0  0  0  0  0
    1.0552   -9.6360   17.0650 C   0  0  0  0  0  0  0  0  0  0  0  0
    3.6519   -9.1783   16.9039 C   0  0  0  0  0  0  0  0  0  0  0  0
    7.8675   -7.0096   15.9415 C   0  0  0  0  0  0  0  0  0  0  0  0
    5.9733   -9.6553   17.3832 N   0  0  0  0  0  0  0  0  0  0  0  0
   10.2411   -2.9363   23.4301 C   0  0  0  0  0  0  0  0  0  0  0  0
   10.7288   -3.8197   19.9525 C   0  0  0  0  0  0  0  0  0  0  0  0
   10.1189   -5.0054   19.6987 C   0  0  0  0  0  0  0  0  0  0  0  0
  1  3  4  0
  1  7  4  0
  2 21  4  0
  2 27  4  0
  3  9  4  0
  3 10  4  0
  4  8  4  0
  4 18  4  0
  4 25  1  0
  5  9  4  0
  5 12  4  0
  6 13  1  0
  6 27  1  0
  7 28  4  0
  8 11  4  0
  9 29  4  0
 10 12  4  0
 11 24  1  0
 11 26  4  0
 12 25  1  0
 13 28  1  0
 14 20  4  0
 14 23  4  0
 15 17  4  0
 15 21  4  0
 16 19  4  0
 16 23  4  0
 17 22  4  0
 18 26  4  0
 19 24  4  0
 20 24  4  0
 22 27  4  0
 28 29  4  0
M  END
$$$$

 Created by Python create_sdf_string function

 29 33  0  0  0  0  0  0  0  0999 V2000
   10.7215   -3.3326   17.6437 C   0  0  0  0  0  0  0  0  0  0  0  0
    9.9489   -3.4675   24.6487 N   0  0  0  0  0  0  0  0  0  0  0  0
   10.0172   -4.4740   17.4101 C   0  0  0  0  0  0  0  0  0  0  0  0
    6.9051   -7.9575   16.4222 C   0  0  0  0  0  0  0  0  0  0  0  0
    8.9969   -6.3552   17.9668 N   0  0  0  0  0  0  0  0  0  0  0  0
   10.6702   -3.9051   22.4070 C   0  0  0  0  0  0  0  0  0  0  0  0
   11.0625   -3.0028   18.8894 C   0  0  0  0  0  0  0  0  0  0  0  0
    5.6180   -7.9194   16.1754 O   0  0  0  0  0  0  0  0  0  0  0  0
    9.7259   -5.3080   18.4485 C   0  0  0  0  0  0  0  0  0  0  0  0
    9.4578   -5.0200   16.3036 N   0  0  0  0  0  0  0  0  0  0  0  0
    5.0287   -8.9365   16.8223 C   0  0  0  0  0  0  0  0  0  0  0  0
    8.7742   -6.1498   16.6764 C   0  0  0  0  0  0  0  0  0  0  0  0
   10.9418   -3.4032   21.2053 O   0  0  0  0  0  0  0  0  0  0  0  0
    1.4797   -8.6258   16.2950 C   0  0  0  0  0  0  0  0  0  0  0  0
    9.2861   -1.2743   25.3585 C   0  0  0  0  0  0  0  0  0  0  0  0
    1.8892  -10.3985   17.7511 N   0  0  0  0  0  0  0  0  0  0  0  0
    9.6210   -0.6952   24.0976 C   0  0  0  0  0  0  0  0  0  0  0  0
    7.0792   -9.0217   17.1429 C   0  0  0  0  0  0  0  0  0  0  0  0
    3.1713  -10.1816   17.6634 C   0  0  0  0  0  0  0  0  0  0  0  0
    2.7878   -8.3822   16.2137 C   0  0  0  0  0  0  0  0  0  0  0  0
    9.4601   -2.6590   25.6528 C   0  0  0  0  0  0  0  0  0  0  0  0
   10.1182   -1.5672   23.1165 C   0  0  0  0  0  0  0  0  0  0  0  0
    1.0552   -9.6360   17.0650 C   0  0  0  0  0  0  0  0  0  0  0  0
    3.6519   -9.1783   16.9039 C   0  0  0  0  0  0  0  0  0  0  0  0
    7.8675   -7.0096   15.9415 C   0  0  0  0  0  0  0  0  0  0  0  0
    5.9733   -9.6553   17.3832 N   0  0  0  0  0  0  0  0  0  0  0  0
   10.2411   -2.9363   23.4301 C   0  0  0  0  0  0  0  0  0  0  0  0
   10.7288   -3.8197   19.9525 C   0  0  0  0  0  0  0  0  0  0  0  0
   10.1189   -5.0054   19.6987 C   0  0  0  0  0  0  0  0  0  0  0  0
  1  3  4  0
  1  7  4  0
  2 21  4  0
  2 27  4  0
  3  9  4  0
  3 10  4  0
  4  8  4  0
  4 18  4  0
  4 25  1  0
  5  9  4  0
  5 12  4  0
  6 13  1  0
  6 27  1  0
  7 28  4  0
  8 11  4  0
  9 29  4  0
 10 12  4  0
 11 24  1  0
 11 26  4  0
 12 25  1  0
 13 28  1  0
 14 20  4  0
 14 23  4  0
 15 17  4  0
 15 21  4  0
 16 19  4  0
 16 23  4  0
 17 22  4  0
 18 26  4  0
 19 24  4  0
 20 24  4  0
 22 27  4  0
 28 29  4  0
M  END
$$$$

 Created by Python create_sdf_string function

 29 33  0  0  0  0  0  0  0  0999 V2000
   10.7215   -3.3326   17.6437 C   0  0  0  0  0  0  0  0  0  0  0  0
    9.9489   -3.4675   24.6487 N   0  0  0  0  0  0  0  0  0  0  0  0
   10.0172   -4.4740   17.4101 C   0  0  0  0  0  0  0  0  0  0  0  0
    6.9051   -7.9575   16.4222 C   0  0  0  0  0  0  0  0  0  0  0  0
    8.9969   -6.3552   17.9668 N   0  0  0  0  0  0  0  0  0  0  0  0
   10.6702   -3.9051   22.4070 C   0  0  0  0  0  0  0  0  0  0  0  0
   11.0625   -3.0028   18.8894 C   0  0  0  0  0  0  0  0  0  0  0  0
    5.6180   -7.9194   16.1754 O   0  0  0  0  0  0  0  0  0  0  0  0
    9.7259   -5.3080   18.4485 C   0  0  0  0  0  0  0  0  0  0  0  0
    9.4578   -5.0200   16.3036 N   0  0  0  0  0  0  0  0  0  0  0  0
    5.0287   -8.9365   16.8223 C   0  0  0  0  0  0  0  0  0  0  0  0
    8.7742   -6.1498   16.6764 C   0  0  0  0  0  0  0  0  0  0  0  0
   10.9418   -3.4032   21.2053 O   0  0  0  0  0  0  0  0  0  0  0  0
    1.4797   -8.6258   16.2950 C   0  0  0  0  0  0  0  0  0  0  0  0
    9.2861   -1.2743   25.3585 C   0  0  0  0  0  0  0  0  0  0  0  0
    1.8892  -10.3985   17.7511 N   0  0  0  0  0  0  0  0  0  0  0  0
    9.6210   -0.6952   24.0976 C   0  0  0  0  0  0  0  0  0  0  0  0
    7.0792   -9.0217   17.1429 C   0  0  0  0  0  0  0  0  0  0  0  0
    3.1713  -10.1816   17.6634 C   0  0  0  0  0  0  0  0  0  0  0  0
    2.7878   -8.3822   16.2137 C   0  0  0  0  0  0  0  0  0  0  0  0
    9.4601   -2.6590   25.6528 C   0  0  0  0  0  0  0  0  0  0  0  0
   10.1182   -1.5672   23.1165 C   0  0  0  0  0  0  0  0  0  0  0  0
    1.0552   -9.6360   17.0650 C   0  0  0  0  0  0  0  0  0  0  0  0
    3.6519   -9.1783   16.9039 C   0  0  0  0  0  0  0  0  0  0  0  0
    7.8675   -7.0096   15.9415 C   0  0  0  0  0  0  0  0  0  0  0  0
    5.9733   -9.6553   17.3832 N   0  0  0  0  0  0  0  0  0  0  0  0
   10.2411   -2.9363   23.4301 C   0  0  0  0  0  0  0  0  0  0  0  0
   10.7288   -3.8197   19.9525 C   0  0  0  0  0  0  0  0  0  0  0  0
   10.1189   -5.0054   19.6987 C   0  0  0  0  0  0  0  0  0  0  0  0
  1  3  4  0
  1  7  4  0
  2 21  4  0
  2 27  4  0
  3  9  4  0
  3 10  4  0
  4  8  4  0
  4 18  4  0
  4 25  1  0
  5  9  4  0
  5 12  4  0
  6 13  1  0
  6 27  1  0
  7 28  4  0
  8 11  4  0
  9 29  4  0
 10 12  4  0
 11 24  1  0
 11 26  4  0
 12 25  1  0
 13 28  1  0
 14 20  4  0
 14 23  4  0
 15 17  4  0
 15 21  4  0
 16 19  4  0
 16 23  4  0
 17 22  4  0
 18 26  4  0
 19 24  4  0
 20 24  4  0
 22 27  4  0
 28 29  4  0
M  END
$$$$

 Created by Python create_sdf_string function

 29 33  0  0  0  0  0  0  0  0999 V2000
   10.7215   -3.3326   17.6437 C   0  0  0  0  0  0  0  0  0  0  0  0
    9.9489   -3.4675   24.6487 N   0  0  0  0  0  0  0  0  0  0  0  0
   10.0172   -4.4740   17.4101 C   0  0  0  0  0  0  0  0  0  0  0  0
    6.9051   -7.9575   16.4222 C   0  0  0  0  0  0  0  0  0  0  0  0
    8.9969   -6.3552   17.9668 N   0  0  0  0  0  0  0  0  0  0  0  0
   10.6702   -3.9051   22.4070 C   0  0  0  0  0  0  0  0  0  0  0  0
   11.0625   -3.0028   18.8894 C   0  0  0  0  0  0  0  0  0  0  0  0
    5.6180   -7.9194   16.1754 O   0  0  0  0  0  0  0  0  0  0  0  0
    9.7259   -5.3080   18.4485 C   0  0  0  0  0  0  0  0  0  0  0  0
    9.4578   -5.0200   16.3036 N   0  0  0  0  0  0  0  0  0  0  0  0
    5.0287   -8.9365   16.8223 C   0  0  0  0  0  0  0  0  0  0  0  0
    8.7742   -6.1498   16.6764 C   0  0  0  0  0  0  0  0  0  0  0  0
   10.9418   -3.4032   21.2053 O   0  0  0  0  0  0  0  0  0  0  0  0
    1.4797   -8.6258   16.2950 C   0  0  0  0  0  0  0  0  0  0  0  0
    9.2861   -1.2743   25.3585 C   0  0  0  0  0  0  0  0  0  0  0  0
    1.8892  -10.3985   17.7511 N   0  0  0  0  0  0  0  0  0  0  0  0
    9.6210   -0.6952   24.0976 C   0  0  0  0  0  0  0  0  0  0  0  0
    7.0792   -9.0217   17.1429 C   0  0  0  0  0  0  0  0  0  0  0  0
    3.1713  -10.1816   17.6634 C   0  0  0  0  0  0  0  0  0  0  0  0
    2.7878   -8.3822   16.2137 C   0  0  0  0  0  0  0  0  0  0  0  0
    9.4601   -2.6590   25.6528 C   0  0  0  0  0  0  0  0  0  0  0  0
   10.1182   -1.5672   23.1165 C   0  0  0  0  0  0  0  0  0  0  0  0
    1.0552   -9.6360   17.0650 C   0  0  0  0  0  0  0  0  0  0  0  0
    3.6519   -9.1783   16.9039 C   0  0  0  0  0  0  0  0  0  0  0  0
    7.8675   -7.0096   15.9415 C   0  0  0  0  0  0  0  0  0  0  0  0
    5.9733   -9.6553   17.3832 N   0  0  0  0  0  0  0  0  0  0  0  0
   10.2411   -2.9363   23.4301 C   0  0  0  0  0  0  0  0  0  0  0  0
   10.7288   -3.8197   19.9525 C   0  0  0  0  0  0  0  0  0  0  0  0
   10.1189   -5.0054   19.6987 C   0  0  0  0  0  0  0  0  0  0  0  0
  1  3  4  0
  1  7  4  0
  2 21  4  0
  2 27  4  0
  3  9  4  0
  3 10  4  0
  4  8  4  0
  4 18  4  0
  4 25  1  0
  5  9  4  0
  5 12  4  0
  6 13  1  0
  6 27  1  0
  7 28  4  0
  8 11  4  0
  9 29  4  0
 10 12  4  0
 11 24  1  0
 11 26  4  0
 12 25  1  0
 13 28  1  0
 14 20  4  0
 14 23  4  0
 15 17  4  0
 15 21  4  0
 16 19  4  0
 16 23  4  0
 17 22  4  0
 18 26  4  0
 19 24  4  0
 20 24  4  0
 22 27  4  0
 28 29  4  0
M  END
$$$$

 Created by Python create_sdf_string function

 29 33  0  0  0  0  0  0  0  0999 V2000
   10.7215   -3.3326   17.6437 C   0  0  0  0  0  0  0  0  0  0  0  0
    9.9489   -3.4675   24.6487 N   0  0  0  0  0  0  0  0  0  0  0  0
   10.0172   -4.4740   17.4101 C   0  0  0  0  0  0  0  0  0  0  0  0
    6.9051   -7.9575   16.4222 C   0  0  0  0  0  0  0  0  0  0  0  0
    8.9969   -6.3552   17.9668 N   0  0  0  0  0  0  0  0  0  0  0  0
   10.6702   -3.9051   22.4070 C   0  0  0  0  0  0  0  0  0  0  0  0
   11.0625   -3.0028   18.8894 C   0  0  0  0  0  0  0  0  0  0  0  0
    5.6180   -7.9194   16.1754 O   0  0  0  0  0  0  0  0  0  0  0  0
    9.7259   -5.3080   18.4485 C   0  0  0  0  0  0  0  0  0  0  0  0
    9.4578   -5.0200   16.3036 N   0  0  0  0  0  0  0  0  0  0  0  0
    5.0287   -8.9365   16.8223 C   0  0  0  0  0  0  0  0  0  0  0  0
    8.7742   -6.1498   16.6764 C   0  0  0  0  0  0  0  0  0  0  0  0
   10.9418   -3.4032   21.2053 O   0  0  0  0  0  0  0  0  0  0  0  0
    1.4797   -8.6258   16.2950 C   0  0  0  0  0  0  0  0  0  0  0  0
    9.2861   -1.2743   25.3585 C   0  0  0  0  0  0  0  0  0  0  0  0
    1.8892  -10.3985   17.7511 N   0  0  0  0  0  0  0  0  0  0  0  0
    9.6210   -0.6952   24.0976 C   0  0  0  0  0  0  0  0  0  0  0  0
    7.0792   -9.0217   17.1429 C   0  0  0  0  0  0  0  0  0  0  0  0
    3.1713  -10.1816   17.6634 C   0  0  0  0  0  0  0  0  0  0  0  0
    2.7878   -8.3822   16.2137 C   0  0  0  0  0  0  0  0  0  0  0  0
    9.4601   -2.6590   25.6528 C   0  0  0  0  0  0  0  0  0  0  0  0
   10.1182   -1.5672   23.1165 C   0  0  0  0  0  0  0  0  0  0  0  0
    1.0552   -9.6360   17.0650 C   0  0  0  0  0  0  0  0  0  0  0  0
    3.6519   -9.1783   16.9039 C   0  0  0  0  0  0  0  0  0  0  0  0
    7.8675   -7.0096   15.9415 C   0  0  0  0  0  0  0  0  0  0  0  0
    5.9733   -9.6553   17.3832 N   0  0  0  0  0  0  0  0  0  0  0  0
   10.2411   -2.9363   23.4301 C   0  0  0  0  0  0  0  0  0  0  0  0
   10.7288   -3.8197   19.9525 C   0  0  0  0  0  0  0  0  0  0  0  0
   10.1189   -5.0054   19.6987 C   0  0  0  0  0  0  0  0  0  0  0  0
  1  3  4  0
  1  7  4  0
  2 21  4  0
  2 27  4  0
  3  9  4  0
  3 10  4  0
  4  8  4  0
  4 18  4  0
  4 25  1  0
  5  9  4  0
  5 12  4  0
  6 13  1  0
  6 27  1  0
  7 28  4  0
  8 11  4  0
  9 29  4  0
 10 12  4  0
 11 24  1  0
 11 26  4  0
 12 25  1  0
 13 28  1  0
 14 20  4  0
 14 23  4  0
 15 17  4  0
 15 21  4  0
 16 19  4  0
 16 23  4  0
 17 22  4  0
 18 26  4  0
 19 24  4  0
 20 24  4  0
 22 27  4  0
 28 29  4  0
M  END
$$$$

 Created by Python create_sdf_string function

 29 33  0  0  0  0  0  0  0  0999 V2000
   10.7215   -3.3326   17.6437 C   0  0  0  0  0  0  0  0  0  0  0  0
    9.9489   -3.4675   24.6487 N   0  0  0  0  0  0  0  0  0  0  0  0
   10.0172   -4.4740   17.4101 C   0  0  0  0  0  0  0  0  0  0  0  0
    6.9051   -7.9575   16.4222 C   0  0  0  0  0  0  0  0  0  0  0  0
    8.9969   -6.3552   17.9668 N   0  0  0  0  0  0  0  0  0  0  0  0
   10.6702   -3.9051   22.4070 C   0  0  0  0  0  0  0  0  0  0  0  0
   11.0625   -3.0028   18.8894 C   0  0  0  0  0  0  0  0  0  0  0  0
    5.6180   -7.9194   16.1754 O   0  0  0  0  0  0  0  0  0  0  0  0
    9.7259   -5.3080   18.4485 C   0  0  0  0  0  0  0  0  0  0  0  0
    9.4578   -5.0200   16.3036 N   0  0  0  0  0  0  0  0  0  0  0  0
    5.0287   -8.9365   16.8223 C   0  0  0  0  0  0  0  0  0  0  0  0
    8.7742   -6.1498   16.6764 C   0  0  0  0  0  0  0  0  0  0  0  0
   10.9418   -3.4032   21.2053 O   0  0  0  0  0  0  0  0  0  0  0  0
    1.4797   -8.6258   16.2950 C   0  0  0  0  0  0  0  0  0  0  0  0
    9.2861   -1.2743   25.3585 C   0  0  0  0  0  0  0  0  0  0  0  0
    1.8892  -10.3985   17.7511 N   0  0  0  0  0  0  0  0  0  0  0  0
    9.6210   -0.6952   24.0976 C   0  0  0  0  0  0  0  0  0  0  0  0
    7.0792   -9.0217   17.1429 C   0  0  0  0  0  0  0  0  0  0  0  0
    3.1713  -10.1816   17.6634 C   0  0  0  0  0  0  0  0  0  0  0  0
    2.7878   -8.3822   16.2137 C   0  0  0  0  0  0  0  0  0  0  0  0
    9.4601   -2.6590   25.6528 C   0  0  0  0  0  0  0  0  0  0  0  0
   10.1182   -1.5672   23.1165 C   0  0  0  0  0  0  0  0  0  0  0  0
    1.0552   -9.6360   17.0650 C   0  0  0  0  0  0  0  0  0  0  0  0
    3.6519   -9.1783   16.9039 C   0  0  0  0  0  0  0  0  0  0  0  0
    7.8675   -7.0096   15.9415 C   0  0  0  0  0  0  0  0  0  0  0  0
    5.9733   -9.6553   17.3832 N   0  0  0  0  0  0  0  0  0  0  0  0
   10.2411   -2.9363   23.4301 C   0  0  0  0  0  0  0  0  0  0  0  0
   10.7288   -3.8197   19.9525 C   0  0  0  0  0  0  0  0  0  0  0  0
   10.1189   -5.0054   19.6987 C   0  0  0  0  0  0  0  0  0  0  0  0
  1  3  4  0
  1  7  4  0
  2 21  4  0
  2 27  4  0
  3  9  4  0
  3 10  4  0
  4  8  4  0
  4 18  4  0
  4 25  1  0
  5  9  4  0
  5 12  4  0
  6 13  1  0
  6 27  1  0
  7 28  4  0
  8 11  4  0
  9 29  4  0
 10 12  4  0
 11 24  1  0
 11 26  4  0
 12 25  1  0
 13 28  1  0
 14 20  4  0
 14 23  4  0
 15 17  4  0
 15 21  4  0
 16 19  4  0
 16 23  4  0
 17 22  4  0
 18 26  4  0
 19 24  4  0
 20 24  4  0
 22 27  4  0
 28 29  4  0
M  END
$$$$

 Created by Python create_sdf_string function

 29 33  0  0  0  0  0  0  0  0999 V2000
   10.7215   -3.3326   17.6437 C   0  0  0  0  0  0  0  0  0  0  0  0
    9.9489   -3.4675   24.6487 N   0  0  0  0  0  0  0  0  0  0  0  0
   10.0172   -4.4740   17.4101 C   0  0  0  0  0  0  0  0  0  0  0  0
    6.9051   -7.9575   16.4222 C   0  0  0  0  0  0  0  0  0  0  0  0
    8.9969   -6.3552   17.9668 N   0  0  0  0  0  0  0  0  0  0  0  0
   10.6702   -3.9051   22.4070 C   0  0  0  0  0  0  0  0  0  0  0  0
   11.0625   -3.0028   18.8894 C   0  0  0  0  0  0  0  0  0  0  0  0
    5.6180   -7.9194   16.1754 O   0  0  0  0  0  0  0  0  0  0  0  0
    9.7259   -5.3080   18.4485 C   0  0  0  0  0  0  0  0  0  0  0  0
    9.4578   -5.0200   16.3036 N   0  0  0  0  0  0  0  0  0  0  0  0
    5.0287   -8.9365   16.8223 C   0  0  0  0  0  0  0  0  0  0  0  0
    8.7742   -6.1498   16.6764 C   0  0  0  0  0  0  0  0  0  0  0  0
   10.9418   -3.4032   21.2053 O   0  0  0  0  0  0  0  0  0  0  0  0
    1.4797   -8.6258   16.2950 C   0  0  0  0  0  0  0  0  0  0  0  0
    9.2861   -1.2743   25.3585 C   0  0  0  0  0  0  0  0  0  0  0  0
    1.8892  -10.3985   17.7511 N   0  0  0  0  0  0  0  0  0  0  0  0
    9.6210   -0.6952   24.0976 C   0  0  0  0  0  0  0  0  0  0  0  0
    7.0792   -9.0217   17.1429 C   0  0  0  0  0  0  0  0  0  0  0  0
    3.1713  -10.1816   17.6634 C   0  0  0  0  0  0  0  0  0  0  0  0
    2.7878   -8.3822   16.2137 C   0  0  0  0  0  0  0  0  0  0  0  0
    9.4601   -2.6590   25.6528 C   0  0  0  0  0  0  0  0  0  0  0  0
   10.1182   -1.5672   23.1165 C   0  0  0  0  0  0  0  0  0  0  0  0
    1.0552   -9.6360   17.0650 C   0  0  0  0  0  0  0  0  0  0  0  0
    3.6519   -9.1783   16.9039 C   0  0  0  0  0  0  0  0  0  0  0  0
    7.8675   -7.0096   15.9415 C   0  0  0  0  0  0  0  0  0  0  0  0
    5.9733   -9.6553   17.3832 N   0  0  0  0  0  0  0  0  0  0  0  0
   10.2411   -2.9363   23.4301 C   0  0  0  0  0  0  0  0  0  0  0  0
   10.7288   -3.8197   19.9525 C   0  0  0  0  0  0  0  0  0  0  0  0
   10.1189   -5.0054   19.6987 C   0  0  0  0  0  0  0  0  0  0  0  0
  1  3  4  0
  1  7  4  0
  2 21  4  0
  2 27  4  0
  3  9  4  0
  3 10  4  0
  4  8  4  0
  4 18  4  0
  4 25  1  0
  5  9  4  0
  5 12  4  0
  6 13  1  0
  6 27  1  0
  7 28  4  0
  8 11  4  0
  9 29  4  0
 10 12  4  0
 11 24  1  0
 11 26  4  0
 12 25  1  0
 13 28  1  0
 14 20  4  0
 14 23  4  0
 15 17  4  0
 15 21  4  0
 16 19  4  0
 16 23  4  0
 17 22  4  0
 18 26  4  0
 19 24  4  0
 20 24  4  0
 22 27  4  0
 28 29  4  0
M  END
$$$$

 Created by Python create_sdf_string function

 29 33  0  0  0  0  0  0  0  0999 V2000
   10.7215   -3.3326   17.6437 C   0  0  0  0  0  0  0  0  0  0  0  0
    9.9489   -3.4675   24.6487 N   0  0  0  0  0  0  0  0  0  0  0  0
   10.0172   -4.4740   17.4101 C   0  0  0  0  0  0  0  0  0  0  0  0
    6.9051   -7.9575   16.4222 C   0  0  0  0  0  0  0  0  0  0  0  0
    8.9969   -6.3552   17.9668 N   0  0  0  0  0  0  0  0  0  0  0  0
   10.6702   -3.9051   22.4070 C   0  0  0  0  0  0  0  0  0  0  0  0
   11.0625   -3.0028   18.8894 C   0  0  0  0  0  0  0  0  0  0  0  0
    5.6180   -7.9194   16.1754 O   0  0  0  0  0  0  0  0  0  0  0  0
    9.7259   -5.3080   18.4485 C   0  0  0  0  0  0  0  0  0  0  0  0
    9.4578   -5.0200   16.3036 N   0  0  0  0  0  0  0  0  0  0  0  0
    5.0287   -8.9365   16.8223 C   0  0  0  0  0  0  0  0  0  0  0  0
    8.7742   -6.1498   16.6764 C   0  0  0  0  0  0  0  0  0  0  0  0
   10.9418   -3.4032   21.2053 O   0  0  0  0  0  0  0  0  0  0  0  0
    1.4797   -8.6258   16.2950 C   0  0  0  0  0  0  0  0  0  0  0  0
    9.2861   -1.2743   25.3585 C   0  0  0  0  0  0  0  0  0  0  0  0
    1.8892  -10.3985   17.7511 N   0  0  0  0  0  0  0  0  0  0  0  0
    9.6210   -0.6952   24.0976 C   0  0  0  0  0  0  0  0  0  0  0  0
    7.0792   -9.0217   17.1429 C   0  0  0  0  0  0  0  0  0  0  0  0
    3.1713  -10.1816   17.6634 C   0  0  0  0  0  0  0  0  0  0  0  0
    2.7878   -8.3822   16.2137 C   0  0  0  0  0  0  0  0  0  0  0  0
    9.4601   -2.6590   25.6528 C   0  0  0  0  0  0  0  0  0  0  0  0
   10.1182   -1.5672   23.1165 C   0  0  0  0  0  0  0  0  0  0  0  0
    1.0552   -9.6360   17.0650 C   0  0  0  0  0  0  0  0  0  0  0  0
    3.6519   -9.1783   16.9039 C   0  0  0  0  0  0  0  0  0  0  0  0
    7.8675   -7.0096   15.9415 C   0  0  0  0  0  0  0  0  0  0  0  0
    5.9733   -9.6553   17.3832 N   0  0  0  0  0  0  0  0  0  0  0  0
   10.2411   -2.9363   23.4301 C   0  0  0  0  0  0  0  0  0  0  0  0
   10.7288   -3.8197   19.9525 C   0  0  0  0  0  0  0  0  0  0  0  0
   10.1189   -5.0054   19.6987 C   0  0  0  0  0  0  0  0  0  0  0  0
  1  3  4  0
  1  7  4  0
  2 21  4  0
  2 27  4  0
  3  9  4  0
  3 10  4  0
  4  8  4  0
  4 18  4  0
  4 25  1  0
  5  9  4  0
  5 12  4  0
  6 13  1  0
  6 27  1  0
  7 28  4  0
  8 11  4  0
  9 29  4  0
 10 12  4  0
 11 24  1  0
 11 26  4  0
 12 25  1  0
 13 28  1  0
 14 20  4  0
 14 23  4  0
 15 17  4  0
 15 21  4  0
 16 19  4  0
 16 23  4  0
 17 22  4  0
 18 26  4  0
 19 24  4  0
 20 24  4  0
 22 27  4  0
 28 29  4  0
M  END
$$$$

 Created by Python create_sdf_string function

 29 33  0  0  0  0  0  0  0  0999 V2000
   10.7215   -3.3326   17.6437 C   0  0  0  0  0  0  0  0  0  0  0  0
    9.9489   -3.4675   24.6487 N   0  0  0  0  0  0  0  0  0  0  0  0
   10.0172   -4.4740   17.4101 C   0  0  0  0  0  0  0  0  0  0  0  0
    6.9051   -7.9575   16.4222 C   0  0  0  0  0  0  0  0  0  0  0  0
    8.9969   -6.3552   17.9668 N   0  0  0  0  0  0  0  0  0  0  0  0
   10.6702   -3.9051   22.4070 C   0  0  0  0  0  0  0  0  0  0  0  0
   11.0625   -3.0028   18.8894 C   0  0  0  0  0  0  0  0  0  0  0  0
    5.6180   -7.9194   16.1754 O   0  0  0  0  0  0  0  0  0  0  0  0
    9.7259   -5.3080   18.4485 C   0  0  0  0  0  0  0  0  0  0  0  0
    9.4578   -5.0200   16.3036 N   0  0  0  0  0  0  0  0  0  0  0  0
    5.0287   -8.9365   16.8223 C   0  0  0  0  0  0  0  0  0  0  0  0
    8.7742   -6.1498   16.6764 C   0  0  0  0  0  0  0  0  0  0  0  0
   10.9418   -3.4032   21.2053 O   0  0  0  0  0  0  0  0  0  0  0  0
    1.4797   -8.6258   16.2950 C   0  0  0  0  0  0  0  0  0  0  0  0
    9.2861   -1.2743   25.3585 C   0  0  0  0  0  0  0  0  0  0  0  0
    1.8892  -10.3985   17.7511 N   0  0  0  0  0  0  0  0  0  0  0  0
    9.6210   -0.6952   24.0976 C   0  0  0  0  0  0  0  0  0  0  0  0
    7.0792   -9.0217   17.1429 C   0  0  0  0  0  0  0  0  0  0  0  0
    3.1713  -10.1816   17.6634 C   0  0  0  0  0  0  0  0  0  0  0  0
    2.7878   -8.3822   16.2137 C   0  0  0  0  0  0  0  0  0  0  0  0
    9.4601   -2.6590   25.6528 C   0  0  0  0  0  0  0  0  0  0  0  0
   10.1182   -1.5672   23.1165 C   0  0  0  0  0  0  0  0  0  0  0  0
    1.0552   -9.6360   17.0650 C   0  0  0  0  0  0  0  0  0  0  0  0
    3.6519   -9.1783   16.9039 C   0  0  0  0  0  0  0  0  0  0  0  0
    7.8675   -7.0096   15.9415 C   0  0  0  0  0  0  0  0  0  0  0  0
    5.9733   -9.6553   17.3832 N   0  0  0  0  0  0  0  0  0  0  0  0
   10.2411   -2.9363   23.4301 C   0  0  0  0  0  0  0  0  0  0  0  0
   10.7288   -3.8197   19.9525 C   0  0  0  0  0  0  0  0  0  0  0  0
   10.1189   -5.0054   19.6987 C   0  0  0  0  0  0  0  0  0  0  0  0
  1  3  4  0
  1  7  4  0
  2 21  4  0
  2 27  4  0
  3  9  4  0
  3 10  4  0
  4  8  4  0
  4 18  4  0
  4 25  1  0
  5  9  4  0
  5 12  4  0
  6 13  1  0
  6 27  1  0
  7 28  4  0
  8 11  4  0
  9 29  4  0
 10 12  4  0
 11 24  1  0
 11 26  4  0
 12 25  1  0
 13 28  1  0
 14 20  4  0
 14 23  4  0
 15 17  4  0
 15 21  4  0
 16 19  4  0
 16 23  4  0
 17 22  4  0
 18 26  4  0
 19 24  4  0
 20 24  4  0
 22 27  4  0
 28 29  4  0
M  END
$$$$

 Created by Python create_sdf_string function

 29 33  0  0  0  0  0  0  0  0999 V2000
   10.7215   -3.3326   17.6437 C   0  0  0  0  0  0  0  0  0  0  0  0
    9.9489   -3.4675   24.6487 N   0  0  0  0  0  0  0  0  0  0  0  0
   10.0172   -4.4740   17.4101 C   0  0  0  0  0  0  0  0  0  0  0  0
    6.9051   -7.9575   16.4222 C   0  0  0  0  0  0  0  0  0  0  0  0
    8.9969   -6.3552   17.9668 N   0  0  0  0  0  0  0  0  0  0  0  0
   10.6702   -3.9051   22.4070 C   0  0  0  0  0  0  0  0  0  0  0  0
   11.0625   -3.0028   18.8894 C   0  0  0  0  0  0  0  0  0  0  0  0
    5.6180   -7.9194   16.1754 O   0  0  0  0  0  0  0  0  0  0  0  0
    9.7259   -5.3080   18.4485 C   0  0  0  0  0  0  0  0  0  0  0  0
    9.4578   -5.0200   16.3036 N   0  0  0  0  0  0  0  0  0  0  0  0
    5.0287   -8.9365   16.8223 C   0  0  0  0  0  0  0  0  0  0  0  0
    8.7742   -6.1498   16.6764 C   0  0  0  0  0  0  0  0  0  0  0  0
   10.9418   -3.4032   21.2053 O   0  0  0  0  0  0  0  0  0  0  0  0
    1.4797   -8.6258   16.2950 C   0  0  0  0  0  0  0  0  0  0  0  0
    9.2861   -1.2743   25.3585 C   0  0  0  0  0  0  0  0  0  0  0  0
    1.8892  -10.3985   17.7511 N   0  0  0  0  0  0  0  0  0  0  0  0
    9.6210   -0.6952   24.0976 C   0  0  0  0  0  0  0  0  0  0  0  0
    7.0792   -9.0217   17.1429 C   0  0  0  0  0  0  0  0  0  0  0  0
    3.1713  -10.1816   17.6634 C   0  0  0  0  0  0  0  0  0  0  0  0
    2.7878   -8.3822   16.2137 C   0  0  0  0  0  0  0  0  0  0  0  0
    9.4601   -2.6590   25.6528 C   0  0  0  0  0  0  0  0  0  0  0  0
   10.1182   -1.5672   23.1165 C   0  0  0  0  0  0  0  0  0  0  0  0
    1.0552   -9.6360   17.0650 C   0  0  0  0  0  0  0  0  0  0  0  0
    3.6519   -9.1783   16.9039 C   0  0  0  0  0  0  0  0  0  0  0  0
    7.8675   -7.0096   15.9415 C   0  0  0  0  0  0  0  0  0  0  0  0
    5.9733   -9.6553   17.3832 N   0  0  0  0  0  0  0  0  0  0  0  0
   10.2411   -2.9363   23.4301 C   0  0  0  0  0  0  0  0  0  0  0  0
   10.7288   -3.8197   19.9525 C   0  0  0  0  0  0  0  0  0  0  0  0
   10.1189   -5.0054   19.6987 C   0  0  0  0  0  0  0  0  0  0  0  0
  1  3  4  0
  1  7  4  0
  2 21  4  0
  2 27  4  0
  3  9  4  0
  3 10  4  0
  4  8  4  0
  4 18  4  0
  4 25  1  0
  5  9  4  0
  5 12  4  0
  6 13  1  0
  6 27  1  0
  7 28  4  0
  8 11  4  0
  9 29  4  0
 10 12  4  0
 11 24  1  0
 11 26  4  0
 12 25  1  0
 13 28  1  0
 14 20  4  0
 14 23  4  0
 15 17  4  0
 15 21  4  0
 16 19  4  0
 16 23  4  0
 17 22  4  0
 18 26  4  0
 19 24  4  0
 20 24  4  0
 22 27  4  0
 28 29  4  0
M  END
$$$$

 Created by Python create_sdf_string function

 29 33  0  0  0  0  0  0  0  0999 V2000
   10.7215   -3.3326   17.6437 C   0  0  0  0  0  0  0  0  0  0  0  0
    9.9489   -3.4675   24.6487 N   0  0  0  0  0  0  0  0  0  0  0  0
   10.0172   -4.4740   17.4101 C   0  0  0  0  0  0  0  0  0  0  0  0
    6.9051   -7.9575   16.4222 C   0  0  0  0  0  0  0  0  0  0  0  0
    8.9969   -6.3552   17.9668 N   0  0  0  0  0  0  0  0  0  0  0  0
   10.6702   -3.9051   22.4070 C   0  0  0  0  0  0  0  0  0  0  0  0
   11.0625   -3.0028   18.8894 C   0  0  0  0  0  0  0  0  0  0  0  0
    5.6180   -7.9194   16.1754 O   0  0  0  0  0  0  0  0  0  0  0  0
    9.7259   -5.3080   18.4485 C   0  0  0  0  0  0  0  0  0  0  0  0
    9.4578   -5.0200   16.3036 N   0  0  0  0  0  0  0  0  0  0  0  0
    5.0287   -8.9365   16.8223 C   0  0  0  0  0  0  0  0  0  0  0  0
    8.7742   -6.1498   16.6764 C   0  0  0  0  0  0  0  0  0  0  0  0
   10.9418   -3.4032   21.2053 O   0  0  0  0  0  0  0  0  0  0  0  0
    1.4797   -8.6258   16.2950 C   0  0  0  0  0  0  0  0  0  0  0  0
    9.2861   -1.2743   25.3585 C   0  0  0  0  0  0  0  0  0  0  0  0
    1.8892  -10.3985   17.7511 N   0  0  0  0  0  0  0  0  0  0  0  0
    9.6210   -0.6952   24.0976 C   0  0  0  0  0  0  0  0  0  0  0  0
    7.0792   -9.0217   17.1429 C   0  0  0  0  0  0  0  0  0  0  0  0
    3.1713  -10.1816   17.6634 C   0  0  0  0  0  0  0  0  0  0  0  0
    2.7878   -8.3822   16.2137 C   0  0  0  0  0  0  0  0  0  0  0  0
    9.4601   -2.6590   25.6528 C   0  0  0  0  0  0  0  0  0  0  0  0
   10.1182   -1.5672   23.1165 C   0  0  0  0  0  0  0  0  0  0  0  0
    1.0552   -9.6360   17.0650 C   0  0  0  0  0  0  0  0  0  0  0  0
    3.6519   -9.1783   16.9039 C   0  0  0  0  0  0  0  0  0  0  0  0
    7.8675   -7.0096   15.9415 C   0  0  0  0  0  0  0  0  0  0  0  0
    5.9733   -9.6553   17.3832 N   0  0  0  0  0  0  0  0  0  0  0  0
   10.2411   -2.9363   23.4301 C   0  0  0  0  0  0  0  0  0  0  0  0
   10.7288   -3.8197   19.9525 C   0  0  0  0  0  0  0  0  0  0  0  0
   10.1189   -5.0054   19.6987 C   0  0  0  0  0  0  0  0  0  0  0  0
  1  3  4  0
  1  7  4  0
  2 21  4  0
  2 27  4  0
  3  9  4  0
  3 10  4  0
  4  8  4  0
  4 18  4  0
  4 25  1  0
  5  9  4  0
  5 12  4  0
  6 13  1  0
  6 27  1  0
  7 28  4  0
  8 11  4  0
  9 29  4  0
 10 12  4  0
 11 24  1  0
 11 26  4  0
 12 25  1  0
 13 28  1  0
 14 20  4  0
 14 23  4  0
 15 17  4  0
 15 21  4  0
 16 19  4  0
 16 23  4  0
 17 22  4  0
 18 26  4  0
 19 24  4  0
 20 24  4  0
 22 27  4  0
 28 29  4  0
M  END
$$$$

 Created by Python create_sdf_string function

 29 33  0  0  0  0  0  0  0  0999 V2000
   10.7215   -3.3326   17.6437 C   0  0  0  0  0  0  0  0  0  0  0  0
    9.9489   -3.4675   24.6487 N   0  0  0  0  0  0  0  0  0  0  0  0
   10.0172   -4.4740   17.4101 C   0  0  0  0  0  0  0  0  0  0  0  0
    6.9051   -7.9575   16.4222 C   0  0  0  0  0  0  0  0  0  0  0  0
    8.9969   -6.3552   17.9668 N   0  0  0  0  0  0  0  0  0  0  0  0
   10.6702   -3.9051   22.4070 C   0  0  0  0  0  0  0  0  0  0  0  0
   11.0625   -3.0028   18.8894 C   0  0  0  0  0  0  0  0  0  0  0  0
    5.6180   -7.9194   16.1754 O   0  0  0  0  0  0  0  0  0  0  0  0
    9.7259   -5.3080   18.4485 C   0  0  0  0  0  0  0  0  0  0  0  0
    9.4578   -5.0200   16.3036 N   0  0  0  0  0  0  0  0  0  0  0  0
    5.0287   -8.9365   16.8223 C   0  0  0  0  0  0  0  0  0  0  0  0
    8.7742   -6.1498   16.6764 C   0  0  0  0  0  0  0  0  0  0  0  0
   10.9418   -3.4032   21.2053 O   0  0  0  0  0  0  0  0  0  0  0  0
    1.4797   -8.6258   16.2950 C   0  0  0  0  0  0  0  0  0  0  0  0
    9.2861   -1.2743   25.3585 C   0  0  0  0  0  0  0  0  0  0  0  0
    1.8892  -10.3985   17.7511 N   0  0  0  0  0  0  0  0  0  0  0  0
    9.6210   -0.6952   24.0976 C   0  0  0  0  0  0  0  0  0  0  0  0
    7.0792   -9.0217   17.1429 C   0  0  0  0  0  0  0  0  0  0  0  0
    3.1713  -10.1816   17.6634 C   0  0  0  0  0  0  0  0  0  0  0  0
    2.7878   -8.3822   16.2137 C   0  0  0  0  0  0  0  0  0  0  0  0
    9.4601   -2.6590   25.6528 C   0  0  0  0  0  0  0  0  0  0  0  0
   10.1182   -1.5672   23.1165 C   0  0  0  0  0  0  0  0  0  0  0  0
    1.0552   -9.6360   17.0650 C   0  0  0  0  0  0  0  0  0  0  0  0
    3.6519   -9.1783   16.9039 C   0  0  0  0  0  0  0  0  0  0  0  0
    7.8675   -7.0096   15.9415 C   0  0  0  0  0  0  0  0  0  0  0  0
    5.9733   -9.6553   17.3832 N   0  0  0  0  0  0  0  0  0  0  0  0
   10.2411   -2.9363   23.4301 C   0  0  0  0  0  0  0  0  0  0  0  0
   10.7288   -3.8197   19.9525 C   0  0  0  0  0  0  0  0  0  0  0  0
   10.1189   -5.0054   19.6987 C   0  0  0  0  0  0  0  0  0  0  0  0
  1  3  4  0
  1  7  4  0
  2 21  4  0
  2 27  4  0
  3  9  4  0
  3 10  4  0
  4  8  4  0
  4 18  4  0
  4 25  1  0
  5  9  4  0
  5 12  4  0
  6 13  1  0
  6 27  1  0
  7 28  4  0
  8 11  4  0
  9 29  4  0
 10 12  4  0
 11 24  1  0
 11 26  4  0
 12 25  1  0
 13 28  1  0
 14 20  4  0
 14 23  4  0
 15 17  4  0
 15 21  4  0
 16 19  4  0
 16 23  4  0
 17 22  4  0
 18 26  4  0
 19 24  4  0
 20 24  4  0
 22 27  4  0
 28 29  4  0
M  END
$$$$

 Created by Python create_sdf_string function

 29 33  0  0  0  0  0  0  0  0999 V2000
   10.7215   -3.3326   17.6437 C   0  0  0  0  0  0  0  0  0  0  0  0
    9.9489   -3.4675   24.6487 N   0  0  0  0  0  0  0  0  0  0  0  0
   10.0172   -4.4740   17.4101 C   0  0  0  0  0  0  0  0  0  0  0  0
    6.9051   -7.9575   16.4222 C   0  0  0  0  0  0  0  0  0  0  0  0
    8.9969   -6.3552   17.9668 N   0  0  0  0  0  0  0  0  0  0  0  0
   10.6702   -3.9051   22.4070 C   0  0  0  0  0  0  0  0  0  0  0  0
   11.0625   -3.0028   18.8894 C   0  0  0  0  0  0  0  0  0  0  0  0
    5.6180   -7.9194   16.1754 O   0  0  0  0  0  0  0  0  0  0  0  0
    9.7259   -5.3080   18.4485 C   0  0  0  0  0  0  0  0  0  0  0  0
    9.4578   -5.0200   16.3036 N   0  0  0  0  0  0  0  0  0  0  0  0
    5.0287   -8.9365   16.8223 C   0  0  0  0  0  0  0  0  0  0  0  0
    8.7742   -6.1498   16.6764 C   0  0  0  0  0  0  0  0  0  0  0  0
   10.9418   -3.4032   21.2053 O   0  0  0  0  0  0  0  0  0  0  0  0
    1.4797   -8.6258   16.2950 C   0  0  0  0  0  0  0  0  0  0  0  0
    9.2861   -1.2743   25.3585 C   0  0  0  0  0  0  0  0  0  0  0  0
    1.8892  -10.3985   17.7511 N   0  0  0  0  0  0  0  0  0  0  0  0
    9.6210   -0.6952   24.0976 C   0  0  0  0  0  0  0  0  0  0  0  0
    7.0792   -9.0217   17.1429 C   0  0  0  0  0  0  0  0  0  0  0  0
    3.1713  -10.1816   17.6634 C   0  0  0  0  0  0  0  0  0  0  0  0
    2.7878   -8.3822   16.2137 C   0  0  0  0  0  0  0  0  0  0  0  0
    9.4601   -2.6590   25.6528 C   0  0  0  0  0  0  0  0  0  0  0  0
   10.1182   -1.5672   23.1165 C   0  0  0  0  0  0  0  0  0  0  0  0
    1.0552   -9.6360   17.0650 C   0  0  0  0  0  0  0  0  0  0  0  0
    3.6519   -9.1783   16.9039 C   0  0  0  0  0  0  0  0  0  0  0  0
    7.8675   -7.0096   15.9415 C   0  0  0  0  0  0  0  0  0  0  0  0
    5.9733   -9.6553   17.3832 N   0  0  0  0  0  0  0  0  0  0  0  0
   10.2411   -2.9363   23.4301 C   0  0  0  0  0  0  0  0  0  0  0  0
   10.7288   -3.8197   19.9525 C   0  0  0  0  0  0  0  0  0  0  0  0
   10.1189   -5.0054   19.6987 C   0  0  0  0  0  0  0  0  0  0  0  0
  1  3  4  0
  1  7  4  0
  2 21  4  0
  2 27  4  0
  3  9  4  0
  3 10  4  0
  4  8  4  0
  4 18  4  0
  4 25  1  0
  5  9  4  0
  5 12  4  0
  6 13  1  0
  6 27  1  0
  7 28  4  0
  8 11  4  0
  9 29  4  0
 10 12  4  0
 11 24  1  0
 11 26  4  0
 12 25  1  0
 13 28  1  0
 14 20  4  0
 14 23  4  0
 15 17  4  0
 15 21  4  0
 16 19  4  0
 16 23  4  0
 17 22  4  0
 18 26  4  0
 19 24  4  0
 20 24  4  0
 22 27  4  0
 28 29  4  0
M  END
$$$$

 Created by Python create_sdf_string function

 29 33  0  0  0  0  0  0  0  0999 V2000
   10.7215   -3.3326   17.6437 C   0  0  0  0  0  0  0  0  0  0  0  0
    9.9489   -3.4675   24.6487 N   0  0  0  0  0  0  0  0  0  0  0  0
   10.0172   -4.4740   17.4101 C   0  0  0  0  0  0  0  0  0  0  0  0
    6.9051   -7.9575   16.4222 C   0  0  0  0  0  0  0  0  0  0  0  0
    8.9969   -6.3552   17.9668 N   0  0  0  0  0  0  0  0  0  0  0  0
   10.6702   -3.9051   22.4070 C   0  0  0  0  0  0  0  0  0  0  0  0
   11.0625   -3.0028   18.8894 C   0  0  0  0  0  0  0  0  0  0  0  0
    5.6180   -7.9194   16.1754 O   0  0  0  0  0  0  0  0  0  0  0  0
    9.7259   -5.3080   18.4485 C   0  0  0  0  0  0  0  0  0  0  0  0
    9.4578   -5.0200   16.3036 N   0  0  0  0  0  0  0  0  0  0  0  0
    5.0287   -8.9365   16.8223 C   0  0  0  0  0  0  0  0  0  0  0  0
    8.7742   -6.1498   16.6764 C   0  0  0  0  0  0  0  0  0  0  0  0
   10.9418   -3.4032   21.2053 O   0  0  0  0  0  0  0  0  0  0  0  0
    1.4797   -8.6258   16.2950 C   0  0  0  0  0  0  0  0  0  0  0  0
    9.2861   -1.2743   25.3585 C   0  0  0  0  0  0  0  0  0  0  0  0
    1.8892  -10.3985   17.7511 N   0  0  0  0  0  0  0  0  0  0  0  0
    9.6210   -0.6952   24.0976 C   0  0  0  0  0  0  0  0  0  0  0  0
    7.0792   -9.0217   17.1429 C   0  0  0  0  0  0  0  0  0  0  0  0
    3.1713  -10.1816   17.6634 C   0  0  0  0  0  0  0  0  0  0  0  0
    2.7878   -8.3822   16.2137 C   0  0  0  0  0  0  0  0  0  0  0  0
    9.4601   -2.6590   25.6528 C   0  0  0  0  0  0  0  0  0  0  0  0
   10.1182   -1.5672   23.1165 C   0  0  0  0  0  0  0  0  0  0  0  0
    1.0552   -9.6360   17.0650 C   0  0  0  0  0  0  0  0  0  0  0  0
    3.6519   -9.1783   16.9039 C   0  0  0  0  0  0  0  0  0  0  0  0
    7.8675   -7.0096   15.9415 C   0  0  0  0  0  0  0  0  0  0  0  0
    5.9733   -9.6553   17.3832 N   0  0  0  0  0  0  0  0  0  0  0  0
   10.2411   -2.9363   23.4301 C   0  0  0  0  0  0  0  0  0  0  0  0
   10.7288   -3.8197   19.9525 C   0  0  0  0  0  0  0  0  0  0  0  0
   10.1189   -5.0054   19.6987 C   0  0  0  0  0  0  0  0  0  0  0  0
  1  3  4  0
  1  7  4  0
  2 21  4  0
  2 27  4  0
  3  9  4  0
  3 10  4  0
  4  8  4  0
  4 18  4  0
  4 25  1  0
  5  9  4  0
  5 12  4  0
  6 13  1  0
  6 27  1  0
  7 28  4  0
  8 11  4  0
  9 29  4  0
 10 12  4  0
 11 24  1  0
 11 26  4  0
 12 25  1  0
 13 28  1  0
 14 20  4  0
 14 23  4  0
 15 17  4  0
 15 21  4  0
 16 19  4  0
 16 23  4  0
 17 22  4  0
 18 26  4  0
 19 24  4  0
 20 24  4  0
 22 27  4  0
 28 29  4  0
M  END
$$$$

 Created by Python create_sdf_string function

 29 33  0  0  0  0  0  0  0  0999 V2000
   10.7215   -3.3326   17.6437 C   0  0  0  0  0  0  0  0  0  0  0  0
    9.9489   -3.4675   24.6487 N   0  0  0  0  0  0  0  0  0  0  0  0
   10.0172   -4.4740   17.4101 C   0  0  0  0  0  0  0  0  0  0  0  0
    6.9051   -7.9575   16.4222 C   0  0  0  0  0  0  0  0  0  0  0  0
    8.9969   -6.3552   17.9668 N   0  0  0  0  0  0  0  0  0  0  0  0
   10.6702   -3.9051   22.4070 C   0  0  0  0  0  0  0  0  0  0  0  0
   11.0625   -3.0028   18.8894 C   0  0  0  0  0  0  0  0  0  0  0  0
    5.6180   -7.9194   16.1754 O   0  0  0  0  0  0  0  0  0  0  0  0
    9.7259   -5.3080   18.4485 C   0  0  0  0  0  0  0  0  0  0  0  0
    9.4578   -5.0200   16.3036 N   0  0  0  0  0  0  0  0  0  0  0  0
    5.0287   -8.9365   16.8223 C   0  0  0  0  0  0  0  0  0  0  0  0
    8.7742   -6.1498   16.6764 C   0  0  0  0  0  0  0  0  0  0  0  0
   10.9418   -3.4032   21.2053 O   0  0  0  0  0  0  0  0  0  0  0  0
    1.4797   -8.6258   16.2950 C   0  0  0  0  0  0  0  0  0  0  0  0
    9.2861   -1.2743   25.3585 C   0  0  0  0  0  0  0  0  0  0  0  0
    1.8892  -10.3985   17.7511 N   0  0  0  0  0  0  0  0  0  0  0  0
    9.6210   -0.6952   24.0976 C   0  0  0  0  0  0  0  0  0  0  0  0
    7.0792   -9.0217   17.1429 C   0  0  0  0  0  0  0  0  0  0  0  0
    3.1713  -10.1816   17.6634 C   0  0  0  0  0  0  0  0  0  0  0  0
    2.7878   -8.3822   16.2137 C   0  0  0  0  0  0  0  0  0  0  0  0
    9.4601   -2.6590   25.6528 C   0  0  0  0  0  0  0  0  0  0  0  0
   10.1182   -1.5672   23.1165 C   0  0  0  0  0  0  0  0  0  0  0  0
    1.0552   -9.6360   17.0650 C   0  0  0  0  0  0  0  0  0  0  0  0
    3.6519   -9.1783   16.9039 C   0  0  0  0  0  0  0  0  0  0  0  0
    7.8675   -7.0096   15.9415 C   0  0  0  0  0  0  0  0  0  0  0  0
    5.9733   -9.6553   17.3832 N   0  0  0  0  0  0  0  0  0  0  0  0
   10.2411   -2.9363   23.4301 C   0  0  0  0  0  0  0  0  0  0  0  0
   10.7288   -3.8197   19.9525 C   0  0  0  0  0  0  0  0  0  0  0  0
   10.1189   -5.0054   19.6987 C   0  0  0  0  0  0  0  0  0  0  0  0
  1  3  4  0
  1  7  4  0
  2 21  4  0
  2 27  4  0
  3  9  4  0
  3 10  4  0
  4  8  4  0
  4 18  4  0
  4 25  1  0
  5  9  4  0
  5 12  4  0
  6 13  1  0
  6 27  1  0
  7 28  4  0
  8 11  4  0
  9 29  4  0
 10 12  4  0
 11 24  1  0
 11 26  4  0
 12 25  1  0
 13 28  1  0
 14 20  4  0
 14 23  4  0
 15 17  4  0
 15 21  4  0
 16 19  4  0
 16 23  4  0
 17 22  4  0
 18 26  4  0
 19 24  4  0
 20 24  4  0
 22 27  4  0
 28 29  4  0
M  END
$$$$

 Created by Python create_sdf_string function

 29 33  0  0  0  0  0  0  0  0999 V2000
   10.7215   -3.3326   17.6437 C   0  0  0  0  0  0  0  0  0  0  0  0
    9.9489   -3.4675   24.6487 N   0  0  0  0  0  0  0  0  0  0  0  0
   10.0172   -4.4740   17.4101 C   0  0  0  0  0  0  0  0  0  0  0  0
    6.9051   -7.9575   16.4222 C   0  0  0  0  0  0  0  0  0  0  0  0
    8.9969   -6.3552   17.9668 N   0  0  0  0  0  0  0  0  0  0  0  0
   10.6702   -3.9051   22.4070 C   0  0  0  0  0  0  0  0  0  0  0  0
   11.0625   -3.0028   18.8894 C   0  0  0  0  0  0  0  0  0  0  0  0
    5.6180   -7.9194   16.1754 O   0  0  0  0  0  0  0  0  0  0  0  0
    9.7259   -5.3080   18.4485 C   0  0  0  0  0  0  0  0  0  0  0  0
    9.4578   -5.0200   16.3036 N   0  0  0  0  0  0  0  0  0  0  0  0
    5.0287   -8.9365   16.8223 C   0  0  0  0  0  0  0  0  0  0  0  0
    8.7742   -6.1498   16.6764 C   0  0  0  0  0  0  0  0  0  0  0  0
   10.9418   -3.4032   21.2053 O   0  0  0  0  0  0  0  0  0  0  0  0
    1.4797   -8.6258   16.2950 C   0  0  0  0  0  0  0  0  0  0  0  0
    9.2861   -1.2743   25.3585 C   0  0  0  0  0  0  0  0  0  0  0  0
    1.8892  -10.3985   17.7511 N   0  0  0  0  0  0  0  0  0  0  0  0
    9.6210   -0.6952   24.0976 C   0  0  0  0  0  0  0  0  0  0  0  0
    7.0792   -9.0217   17.1429 C   0  0  0  0  0  0  0  0  0  0  0  0
    3.1713  -10.1816   17.6634 C   0  0  0  0  0  0  0  0  0  0  0  0
    2.7878   -8.3822   16.2137 C   0  0  0  0  0  0  0  0  0  0  0  0
    9.4601   -2.6590   25.6528 C   0  0  0  0  0  0  0  0  0  0  0  0
   10.1182   -1.5672   23.1165 C   0  0  0  0  0  0  0  0  0  0  0  0
    1.0552   -9.6360   17.0650 C   0  0  0  0  0  0  0  0  0  0  0  0
    3.6519   -9.1783   16.9039 C   0  0  0  0  0  0  0  0  0  0  0  0
    7.8675   -7.0096   15.9415 C   0  0  0  0  0  0  0  0  0  0  0  0
    5.9733   -9.6553   17.3832 N   0  0  0  0  0  0  0  0  0  0  0  0
   10.2411   -2.9363   23.4301 C   0  0  0  0  0  0  0  0  0  0  0  0
   10.7288   -3.8197   19.9525 C   0  0  0  0  0  0  0  0  0  0  0  0
   10.1189   -5.0054   19.6987 C   0  0  0  0  0  0  0  0  0  0  0  0
  1  3  4  0
  1  7  4  0
  2 21  4  0
  2 27  4  0
  3  9  4  0
  3 10  4  0
  4  8  4  0
  4 18  4  0
  4 25  1  0
  5  9  4  0
  5 12  4  0
  6 13  1  0
  6 27  1  0
  7 28  4  0
  8 11  4  0
  9 29  4  0
 10 12  4  0
 11 24  1  0
 11 26  4  0
 12 25  1  0
 13 28  1  0
 14 20  4  0
 14 23  4  0
 15 17  4  0
 15 21  4  0
 16 19  4  0
 16 23  4  0
 17 22  4  0
 18 26  4  0
 19 24  4  0
 20 24  4  0
 22 27  4  0
 28 29  4  0
M  END
$$$$

 Created by Python create_sdf_string function

 29 33  0  0  0  0  0  0  0  0999 V2000
   10.7215   -3.3326   17.6437 C   0  0  0  0  0  0  0  0  0  0  0  0
    9.9489   -3.4675   24.6487 N   0  0  0  0  0  0  0  0  0  0  0  0
   10.0172   -4.4740   17.4101 C   0  0  0  0  0  0  0  0  0  0  0  0
    6.9051   -7.9575   16.4222 C   0  0  0  0  0  0  0  0  0  0  0  0
    8.9969   -6.3552   17.9668 N   0  0  0  0  0  0  0  0  0  0  0  0
   10.6702   -3.9051   22.4070 C   0  0  0  0  0  0  0  0  0  0  0  0
   11.0625   -3.0028   18.8894 C   0  0  0  0  0  0  0  0  0  0  0  0
    5.6180   -7.9194   16.1754 O   0  0  0  0  0  0  0  0  0  0  0  0
    9.7259   -5.3080   18.4485 C   0  0  0  0  0  0  0  0  0  0  0  0
    9.4578   -5.0200   16.3036 N   0  0  0  0  0  0  0  0  0  0  0  0
    5.0287   -8.9365   16.8223 C   0  0  0  0  0  0  0  0  0  0  0  0
    8.7742   -6.1498   16.6764 C   0  0  0  0  0  0  0  0  0  0  0  0
   10.9418   -3.4032   21.2053 O   0  0  0  0  0  0  0  0  0  0  0  0
    1.4797   -8.6258   16.2950 C   0  0  0  0  0  0  0  0  0  0  0  0
    9.2861   -1.2743   25.3585 C   0  0  0  0  0  0  0  0  0  0  0  0
    1.8892  -10.3985   17.7511 N   0  0  0  0  0  0  0  0  0  0  0  0
    9.6210   -0.6952   24.0976 C   0  0  0  0  0  0  0  0  0  0  0  0
    7.0792   -9.0217   17.1429 C   0  0  0  0  0  0  0  0  0  0  0  0
    3.1713  -10.1816   17.6634 C   0  0  0  0  0  0  0  0  0  0  0  0
    2.7878   -8.3822   16.2137 C   0  0  0  0  0  0  0  0  0  0  0  0
    9.4601   -2.6590   25.6528 C   0  0  0  0  0  0  0  0  0  0  0  0
   10.1182   -1.5672   23.1165 C   0  0  0  0  0  0  0  0  0  0  0  0
    1.0552   -9.6360   17.0650 C   0  0  0  0  0  0  0  0  0  0  0  0
    3.6519   -9.1783   16.9039 C   0  0  0  0  0  0  0  0  0  0  0  0
    7.8675   -7.0096   15.9415 C   0  0  0  0  0  0  0  0  0  0  0  0
    5.9733   -9.6553   17.3832 N   0  0  0  0  0  0  0  0  0  0  0  0
   10.2411   -2.9363   23.4301 C   0  0  0  0  0  0  0  0  0  0  0  0
   10.7288   -3.8197   19.9525 C   0  0  0  0  0  0  0  0  0  0  0  0
   10.1189   -5.0054   19.6987 C   0  0  0  0  0  0  0  0  0  0  0  0
  1  3  4  0
  1  7  4  0
  2 21  4  0
  2 27  4  0
  3  9  4  0
  3 10  4  0
  4  8  4  0
  4 18  4  0
  4 25  1  0
  5  9  4  0
  5 12  4  0
  6 13  1  0
  6 27  1  0
  7 28  4  0
  8 11  4  0
  9 29  4  0
 10 12  4  0
 11 24  1  0
 11 26  4  0
 12 25  1  0
 13 28  1  0
 14 20  4  0
 14 23  4  0
 15 17  4  0
 15 21  4  0
 16 19  4  0
 16 23  4  0
 17 22  4  0
 18 26  4  0
 19 24  4  0
 20 24  4  0
 22 27  4  0
 28 29  4  0
M  END
$$$$

 Created by Python create_sdf_string function

 29 33  0  0  0  0  0  0  0  0999 V2000
   10.7215   -3.3326   17.6437 C   0  0  0  0  0  0  0  0  0  0  0  0
    9.9489   -3.4675   24.6487 N   0  0  0  0  0  0  0  0  0  0  0  0
   10.0172   -4.4740   17.4101 C   0  0  0  0  0  0  0  0  0  0  0  0
    6.9051   -7.9575   16.4222 C   0  0  0  0  0  0  0  0  0  0  0  0
    8.9969   -6.3552   17.9668 N   0  0  0  0  0  0  0  0  0  0  0  0
   10.6702   -3.9051   22.4070 C   0  0  0  0  0  0  0  0  0  0  0  0
   11.0625   -3.0028   18.8894 C   0  0  0  0  0  0  0  0  0  0  0  0
    5.6180   -7.9194   16.1754 O   0  0  0  0  0  0  0  0  0  0  0  0
    9.7259   -5.3080   18.4485 C   0  0  0  0  0  0  0  0  0  0  0  0
    9.4578   -5.0200   16.3036 N   0  0  0  0  0  0  0  0  0  0  0  0
    5.0287   -8.9365   16.8223 C   0  0  0  0  0  0  0  0  0  0  0  0
    8.7742   -6.1498   16.6764 C   0  0  0  0  0  0  0  0  0  0  0  0
   10.9418   -3.4032   21.2053 O   0  0  0  0  0  0  0  0  0  0  0  0
    1.4797   -8.6258   16.2950 C   0  0  0  0  0  0  0  0  0  0  0  0
    9.2861   -1.2743   25.3585 C   0  0  0  0  0  0  0  0  0  0  0  0
    1.8892  -10.3985   17.7511 N   0  0  0  0  0  0  0  0  0  0  0  0
    9.6210   -0.6952   24.0976 C   0  0  0  0  0  0  0  0  0  0  0  0
    7.0792   -9.0217   17.1429 C   0  0  0  0  0  0  0  0  0  0  0  0
    3.1713  -10.1816   17.6634 C   0  0  0  0  0  0  0  0  0  0  0  0
    2.7878   -8.3822   16.2137 C   0  0  0  0  0  0  0  0  0  0  0  0
    9.4601   -2.6590   25.6528 C   0  0  0  0  0  0  0  0  0  0  0  0
   10.1182   -1.5672   23.1165 C   0  0  0  0  0  0  0  0  0  0  0  0
    1.0552   -9.6360   17.0650 C   0  0  0  0  0  0  0  0  0  0  0  0
    3.6519   -9.1783   16.9039 C   0  0  0  0  0  0  0  0  0  0  0  0
    7.8675   -7.0096   15.9415 C   0  0  0  0  0  0  0  0  0  0  0  0
    5.9733   -9.6553   17.3832 N   0  0  0  0  0  0  0  0  0  0  0  0
   10.2411   -2.9363   23.4301 C   0  0  0  0  0  0  0  0  0  0  0  0
   10.7288   -3.8197   19.9525 C   0  0  0  0  0  0  0  0  0  0  0  0
   10.1189   -5.0054   19.6987 C   0  0  0  0  0  0  0  0  0  0  0  0
  1  3  4  0
  1  7  4  0
  2 21  4  0
  2 27  4  0
  3  9  4  0
  3 10  4  0
  4  8  4  0
  4 18  4  0
  4 25  1  0
  5  9  4  0
  5 12  4  0
  6 13  1  0
  6 27  1  0
  7 28  4  0
  8 11  4  0
  9 29  4  0
 10 12  4  0
 11 24  1  0
 11 26  4  0
 12 25  1  0
 13 28  1  0
 14 20  4  0
 14 23  4  0
 15 17  4  0
 15 21  4  0
 16 19  4  0
 16 23  4  0
 17 22  4  0
 18 26  4  0
 19 24  4  0
 20 24  4  0
 22 27  4  0
 28 29  4  0
M  END
$$$$

 Created by Python create_sdf_string function

 29 33  0  0  0  0  0  0  0  0999 V2000
   10.7215   -3.3326   17.6437 C   0  0  0  0  0  0  0  0  0  0  0  0
    9.9489   -3.4675   24.6487 N   0  0  0  0  0  0  0  0  0  0  0  0
   10.0172   -4.4740   17.4101 C   0  0  0  0  0  0  0  0  0  0  0  0
    6.9051   -7.9575   16.4222 C   0  0  0  0  0  0  0  0  0  0  0  0
    8.9969   -6.3552   17.9668 N   0  0  0  0  0  0  0  0  0  0  0  0
   10.6702   -3.9051   22.4070 C   0  0  0  0  0  0  0  0  0  0  0  0
   11.0625   -3.0028   18.8894 C   0  0  0  0  0  0  0  0  0  0  0  0
    5.6180   -7.9194   16.1754 O   0  0  0  0  0  0  0  0  0  0  0  0
    9.7259   -5.3080   18.4485 C   0  0  0  0  0  0  0  0  0  0  0  0
    9.4578   -5.0200   16.3036 N   0  0  0  0  0  0  0  0  0  0  0  0
    5.0287   -8.9365   16.8223 C   0  0  0  0  0  0  0  0  0  0  0  0
    8.7742   -6.1498   16.6764 C   0  0  0  0  0  0  0  0  0  0  0  0
   10.9418   -3.4032   21.2053 O   0  0  0  0  0  0  0  0  0  0  0  0
    1.4797   -8.6258   16.2950 C   0  0  0  0  0  0  0  0  0  0  0  0
    9.2861   -1.2743   25.3585 C   0  0  0  0  0  0  0  0  0  0  0  0
    1.8892  -10.3985   17.7511 N   0  0  0  0  0  0  0  0  0  0  0  0
    9.6210   -0.6952   24.0976 C   0  0  0  0  0  0  0  0  0  0  0  0
    7.0792   -9.0217   17.1429 C   0  0  0  0  0  0  0  0  0  0  0  0
    3.1713  -10.1816   17.6634 C   0  0  0  0  0  0  0  0  0  0  0  0
    2.7878   -8.3822   16.2137 C   0  0  0  0  0  0  0  0  0  0  0  0
    9.4601   -2.6590   25.6528 C   0  0  0  0  0  0  0  0  0  0  0  0
   10.1182   -1.5672   23.1165 C   0  0  0  0  0  0  0  0  0  0  0  0
    1.0552   -9.6360   17.0650 C   0  0  0  0  0  0  0  0  0  0  0  0
    3.6519   -9.1783   16.9039 C   0  0  0  0  0  0  0  0  0  0  0  0
    7.8675   -7.0096   15.9415 C   0  0  0  0  0  0  0  0  0  0  0  0
    5.9733   -9.6553   17.3832 N   0  0  0  0  0  0  0  0  0  0  0  0
   10.2411   -2.9363   23.4301 C   0  0  0  0  0  0  0  0  0  0  0  0
   10.7288   -3.8197   19.9525 C   0  0  0  0  0  0  0  0  0  0  0  0
   10.1189   -5.0054   19.6987 C   0  0  0  0  0  0  0  0  0  0  0  0
  1  3  4  0
  1  7  4  0
  2 21  4  0
  2 27  4  0
  3  9  4  0
  3 10  4  0
  4  8  4  0
  4 18  4  0
  4 25  1  0
  5  9  4  0
  5 12  4  0
  6 13  1  0
  6 27  1  0
  7 28  4  0
  8 11  4  0
  9 29  4  0
 10 12  4  0
 11 24  1  0
 11 26  4  0
 12 25  1  0
 13 28  1  0
 14 20  4  0
 14 23  4  0
 15 17  4  0
 15 21  4  0
 16 19  4  0
 16 23  4  0
 17 22  4  0
 18 26  4  0
 19 24  4  0
 20 24  4  0
 22 27  4  0
 28 29  4  0
M  END
$$$$

 Created by Python create_sdf_string function

 29 33  0  0  0  0  0  0  0  0999 V2000
   10.7215   -3.3326   17.6437 C   0  0  0  0  0  0  0  0  0  0  0  0
    9.9489   -3.4675   24.6487 N   0  0  0  0  0  0  0  0  0  0  0  0
   10.0172   -4.4740   17.4101 C   0  0  0  0  0  0  0  0  0  0  0  0
    6.9051   -7.9575   16.4222 C   0  0  0  0  0  0  0  0  0  0  0  0
    8.9969   -6.3552   17.9668 N   0  0  0  0  0  0  0  0  0  0  0  0
   10.6702   -3.9051   22.4070 C   0  0  0  0  0  0  0  0  0  0  0  0
   11.0625   -3.0028   18.8894 C   0  0  0  0  0  0  0  0  0  0  0  0
    5.6180   -7.9194   16.1754 O   0  0  0  0  0  0  0  0  0  0  0  0
    9.7259   -5.3080   18.4485 C   0  0  0  0  0  0  0  0  0  0  0  0
    9.4578   -5.0200   16.3036 N   0  0  0  0  0  0  0  0  0  0  0  0
    5.0287   -8.9365   16.8223 C   0  0  0  0  0  0  0  0  0  0  0  0
    8.7742   -6.1498   16.6764 C   0  0  0  0  0  0  0  0  0  0  0  0
   10.9418   -3.4032   21.2053 O   0  0  0  0  0  0  0  0  0  0  0  0
    1.4797   -8.6258   16.2950 C   0  0  0  0  0  0  0  0  0  0  0  0
    9.2861   -1.2743   25.3585 C   0  0  0  0  0  0  0  0  0  0  0  0
    1.8892  -10.3985   17.7511 N   0  0  0  0  0  0  0  0  0  0  0  0
    9.6210   -0.6952   24.0976 C   0  0  0  0  0  0  0  0  0  0  0  0
    7.0792   -9.0217   17.1429 C   0  0  0  0  0  0  0  0  0  0  0  0
    3.1713  -10.1816   17.6634 C   0  0  0  0  0  0  0  0  0  0  0  0
    2.7878   -8.3822   16.2137 C   0  0  0  0  0  0  0  0  0  0  0  0
    9.4601   -2.6590   25.6528 C   0  0  0  0  0  0  0  0  0  0  0  0
   10.1182   -1.5672   23.1165 C   0  0  0  0  0  0  0  0  0  0  0  0
    1.0552   -9.6360   17.0650 C   0  0  0  0  0  0  0  0  0  0  0  0
    3.6519   -9.1783   16.9039 C   0  0  0  0  0  0  0  0  0  0  0  0
    7.8675   -7.0096   15.9415 C   0  0  0  0  0  0  0  0  0  0  0  0
    5.9733   -9.6553   17.3832 N   0  0  0  0  0  0  0  0  0  0  0  0
   10.2411   -2.9363   23.4301 C   0  0  0  0  0  0  0  0  0  0  0  0
   10.7288   -3.8197   19.9525 C   0  0  0  0  0  0  0  0  0  0  0  0
   10.1189   -5.0054   19.6987 C   0  0  0  0  0  0  0  0  0  0  0  0
  1  3  4  0
  1  7  4  0
  2 21  4  0
  2 27  4  0
  3  9  4  0
  3 10  4  0
  4  8  4  0
  4 18  4  0
  4 25  1  0
  5  9  4  0
  5 12  4  0
  6 13  1  0
  6 27  1  0
  7 28  4  0
  8 11  4  0
  9 29  4  0
 10 12  4  0
 11 24  1  0
 11 26  4  0
 12 25  1  0
 13 28  1  0
 14 20  4  0
 14 23  4  0
 15 17  4  0
 15 21  4  0
 16 19  4  0
 16 23  4  0
 17 22  4  0
 18 26  4  0
 19 24  4  0
 20 24  4  0
 22 27  4  0
 28 29  4  0
M  END
$$$$

 Created by Python create_sdf_string function

 29 33  0  0  0  0  0  0  0  0999 V2000
   10.7215   -3.3326   17.6437 C   0  0  0  0  0  0  0  0  0  0  0  0
    9.9489   -3.4675   24.6487 N   0  0  0  0  0  0  0  0  0  0  0  0
   10.0172   -4.4740   17.4101 C   0  0  0  0  0  0  0  0  0  0  0  0
    6.9051   -7.9575   16.4222 C   0  0  0  0  0  0  0  0  0  0  0  0
    8.9969   -6.3552   17.9668 N   0  0  0  0  0  0  0  0  0  0  0  0
   10.6702   -3.9051   22.4070 C   0  0  0  0  0  0  0  0  0  0  0  0
   11.0625   -3.0028   18.8894 C   0  0  0  0  0  0  0  0  0  0  0  0
    5.6180   -7.9194   16.1754 O   0  0  0  0  0  0  0  0  0  0  0  0
    9.7259   -5.3080   18.4485 C   0  0  0  0  0  0  0  0  0  0  0  0
    9.4578   -5.0200   16.3036 N   0  0  0  0  0  0  0  0  0  0  0  0
    5.0287   -8.9365   16.8223 C   0  0  0  0  0  0  0  0  0  0  0  0
    8.7742   -6.1498   16.6764 C   0  0  0  0  0  0  0  0  0  0  0  0
   10.9418   -3.4032   21.2053 O   0  0  0  0  0  0  0  0  0  0  0  0
    1.4797   -8.6258   16.2950 C   0  0  0  0  0  0  0  0  0  0  0  0
    9.2861   -1.2743   25.3585 C   0  0  0  0  0  0  0  0  0  0  0  0
    1.8892  -10.3985   17.7511 N   0  0  0  0  0  0  0  0  0  0  0  0
    9.6210   -0.6952   24.0976 C   0  0  0  0  0  0  0  0  0  0  0  0
    7.0792   -9.0217   17.1429 C   0  0  0  0  0  0  0  0  0  0  0  0
    3.1713  -10.1816   17.6634 C   0  0  0  0  0  0  0  0  0  0  0  0
    2.7878   -8.3822   16.2137 C   0  0  0  0  0  0  0  0  0  0  0  0
    9.4601   -2.6590   25.6528 C   0  0  0  0  0  0  0  0  0  0  0  0
   10.1182   -1.5672   23.1165 C   0  0  0  0  0  0  0  0  0  0  0  0
    1.0552   -9.6360   17.0650 C   0  0  0  0  0  0  0  0  0  0  0  0
    3.6519   -9.1783   16.9039 C   0  0  0  0  0  0  0  0  0  0  0  0
    7.8675   -7.0096   15.9415 C   0  0  0  0  0  0  0  0  0  0  0  0
    5.9733   -9.6553   17.3832 N   0  0  0  0  0  0  0  0  0  0  0  0
   10.2411   -2.9363   23.4301 C   0  0  0  0  0  0  0  0  0  0  0  0
   10.7288   -3.8197   19.9525 C   0  0  0  0  0  0  0  0  0  0  0  0
   10.1189   -5.0054   19.6987 C   0  0  0  0  0  0  0  0  0  0  0  0
  1  3  4  0
  1  7  4  0
  2 21  4  0
  2 27  4  0
  3  9  4  0
  3 10  4  0
  4  8  4  0
  4 18  4  0
  4 25  1  0
  5  9  4  0
  5 12  4  0
  6 13  1  0
  6 27  1  0
  7 28  4  0
  8 11  4  0
  9 29  4  0
 10 12  4  0
 11 24  1  0
 11 26  4  0
 12 25  1  0
 13 28  1  0
 14 20  4  0
 14 23  4  0
 15 17  4  0
 15 21  4  0
 16 19  4  0
 16 23  4  0
 17 22  4  0
 18 26  4  0
 19 24  4  0
 20 24  4  0
 22 27  4  0
 28 29  4  0
M  END
$$$$

 Created by Python create_sdf_string function

 29 33  0  0  0  0  0  0  0  0999 V2000
   10.7215   -3.3326   17.6437 C   0  0  0  0  0  0  0  0  0  0  0  0
    9.9489   -3.4675   24.6487 N   0  0  0  0  0  0  0  0  0  0  0  0
   10.0172   -4.4740   17.4101 C   0  0  0  0  0  0  0  0  0  0  0  0
    6.9051   -7.9575   16.4222 C   0  0  0  0  0  0  0  0  0  0  0  0
    8.9969   -6.3552   17.9668 N   0  0  0  0  0  0  0  0  0  0  0  0
   10.6702   -3.9051   22.4070 C   0  0  0  0  0  0  0  0  0  0  0  0
   11.0625   -3.0028   18.8894 C   0  0  0  0  0  0  0  0  0  0  0  0
    5.6180   -7.9194   16.1754 O   0  0  0  0  0  0  0  0  0  0  0  0
    9.7259   -5.3080   18.4485 C   0  0  0  0  0  0  0  0  0  0  0  0
    9.4578   -5.0200   16.3036 N   0  0  0  0  0  0  0  0  0  0  0  0
    5.0287   -8.9365   16.8223 C   0  0  0  0  0  0  0  0  0  0  0  0
    8.7742   -6.1498   16.6764 C   0  0  0  0  0  0  0  0  0  0  0  0
   10.9418   -3.4032   21.2053 O   0  0  0  0  0  0  0  0  0  0  0  0
    1.4797   -8.6258   16.2950 C   0  0  0  0  0  0  0  0  0  0  0  0
    9.2861   -1.2743   25.3585 C   0  0  0  0  0  0  0  0  0  0  0  0
    1.8892  -10.3985   17.7511 N   0  0  0  0  0  0  0  0  0  0  0  0
    9.6210   -0.6952   24.0976 C   0  0  0  0  0  0  0  0  0  0  0  0
    7.0792   -9.0217   17.1429 C   0  0  0  0  0  0  0  0  0  0  0  0
    3.1713  -10.1816   17.6634 C   0  0  0  0  0  0  0  0  0  0  0  0
    2.7878   -8.3822   16.2137 C   0  0  0  0  0  0  0  0  0  0  0  0
    9.4601   -2.6590   25.6528 C   0  0  0  0  0  0  0  0  0  0  0  0
   10.1182   -1.5672   23.1165 C   0  0  0  0  0  0  0  0  0  0  0  0
    1.0552   -9.6360   17.0650 C   0  0  0  0  0  0  0  0  0  0  0  0
    3.6519   -9.1783   16.9039 C   0  0  0  0  0  0  0  0  0  0  0  0
    7.8675   -7.0096   15.9415 C   0  0  0  0  0  0  0  0  0  0  0  0
    5.9733   -9.6553   17.3832 N   0  0  0  0  0  0  0  0  0  0  0  0
   10.2411   -2.9363   23.4301 C   0  0  0  0  0  0  0  0  0  0  0  0
   10.7288   -3.8197   19.9525 C   0  0  0  0  0  0  0  0  0  0  0  0
   10.1189   -5.0054   19.6987 C   0  0  0  0  0  0  0  0  0  0  0  0
  1  3  4  0
  1  7  4  0
  2 21  4  0
  2 27  4  0
  3  9  4  0
  3 10  4  0
  4  8  4  0
  4 18  4  0
  4 25  1  0
  5  9  4  0
  5 12  4  0
  6 13  1  0
  6 27  1  0
  7 28  4  0
  8 11  4  0
  9 29  4  0
 10 12  4  0
 11 24  1  0
 11 26  4  0
 12 25  1  0
 13 28  1  0
 14 20  4  0
 14 23  4  0
 15 17  4  0
 15 21  4  0
 16 19  4  0
 16 23  4  0
 17 22  4  0
 18 26  4  0
 19 24  4  0
 20 24  4  0
 22 27  4  0
 28 29  4  0
M  END
$$$$

 Created by Python create_sdf_string function

 29 33  0  0  0  0  0  0  0  0999 V2000
   10.7215   -3.3326   17.6437 C   0  0  0  0  0  0  0  0  0  0  0  0
    9.9489   -3.4675   24.6487 N   0  0  0  0  0  0  0  0  0  0  0  0
   10.0172   -4.4740   17.4101 C   0  0  0  0  0  0  0  0  0  0  0  0
    6.9051   -7.9575   16.4222 C   0  0  0  0  0  0  0  0  0  0  0  0
    8.9969   -6.3552   17.9668 N   0  0  0  0  0  0  0  0  0  0  0  0
   10.6702   -3.9051   22.4070 C   0  0  0  0  0  0  0  0  0  0  0  0
   11.0625   -3.0028   18.8894 C   0  0  0  0  0  0  0  0  0  0  0  0
    5.6180   -7.9194   16.1754 O   0  0  0  0  0  0  0  0  0  0  0  0
    9.7259   -5.3080   18.4485 C   0  0  0  0  0  0  0  0  0  0  0  0
    9.4578   -5.0200   16.3036 N   0  0  0  0  0  0  0  0  0  0  0  0
    5.0287   -8.9365   16.8223 C   0  0  0  0  0  0  0  0  0  0  0  0
    8.7742   -6.1498   16.6764 C   0  0  0  0  0  0  0  0  0  0  0  0
   10.9418   -3.4032   21.2053 O   0  0  0  0  0  0  0  0  0  0  0  0
    1.4797   -8.6258   16.2950 C   0  0  0  0  0  0  0  0  0  0  0  0
    9.2861   -1.2743   25.3585 C   0  0  0  0  0  0  0  0  0  0  0  0
    1.8892  -10.3985   17.7511 N   0  0  0  0  0  0  0  0  0  0  0  0
    9.6210   -0.6952   24.0976 C   0  0  0  0  0  0  0  0  0  0  0  0
    7.0792   -9.0217   17.1429 C   0  0  0  0  0  0  0  0  0  0  0  0
    3.1713  -10.1816   17.6634 C   0  0  0  0  0  0  0  0  0  0  0  0
    2.7878   -8.3822   16.2137 C   0  0  0  0  0  0  0  0  0  0  0  0
    9.4601   -2.6590   25.6528 C   0  0  0  0  0  0  0  0  0  0  0  0
   10.1182   -1.5672   23.1165 C   0  0  0  0  0  0  0  0  0  0  0  0
    1.0552   -9.6360   17.0650 C   0  0  0  0  0  0  0  0  0  0  0  0
    3.6519   -9.1783   16.9039 C   0  0  0  0  0  0  0  0  0  0  0  0
    7.8675   -7.0096   15.9415 C   0  0  0  0  0  0  0  0  0  0  0  0
    5.9733   -9.6553   17.3832 N   0  0  0  0  0  0  0  0  0  0  0  0
   10.2411   -2.9363   23.4301 C   0  0  0  0  0  0  0  0  0  0  0  0
   10.7288   -3.8197   19.9525 C   0  0  0  0  0  0  0  0  0  0  0  0
   10.1189   -5.0054   19.6987 C   0  0  0  0  0  0  0  0  0  0  0  0
  1  3  4  0
  1  7  4  0
  2 21  4  0
  2 27  4  0
  3  9  4  0
  3 10  4  0
  4  8  4  0
  4 18  4  0
  4 25  1  0
  5  9  4  0
  5 12  4  0
  6 13  1  0
  6 27  1  0
  7 28  4  0
  8 11  4  0
  9 29  4  0
 10 12  4  0
 11 24  1  0
 11 26  4  0
 12 25  1  0
 13 28  1  0
 14 20  4  0
 14 23  4  0
 15 17  4  0
 15 21  4  0
 16 19  4  0
 16 23  4  0
 17 22  4  0
 18 26  4  0
 19 24  4  0
 20 24  4  0
 22 27  4  0
 28 29  4  0
M  END
$$$$

 Created by Python create_sdf_string function

 29 33  0  0  0  0  0  0  0  0999 V2000
   10.7215   -3.3326   17.6437 C   0  0  0  0  0  0  0  0  0  0  0  0
    9.9489   -3.4675   24.6487 N   0  0  0  0  0  0  0  0  0  0  0  0
   10.0172   -4.4740   17.4101 C   0  0  0  0  0  0  0  0  0  0  0  0
    6.9051   -7.9575   16.4222 C   0  0  0  0  0  0  0  0  0  0  0  0
    8.9969   -6.3552   17.9668 N   0  0  0  0  0  0  0  0  0  0  0  0
   10.6702   -3.9051   22.4070 C   0  0  0  0  0  0  0  0  0  0  0  0
   11.0625   -3.0028   18.8894 C   0  0  0  0  0  0  0  0  0  0  0  0
    5.6180   -7.9194   16.1754 O   0  0  0  0  0  0  0  0  0  0  0  0
    9.7259   -5.3080   18.4485 C   0  0  0  0  0  0  0  0  0  0  0  0
    9.4578   -5.0200   16.3036 N   0  0  0  0  0  0  0  0  0  0  0  0
    5.0287   -8.9365   16.8223 C   0  0  0  0  0  0  0  0  0  0  0  0
    8.7742   -6.1498   16.6764 C   0  0  0  0  0  0  0  0  0  0  0  0
   10.9418   -3.4032   21.2053 O   0  0  0  0  0  0  0  0  0  0  0  0
    1.4797   -8.6258   16.2950 C   0  0  0  0  0  0  0  0  0  0  0  0
    9.2861   -1.2743   25.3585 C   0  0  0  0  0  0  0  0  0  0  0  0
    1.8892  -10.3985   17.7511 N   0  0  0  0  0  0  0  0  0  0  0  0
    9.6210   -0.6952   24.0976 C   0  0  0  0  0  0  0  0  0  0  0  0
    7.0792   -9.0217   17.1429 C   0  0  0  0  0  0  0  0  0  0  0  0
    3.1713  -10.1816   17.6634 C   0  0  0  0  0  0  0  0  0  0  0  0
    2.7878   -8.3822   16.2137 C   0  0  0  0  0  0  0  0  0  0  0  0
    9.4601   -2.6590   25.6528 C   0  0  0  0  0  0  0  0  0  0  0  0
   10.1182   -1.5672   23.1165 C   0  0  0  0  0  0  0  0  0  0  0  0
    1.0552   -9.6360   17.0650 C   0  0  0  0  0  0  0  0  0  0  0  0
    3.6519   -9.1783   16.9039 C   0  0  0  0  0  0  0  0  0  0  0  0
    7.8675   -7.0096   15.9415 C   0  0  0  0  0  0  0  0  0  0  0  0
    5.9733   -9.6553   17.3832 N   0  0  0  0  0  0  0  0  0  0  0  0
   10.2411   -2.9363   23.4301 C   0  0  0  0  0  0  0  0  0  0  0  0
   10.7288   -3.8197   19.9525 C   0  0  0  0  0  0  0  0  0  0  0  0
   10.1189   -5.0054   19.6987 C   0  0  0  0  0  0  0  0  0  0  0  0
  1  3  4  0
  1  7  4  0
  2 21  4  0
  2 27  4  0
  3  9  4  0
  3 10  4  0
  4  8  4  0
  4 18  4  0
  4 25  1  0
  5  9  4  0
  5 12  4  0
  6 13  1  0
  6 27  1  0
  7 28  4  0
  8 11  4  0
  9 29  4  0
 10 12  4  0
 11 24  1  0
 11 26  4  0
 12 25  1  0
 13 28  1  0
 14 20  4  0
 14 23  4  0
 15 17  4  0
 15 21  4  0
 16 19  4  0
 16 23  4  0
 17 22  4  0
 18 26  4  0
 19 24  4  0
 20 24  4  0
 22 27  4  0
 28 29  4  0
M  END
$$$$

 Created by Python create_sdf_string function

 29 33  0  0  0  0  0  0  0  0999 V2000
   10.7215   -3.3326   17.6437 C   0  0  0  0  0  0  0  0  0  0  0  0
    9.9489   -3.4675   24.6487 N   0  0  0  0  0  0  0  0  0  0  0  0
   10.0172   -4.4740   17.4101 C   0  0  0  0  0  0  0  0  0  0  0  0
    6.9051   -7.9575   16.4222 C   0  0  0  0  0  0  0  0  0  0  0  0
    8.9969   -6.3552   17.9668 N   0  0  0  0  0  0  0  0  0  0  0  0
   10.6702   -3.9051   22.4070 C   0  0  0  0  0  0  0  0  0  0  0  0
   11.0625   -3.0028   18.8894 C   0  0  0  0  0  0  0  0  0  0  0  0
    5.6180   -7.9194   16.1754 O   0  0  0  0  0  0  0  0  0  0  0  0
    9.7259   -5.3080   18.4485 C   0  0  0  0  0  0  0  0  0  0  0  0
    9.4578   -5.0200   16.3036 N   0  0  0  0  0  0  0  0  0  0  0  0
    5.0287   -8.9365   16.8223 C   0  0  0  0  0  0  0  0  0  0  0  0
    8.7742   -6.1498   16.6764 C   0  0  0  0  0  0  0  0  0  0  0  0
   10.9418   -3.4032   21.2053 O   0  0  0  0  0  0  0  0  0  0  0  0
    1.4797   -8.6258   16.2950 C   0  0  0  0  0  0  0  0  0  0  0  0
    9.2861   -1.2743   25.3585 C   0  0  0  0  0  0  0  0  0  0  0  0
    1.8892  -10.3985   17.7511 N   0  0  0  0  0  0  0  0  0  0  0  0
    9.6210   -0.6952   24.0976 C   0  0  0  0  0  0  0  0  0  0  0  0
    7.0792   -9.0217   17.1429 C   0  0  0  0  0  0  0  0  0  0  0  0
    3.1713  -10.1816   17.6634 C   0  0  0  0  0  0  0  0  0  0  0  0
    2.7878   -8.3822   16.2137 C   0  0  0  0  0  0  0  0  0  0  0  0
    9.4601   -2.6590   25.6528 C   0  0  0  0  0  0  0  0  0  0  0  0
   10.1182   -1.5672   23.1165 C   0  0  0  0  0  0  0  0  0  0  0  0
    1.0552   -9.6360   17.0650 C   0  0  0  0  0  0  0  0  0  0  0  0
    3.6519   -9.1783   16.9039 C   0  0  0  0  0  0  0  0  0  0  0  0
    7.8675   -7.0096   15.9415 C   0  0  0  0  0  0  0  0  0  0  0  0
    5.9733   -9.6553   17.3832 N   0  0  0  0  0  0  0  0  0  0  0  0
   10.2411   -2.9363   23.4301 C   0  0  0  0  0  0  0  0  0  0  0  0
   10.7288   -3.8197   19.9525 C   0  0  0  0  0  0  0  0  0  0  0  0
   10.1189   -5.0054   19.6987 C   0  0  0  0  0  0  0  0  0  0  0  0
  1  3  4  0
  1  7  4  0
  2 21  4  0
  2 27  4  0
  3  9  4  0
  3 10  4  0
  4  8  4  0
  4 18  4  0
  4 25  1  0
  5  9  4  0
  5 12  4  0
  6 13  1  0
  6 27  1  0
  7 28  4  0
  8 11  4  0
  9 29  4  0
 10 12  4  0
 11 24  1  0
 11 26  4  0
 12 25  1  0
 13 28  1  0
 14 20  4  0
 14 23  4  0
 15 17  4  0
 15 21  4  0
 16 19  4  0
 16 23  4  0
 17 22  4  0
 18 26  4  0
 19 24  4  0
 20 24  4  0
 22 27  4  0
 28 29  4  0
M  END
$$$$

 Created by Python create_sdf_string function

 29 33  0  0  0  0  0  0  0  0999 V2000
   10.7215   -3.3326   17.6437 C   0  0  0  0  0  0  0  0  0  0  0  0
    9.9489   -3.4675   24.6487 N   0  0  0  0  0  0  0  0  0  0  0  0
   10.0172   -4.4740   17.4101 C   0  0  0  0  0  0  0  0  0  0  0  0
    6.9051   -7.9575   16.4222 C   0  0  0  0  0  0  0  0  0  0  0  0
    8.9969   -6.3552   17.9668 N   0  0  0  0  0  0  0  0  0  0  0  0
   10.6702   -3.9051   22.4070 C   0  0  0  0  0  0  0  0  0  0  0  0
   11.0625   -3.0028   18.8894 C   0  0  0  0  0  0  0  0  0  0  0  0
    5.6180   -7.9194   16.1754 O   0  0  0  0  0  0  0  0  0  0  0  0
    9.7259   -5.3080   18.4485 C   0  0  0  0  0  0  0  0  0  0  0  0
    9.4578   -5.0200   16.3036 N   0  0  0  0  0  0  0  0  0  0  0  0
    5.0287   -8.9365   16.8223 C   0  0  0  0  0  0  0  0  0  0  0  0
    8.7742   -6.1498   16.6764 C   0  0  0  0  0  0  0  0  0  0  0  0
   10.9418   -3.4032   21.2053 O   0  0  0  0  0  0  0  0  0  0  0  0
    1.4797   -8.6258   16.2950 C   0  0  0  0  0  0  0  0  0  0  0  0
    9.2861   -1.2743   25.3585 C   0  0  0  0  0  0  0  0  0  0  0  0
    1.8892  -10.3985   17.7511 N   0  0  0  0  0  0  0  0  0  0  0  0
    9.6210   -0.6952   24.0976 C   0  0  0  0  0  0  0  0  0  0  0  0
    7.0792   -9.0217   17.1429 C   0  0  0  0  0  0  0  0  0  0  0  0
    3.1713  -10.1816   17.6634 C   0  0  0  0  0  0  0  0  0  0  0  0
    2.7878   -8.3822   16.2137 C   0  0  0  0  0  0  0  0  0  0  0  0
    9.4601   -2.6590   25.6528 C   0  0  0  0  0  0  0  0  0  0  0  0
   10.1182   -1.5672   23.1165 C   0  0  0  0  0  0  0  0  0  0  0  0
    1.0552   -9.6360   17.0650 C   0  0  0  0  0  0  0  0  0  0  0  0
    3.6519   -9.1783   16.9039 C   0  0  0  0  0  0  0  0  0  0  0  0
    7.8675   -7.0096   15.9415 C   0  0  0  0  0  0  0  0  0  0  0  0
    5.9733   -9.6553   17.3832 N   0  0  0  0  0  0  0  0  0  0  0  0
   10.2411   -2.9363   23.4301 C   0  0  0  0  0  0  0  0  0  0  0  0
   10.7288   -3.8197   19.9525 C   0  0  0  0  0  0  0  0  0  0  0  0
   10.1189   -5.0054   19.6987 C   0  0  0  0  0  0  0  0  0  0  0  0
  1  3  4  0
  1  7  4  0
  2 21  4  0
  2 27  4  0
  3  9  4  0
  3 10  4  0
  4  8  4  0
  4 18  4  0
  4 25  1  0
  5  9  4  0
  5 12  4  0
  6 13  1  0
  6 27  1  0
  7 28  4  0
  8 11  4  0
  9 29  4  0
 10 12  4  0
 11 24  1  0
 11 26  4  0
 12 25  1  0
 13 28  1  0
 14 20  4  0
 14 23  4  0
 15 17  4  0
 15 21  4  0
 16 19  4  0
 16 23  4  0
 17 22  4  0
 18 26  4  0
 19 24  4  0
 20 24  4  0
 22 27  4  0
 28 29  4  0
M  END
$$$$

 Created by Python create_sdf_string function

 29 33  0  0  0  0  0  0  0  0999 V2000
   10.7215   -3.3326   17.6437 C   0  0  0  0  0  0  0  0  0  0  0  0
    9.9489   -3.4675   24.6487 N   0  0  0  0  0  0  0  0  0  0  0  0
   10.0172   -4.4740   17.4101 C   0  0  0  0  0  0  0  0  0  0  0  0
    6.9051   -7.9575   16.4222 C   0  0  0  0  0  0  0  0  0  0  0  0
    8.9969   -6.3552   17.9668 N   0  0  0  0  0  0  0  0  0  0  0  0
   10.6702   -3.9051   22.4070 C   0  0  0  0  0  0  0  0  0  0  0  0
   11.0625   -3.0028   18.8894 C   0  0  0  0  0  0  0  0  0  0  0  0
    5.6180   -7.9194   16.1754 O   0  0  0  0  0  0  0  0  0  0  0  0
    9.7259   -5.3080   18.4485 C   0  0  0  0  0  0  0  0  0  0  0  0
    9.4578   -5.0200   16.3036 N   0  0  0  0  0  0  0  0  0  0  0  0
    5.0287   -8.9365   16.8223 C   0  0  0  0  0  0  0  0  0  0  0  0
    8.7742   -6.1498   16.6764 C   0  0  0  0  0  0  0  0  0  0  0  0
   10.9418   -3.4032   21.2053 O   0  0  0  0  0  0  0  0  0  0  0  0
    1.4797   -8.6258   16.2950 C   0  0  0  0  0  0  0  0  0  0  0  0
    9.2861   -1.2743   25.3585 C   0  0  0  0  0  0  0  0  0  0  0  0
    1.8892  -10.3985   17.7511 N   0  0  0  0  0  0  0  0  0  0  0  0
    9.6210   -0.6952   24.0976 C   0  0  0  0  0  0  0  0  0  0  0  0
    7.0792   -9.0217   17.1429 C   0  0  0  0  0  0  0  0  0  0  0  0
    3.1713  -10.1816   17.6634 C   0  0  0  0  0  0  0  0  0  0  0  0
    2.7878   -8.3822   16.2137 C   0  0  0  0  0  0  0  0  0  0  0  0
    9.4601   -2.6590   25.6528 C   0  0  0  0  0  0  0  0  0  0  0  0
   10.1182   -1.5672   23.1165 C   0  0  0  0  0  0  0  0  0  0  0  0
    1.0552   -9.6360   17.0650 C   0  0  0  0  0  0  0  0  0  0  0  0
    3.6519   -9.1783   16.9039 C   0  0  0  0  0  0  0  0  0  0  0  0
    7.8675   -7.0096   15.9415 C   0  0  0  0  0  0  0  0  0  0  0  0
    5.9733   -9.6553   17.3832 N   0  0  0  0  0  0  0  0  0  0  0  0
   10.2411   -2.9363   23.4301 C   0  0  0  0  0  0  0  0  0  0  0  0
   10.7288   -3.8197   19.9525 C   0  0  0  0  0  0  0  0  0  0  0  0
   10.1189   -5.0054   19.6987 C   0  0  0  0  0  0  0  0  0  0  0  0
  1  3  4  0
  1  7  4  0
  2 21  4  0
  2 27  4  0
  3  9  4  0
  3 10  4  0
  4  8  4  0
  4 18  4  0
  4 25  1  0
  5  9  4  0
  5 12  4  0
  6 13  1  0
  6 27  1  0
  7 28  4  0
  8 11  4  0
  9 29  4  0
 10 12  4  0
 11 24  1  0
 11 26  4  0
 12 25  1  0
 13 28  1  0
 14 20  4  0
 14 23  4  0
 15 17  4  0
 15 21  4  0
 16 19  4  0
 16 23  4  0
 17 22  4  0
 18 26  4  0
 19 24  4  0
 20 24  4  0
 22 27  4  0
 28 29  4  0
M  END
$$$$

 Created by Python create_sdf_string function

 29 33  0  0  0  0  0  0  0  0999 V2000
   10.7215   -3.3326   17.6437 C   0  0  0  0  0  0  0  0  0  0  0  0
    9.9489   -3.4675   24.6487 N   0  0  0  0  0  0  0  0  0  0  0  0
   10.0172   -4.4740   17.4101 C   0  0  0  0  0  0  0  0  0  0  0  0
    6.9051   -7.9575   16.4222 C   0  0  0  0  0  0  0  0  0  0  0  0
    8.9969   -6.3552   17.9668 N   0  0  0  0  0  0  0  0  0  0  0  0
   10.6702   -3.9051   22.4070 C   0  0  0  0  0  0  0  0  0  0  0  0
   11.0625   -3.0028   18.8894 C   0  0  0  0  0  0  0  0  0  0  0  0
    5.6180   -7.9194   16.1754 O   0  0  0  0  0  0  0  0  0  0  0  0
    9.7259   -5.3080   18.4485 C   0  0  0  0  0  0  0  0  0  0  0  0
    9.4578   -5.0200   16.3036 N   0  0  0  0  0  0  0  0  0  0  0  0
    5.0287   -8.9365   16.8223 C   0  0  0  0  0  0  0  0  0  0  0  0
    8.7742   -6.1498   16.6764 C   0  0  0  0  0  0  0  0  0  0  0  0
   10.9418   -3.4032   21.2053 O   0  0  0  0  0  0  0  0  0  0  0  0
    1.4797   -8.6258   16.2950 C   0  0  0  0  0  0  0  0  0  0  0  0
    9.2861   -1.2743   25.3585 C   0  0  0  0  0  0  0  0  0  0  0  0
    1.8892  -10.3985   17.7511 N   0  0  0  0  0  0  0  0  0  0  0  0
    9.6210   -0.6952   24.0976 C   0  0  0  0  0  0  0  0  0  0  0  0
    7.0792   -9.0217   17.1429 C   0  0  0  0  0  0  0  0  0  0  0  0
    3.1713  -10.1816   17.6634 C   0  0  0  0  0  0  0  0  0  0  0  0
    2.7878   -8.3822   16.2137 C   0  0  0  0  0  0  0  0  0  0  0  0
    9.4601   -2.6590   25.6528 C   0  0  0  0  0  0  0  0  0  0  0  0
   10.1182   -1.5672   23.1165 C   0  0  0  0  0  0  0  0  0  0  0  0
    1.0552   -9.6360   17.0650 C   0  0  0  0  0  0  0  0  0  0  0  0
    3.6519   -9.1783   16.9039 C   0  0  0  0  0  0  0  0  0  0  0  0
    7.8675   -7.0096   15.9415 C   0  0  0  0  0  0  0  0  0  0  0  0
    5.9733   -9.6553   17.3832 N   0  0  0  0  0  0  0  0  0  0  0  0
   10.2411   -2.9363   23.4301 C   0  0  0  0  0  0  0  0  0  0  0  0
   10.7288   -3.8197   19.9525 C   0  0  0  0  0  0  0  0  0  0  0  0
   10.1189   -5.0054   19.6987 C   0  0  0  0  0  0  0  0  0  0  0  0
  1  3  4  0
  1  7  4  0
  2 21  4  0
  2 27  4  0
  3  9  4  0
  3 10  4  0
  4  8  4  0
  4 18  4  0
  4 25  1  0
  5  9  4  0
  5 12  4  0
  6 13  1  0
  6 27  1  0
  7 28  4  0
  8 11  4  0
  9 29  4  0
 10 12  4  0
 11 24  1  0
 11 26  4  0
 12 25  1  0
 13 28  1  0
 14 20  4  0
 14 23  4  0
 15 17  4  0
 15 21  4  0
 16 19  4  0
 16 23  4  0
 17 22  4  0
 18 26  4  0
 19 24  4  0
 20 24  4  0
 22 27  4  0
 28 29  4  0
M  END
$$$$

 Created by Python create_sdf_string function

 29 33  0  0  0  0  0  0  0  0999 V2000
   10.7215   -3.3326   17.6437 C   0  0  0  0  0  0  0  0  0  0  0  0
    9.9489   -3.4675   24.6487 N   0  0  0  0  0  0  0  0  0  0  0  0
   10.0172   -4.4740   17.4101 C   0  0  0  0  0  0  0  0  0  0  0  0
    6.9051   -7.9575   16.4222 C   0  0  0  0  0  0  0  0  0  0  0  0
    8.9969   -6.3552   17.9668 N   0  0  0  0  0  0  0  0  0  0  0  0
   10.6702   -3.9051   22.4070 C   0  0  0  0  0  0  0  0  0  0  0  0
   11.0625   -3.0028   18.8894 C   0  0  0  0  0  0  0  0  0  0  0  0
    5.6180   -7.9194   16.1754 O   0  0  0  0  0  0  0  0  0  0  0  0
    9.7259   -5.3080   18.4485 C   0  0  0  0  0  0  0  0  0  0  0  0
    9.4578   -5.0200   16.3036 N   0  0  0  0  0  0  0  0  0  0  0  0
    5.0287   -8.9365   16.8223 C   0  0  0  0  0  0  0  0  0  0  0  0
    8.7742   -6.1498   16.6764 C   0  0  0  0  0  0  0  0  0  0  0  0
   10.9418   -3.4032   21.2053 O   0  0  0  0  0  0  0  0  0  0  0  0
    1.4797   -8.6258   16.2950 C   0  0  0  0  0  0  0  0  0  0  0  0
    9.2861   -1.2743   25.3585 C   0  0  0  0  0  0  0  0  0  0  0  0
    1.8892  -10.3985   17.7511 N   0  0  0  0  0  0  0  0  0  0  0  0
    9.6210   -0.6952   24.0976 C   0  0  0  0  0  0  0  0  0  0  0  0
    7.0792   -9.0217   17.1429 C   0  0  0  0  0  0  0  0  0  0  0  0
    3.1713  -10.1816   17.6634 C   0  0  0  0  0  0  0  0  0  0  0  0
    2.7878   -8.3822   16.2137 C   0  0  0  0  0  0  0  0  0  0  0  0
    9.4601   -2.6590   25.6528 C   0  0  0  0  0  0  0  0  0  0  0  0
   10.1182   -1.5672   23.1165 C   0  0  0  0  0  0  0  0  0  0  0  0
    1.0552   -9.6360   17.0650 C   0  0  0  0  0  0  0  0  0  0  0  0
    3.6519   -9.1783   16.9039 C   0  0  0  0  0  0  0  0  0  0  0  0
    7.8675   -7.0096   15.9415 C   0  0  0  0  0  0  0  0  0  0  0  0
    5.9733   -9.6553   17.3832 N   0  0  0  0  0  0  0  0  0  0  0  0
   10.2411   -2.9363   23.4301 C   0  0  0  0  0  0  0  0  0  0  0  0
   10.7288   -3.8197   19.9525 C   0  0  0  0  0  0  0  0  0  0  0  0
   10.1189   -5.0054   19.6987 C   0  0  0  0  0  0  0  0  0  0  0  0
  1  3  4  0
  1  7  4  0
  2 21  4  0
  2 27  4  0
  3  9  4  0
  3 10  4  0
  4  8  4  0
  4 18  4  0
  4 25  1  0
  5  9  4  0
  5 12  4  0
  6 13  1  0
  6 27  1  0
  7 28  4  0
  8 11  4  0
  9 29  4  0
 10 12  4  0
 11 24  1  0
 11 26  4  0
 12 25  1  0
 13 28  1  0
 14 20  4  0
 14 23  4  0
 15 17  4  0
 15 21  4  0
 16 19  4  0
 16 23  4  0
 17 22  4  0
 18 26  4  0
 19 24  4  0
 20 24  4  0
 22 27  4  0
 28 29  4  0
M  END
$$$$

 Created by Python create_sdf_string function

 29 33  0  0  0  0  0  0  0  0999 V2000
   10.7215   -3.3326   17.6437 C   0  0  0  0  0  0  0  0  0  0  0  0
    9.9489   -3.4675   24.6487 N   0  0  0  0  0  0  0  0  0  0  0  0
   10.0172   -4.4740   17.4101 C   0  0  0  0  0  0  0  0  0  0  0  0
    6.9051   -7.9575   16.4222 C   0  0  0  0  0  0  0  0  0  0  0  0
    8.9969   -6.3552   17.9668 N   0  0  0  0  0  0  0  0  0  0  0  0
   10.6702   -3.9051   22.4070 C   0  0  0  0  0  0  0  0  0  0  0  0
   11.0625   -3.0028   18.8894 C   0  0  0  0  0  0  0  0  0  0  0  0
    5.6180   -7.9194   16.1754 O   0  0  0  0  0  0  0  0  0  0  0  0
    9.7259   -5.3080   18.4485 C   0  0  0  0  0  0  0  0  0  0  0  0
    9.4578   -5.0200   16.3036 N   0  0  0  0  0  0  0  0  0  0  0  0
    5.0287   -8.9365   16.8223 C   0  0  0  0  0  0  0  0  0  0  0  0
    8.7742   -6.1498   16.6764 C   0  0  0  0  0  0  0  0  0  0  0  0
   10.9418   -3.4032   21.2053 O   0  0  0  0  0  0  0  0  0  0  0  0
    1.4797   -8.6258   16.2950 C   0  0  0  0  0  0  0  0  0  0  0  0
    9.2861   -1.2743   25.3585 C   0  0  0  0  0  0  0  0  0  0  0  0
    1.8892  -10.3985   17.7511 N   0  0  0  0  0  0  0  0  0  0  0  0
    9.6210   -0.6952   24.0976 C   0  0  0  0  0  0  0  0  0  0  0  0
    7.0792   -9.0217   17.1429 C   0  0  0  0  0  0  0  0  0  0  0  0
    3.1713  -10.1816   17.6634 C   0  0  0  0  0  0  0  0  0  0  0  0
    2.7878   -8.3822   16.2137 C   0  0  0  0  0  0  0  0  0  0  0  0
    9.4601   -2.6590   25.6528 C   0  0  0  0  0  0  0  0  0  0  0  0
   10.1182   -1.5672   23.1165 C   0  0  0  0  0  0  0  0  0  0  0  0
    1.0552   -9.6360   17.0650 C   0  0  0  0  0  0  0  0  0  0  0  0
    3.6519   -9.1783   16.9039 C   0  0  0  0  0  0  0  0  0  0  0  0
    7.8675   -7.0096   15.9415 C   0  0  0  0  0  0  0  0  0  0  0  0
    5.9733   -9.6553   17.3832 N   0  0  0  0  0  0  0  0  0  0  0  0
   10.2411   -2.9363   23.4301 C   0  0  0  0  0  0  0  0  0  0  0  0
   10.7288   -3.8197   19.9525 C   0  0  0  0  0  0  0  0  0  0  0  0
   10.1189   -5.0054   19.6987 C   0  0  0  0  0  0  0  0  0  0  0  0
  1  3  4  0
  1  7  4  0
  2 21  4  0
  2 27  4  0
  3  9  4  0
  3 10  4  0
  4  8  4  0
  4 18  4  0
  4 25  1  0
  5  9  4  0
  5 12  4  0
  6 13  1  0
  6 27  1  0
  7 28  4  0
  8 11  4  0
  9 29  4  0
 10 12  4  0
 11 24  1  0
 11 26  4  0
 12 25  1  0
 13 28  1  0
 14 20  4  0
 14 23  4  0
 15 17  4  0
 15 21  4  0
 16 19  4  0
 16 23  4  0
 17 22  4  0
 18 26  4  0
 19 24  4  0
 20 24  4  0
 22 27  4  0
 28 29  4  0
M  END
$$$$

 Created by Python create_sdf_string function

 29 33  0  0  0  0  0  0  0  0999 V2000
   10.7215   -3.3326   17.6437 C   0  0  0  0  0  0  0  0  0  0  0  0
    9.9489   -3.4675   24.6487 N   0  0  0  0  0  0  0  0  0  0  0  0
   10.0172   -4.4740   17.4101 C   0  0  0  0  0  0  0  0  0  0  0  0
    6.9051   -7.9575   16.4222 C   0  0  0  0  0  0  0  0  0  0  0  0
    8.9969   -6.3552   17.9668 N   0  0  0  0  0  0  0  0  0  0  0  0
   10.6702   -3.9051   22.4070 C   0  0  0  0  0  0  0  0  0  0  0  0
   11.0625   -3.0028   18.8894 C   0  0  0  0  0  0  0  0  0  0  0  0
    5.6180   -7.9194   16.1754 O   0  0  0  0  0  0  0  0  0  0  0  0
    9.7259   -5.3080   18.4485 C   0  0  0  0  0  0  0  0  0  0  0  0
    9.4578   -5.0200   16.3036 N   0  0  0  0  0  0  0  0  0  0  0  0
    5.0287   -8.9365   16.8223 C   0  0  0  0  0  0  0  0  0  0  0  0
    8.7742   -6.1498   16.6764 C   0  0  0  0  0  0  0  0  0  0  0  0
   10.9418   -3.4032   21.2053 O   0  0  0  0  0  0  0  0  0  0  0  0
    1.4797   -8.6258   16.2950 C   0  0  0  0  0  0  0  0  0  0  0  0
    9.2861   -1.2743   25.3585 C   0  0  0  0  0  0  0  0  0  0  0  0
    1.8892  -10.3985   17.7511 N   0  0  0  0  0  0  0  0  0  0  0  0
    9.6210   -0.6952   24.0976 C   0  0  0  0  0  0  0  0  0  0  0  0
    7.0792   -9.0217   17.1429 C   0  0  0  0  0  0  0  0  0  0  0  0
    3.1713  -10.1816   17.6634 C   0  0  0  0  0  0  0  0  0  0  0  0
    2.7878   -8.3822   16.2137 C   0  0  0  0  0  0  0  0  0  0  0  0
    9.4601   -2.6590   25.6528 C   0  0  0  0  0  0  0  0  0  0  0  0
   10.1182   -1.5672   23.1165 C   0  0  0  0  0  0  0  0  0  0  0  0
    1.0552   -9.6360   17.0650 C   0  0  0  0  0  0  0  0  0  0  0  0
    3.6519   -9.1783   16.9039 C   0  0  0  0  0  0  0  0  0  0  0  0
    7.8675   -7.0096   15.9415 C   0  0  0  0  0  0  0  0  0  0  0  0
    5.9733   -9.6553   17.3832 N   0  0  0  0  0  0  0  0  0  0  0  0
   10.2411   -2.9363   23.4301 C   0  0  0  0  0  0  0  0  0  0  0  0
   10.7288   -3.8197   19.9525 C   0  0  0  0  0  0  0  0  0  0  0  0
   10.1189   -5.0054   19.6987 C   0  0  0  0  0  0  0  0  0  0  0  0
  1  3  4  0
  1  7  4  0
  2 21  4  0
  2 27  4  0
  3  9  4  0
  3 10  4  0
  4  8  4  0
  4 18  4  0
  4 25  1  0
  5  9  4  0
  5 12  4  0
  6 13  1  0
  6 27  1  0
  7 28  4  0
  8 11  4  0
  9 29  4  0
 10 12  4  0
 11 24  1  0
 11 26  4  0
 12 25  1  0
 13 28  1  0
 14 20  4  0
 14 23  4  0
 15 17  4  0
 15 21  4  0
 16 19  4  0
 16 23  4  0
 17 22  4  0
 18 26  4  0
 19 24  4  0
 20 24  4  0
 22 27  4  0
 28 29  4  0
M  END
$$$$

 Created by Python create_sdf_string function

 29 33  0  0  0  0  0  0  0  0999 V2000
   10.7215   -3.3326   17.6437 C   0  0  0  0  0  0  0  0  0  0  0  0
    9.9489   -3.4675   24.6487 N   0  0  0  0  0  0  0  0  0  0  0  0
   10.0172   -4.4740   17.4101 C   0  0  0  0  0  0  0  0  0  0  0  0
    6.9051   -7.9575   16.4222 C   0  0  0  0  0  0  0  0  0  0  0  0
    8.9969   -6.3552   17.9668 N   0  0  0  0  0  0  0  0  0  0  0  0
   10.6702   -3.9051   22.4070 C   0  0  0  0  0  0  0  0  0  0  0  0
   11.0625   -3.0028   18.8894 C   0  0  0  0  0  0  0  0  0  0  0  0
    5.6180   -7.9194   16.1754 O   0  0  0  0  0  0  0  0  0  0  0  0
    9.7259   -5.3080   18.4485 C   0  0  0  0  0  0  0  0  0  0  0  0
    9.4578   -5.0200   16.3036 N   0  0  0  0  0  0  0  0  0  0  0  0
    5.0287   -8.9365   16.8223 C   0  0  0  0  0  0  0  0  0  0  0  0
    8.7742   -6.1498   16.6764 C   0  0  0  0  0  0  0  0  0  0  0  0
   10.9418   -3.4032   21.2053 O   0  0  0  0  0  0  0  0  0  0  0  0
    1.4797   -8.6258   16.2950 C   0  0  0  0  0  0  0  0  0  0  0  0
    9.2861   -1.2743   25.3585 C   0  0  0  0  0  0  0  0  0  0  0  0
    1.8892  -10.3985   17.7511 N   0  0  0  0  0  0  0  0  0  0  0  0
    9.6210   -0.6952   24.0976 C   0  0  0  0  0  0  0  0  0  0  0  0
    7.0792   -9.0217   17.1429 C   0  0  0  0  0  0  0  0  0  0  0  0
    3.1713  -10.1816   17.6634 C   0  0  0  0  0  0  0  0  0  0  0  0
    2.7878   -8.3822   16.2137 C   0  0  0  0  0  0  0  0  0  0  0  0
    9.4601   -2.6590   25.6528 C   0  0  0  0  0  0  0  0  0  0  0  0
   10.1182   -1.5672   23.1165 C   0  0  0  0  0  0  0  0  0  0  0  0
    1.0552   -9.6360   17.0650 C   0  0  0  0  0  0  0  0  0  0  0  0
    3.6519   -9.1783   16.9039 C   0  0  0  0  0  0  0  0  0  0  0  0
    7.8675   -7.0096   15.9415 C   0  0  0  0  0  0  0  0  0  0  0  0
    5.9733   -9.6553   17.3832 N   0  0  0  0  0  0  0  0  0  0  0  0
   10.2411   -2.9363   23.4301 C   0  0  0  0  0  0  0  0  0  0  0  0
   10.7288   -3.8197   19.9525 C   0  0  0  0  0  0  0  0  0  0  0  0
   10.1189   -5.0054   19.6987 C   0  0  0  0  0  0  0  0  0  0  0  0
  1  3  4  0
  1  7  4  0
  2 21  4  0
  2 27  4  0
  3  9  4  0
  3 10  4  0
  4  8  4  0
  4 18  4  0
  4 25  1  0
  5  9  4  0
  5 12  4  0
  6 13  1  0
  6 27  1  0
  7 28  4  0
  8 11  4  0
  9 29  4  0
 10 12  4  0
 11 24  1  0
 11 26  4  0
 12 25  1  0
 13 28  1  0
 14 20  4  0
 14 23  4  0
 15 17  4  0
 15 21  4  0
 16 19  4  0
 16 23  4  0
 17 22  4  0
 18 26  4  0
 19 24  4  0
 20 24  4  0
 22 27  4  0
 28 29  4  0
M  END
$$$$

 Created by Python create_sdf_string function

 29 33  0  0  0  0  0  0  0  0999 V2000
   10.7215   -3.3326   17.6437 C   0  0  0  0  0  0  0  0  0  0  0  0
    9.9489   -3.4675   24.6487 N   0  0  0  0  0  0  0  0  0  0  0  0
   10.0172   -4.4740   17.4101 C   0  0  0  0  0  0  0  0  0  0  0  0
    6.9051   -7.9575   16.4222 C   0  0  0  0  0  0  0  0  0  0  0  0
    8.9969   -6.3552   17.9668 N   0  0  0  0  0  0  0  0  0  0  0  0
   10.6702   -3.9051   22.4070 C   0  0  0  0  0  0  0  0  0  0  0  0
   11.0625   -3.0028   18.8894 C   0  0  0  0  0  0  0  0  0  0  0  0
    5.6180   -7.9194   16.1754 O   0  0  0  0  0  0  0  0  0  0  0  0
    9.7259   -5.3080   18.4485 C   0  0  0  0  0  0  0  0  0  0  0  0
    9.4578   -5.0200   16.3036 N   0  0  0  0  0  0  0  0  0  0  0  0
    5.0287   -8.9365   16.8223 C   0  0  0  0  0  0  0  0  0  0  0  0
    8.7742   -6.1498   16.6764 C   0  0  0  0  0  0  0  0  0  0  0  0
   10.9418   -3.4032   21.2053 O   0  0  0  0  0  0  0  0  0  0  0  0
    1.4797   -8.6258   16.2950 C   0  0  0  0  0  0  0  0  0  0  0  0
    9.2861   -1.2743   25.3585 C   0  0  0  0  0  0  0  0  0  0  0  0
    1.8892  -10.3985   17.7511 N   0  0  0  0  0  0  0  0  0  0  0  0
    9.6210   -0.6952   24.0976 C   0  0  0  0  0  0  0  0  0  0  0  0
    7.0792   -9.0217   17.1429 C   0  0  0  0  0  0  0  0  0  0  0  0
    3.1713  -10.1816   17.6634 C   0  0  0  0  0  0  0  0  0  0  0  0
    2.7878   -8.3822   16.2137 C   0  0  0  0  0  0  0  0  0  0  0  0
    9.4601   -2.6590   25.6528 C   0  0  0  0  0  0  0  0  0  0  0  0
   10.1182   -1.5672   23.1165 C   0  0  0  0  0  0  0  0  0  0  0  0
    1.0552   -9.6360   17.0650 C   0  0  0  0  0  0  0  0  0  0  0  0
    3.6519   -9.1783   16.9039 C   0  0  0  0  0  0  0  0  0  0  0  0
    7.8675   -7.0096   15.9415 C   0  0  0  0  0  0  0  0  0  0  0  0
    5.9733   -9.6553   17.3832 N   0  0  0  0  0  0  0  0  0  0  0  0
   10.2411   -2.9363   23.4301 C   0  0  0  0  0  0  0  0  0  0  0  0
   10.7288   -3.8197   19.9525 C   0  0  0  0  0  0  0  0  0  0  0  0
   10.1189   -5.0054   19.6987 C   0  0  0  0  0  0  0  0  0  0  0  0
  1  3  4  0
  1  7  4  0
  2 21  4  0
  2 27  4  0
  3  9  4  0
  3 10  4  0
  4  8  4  0
  4 18  4  0
  4 25  1  0
  5  9  4  0
  5 12  4  0
  6 13  1  0
  6 27  1  0
  7 28  4  0
  8 11  4  0
  9 29  4  0
 10 12  4  0
 11 24  1  0
 11 26  4  0
 12 25  1  0
 13 28  1  0
 14 20  4  0
 14 23  4  0
 15 17  4  0
 15 21  4  0
 16 19  4  0
 16 23  4  0
 17 22  4  0
 18 26  4  0
 19 24  4  0
 20 24  4  0
 22 27  4  0
 28 29  4  0
M  END
$$$$

 Created by Python create_sdf_string function

 29 33  0  0  0  0  0  0  0  0999 V2000
   10.7215   -3.3326   17.6437 C   0  0  0  0  0  0  0  0  0  0  0  0
    9.9489   -3.4675   24.6487 N   0  0  0  0  0  0  0  0  0  0  0  0
   10.0172   -4.4740   17.4101 C   0  0  0  0  0  0  0  0  0  0  0  0
    6.9051   -7.9575   16.4222 C   0  0  0  0  0  0  0  0  0  0  0  0
    8.9969   -6.3552   17.9668 N   0  0  0  0  0  0  0  0  0  0  0  0
   10.6702   -3.9051   22.4070 C   0  0  0  0  0  0  0  0  0  0  0  0
   11.0625   -3.0028   18.8894 C   0  0  0  0  0  0  0  0  0  0  0  0
    5.6180   -7.9194   16.1754 O   0  0  0  0  0  0  0  0  0  0  0  0
    9.7259   -5.3080   18.4485 C   0  0  0  0  0  0  0  0  0  0  0  0
    9.4578   -5.0200   16.3036 N   0  0  0  0  0  0  0  0  0  0  0  0
    5.0287   -8.9365   16.8223 C   0  0  0  0  0  0  0  0  0  0  0  0
    8.7742   -6.1498   16.6764 C   0  0  0  0  0  0  0  0  0  0  0  0
   10.9418   -3.4032   21.2053 O   0  0  0  0  0  0  0  0  0  0  0  0
    1.4797   -8.6258   16.2950 C   0  0  0  0  0  0  0  0  0  0  0  0
    9.2861   -1.2743   25.3585 C   0  0  0  0  0  0  0  0  0  0  0  0
    1.8892  -10.3985   17.7511 N   0  0  0  0  0  0  0  0  0  0  0  0
    9.6210   -0.6952   24.0976 C   0  0  0  0  0  0  0  0  0  0  0  0
    7.0792   -9.0217   17.1429 C   0  0  0  0  0  0  0  0  0  0  0  0
    3.1713  -10.1816   17.6634 C   0  0  0  0  0  0  0  0  0  0  0  0
    2.7878   -8.3822   16.2137 C   0  0  0  0  0  0  0  0  0  0  0  0
    9.4601   -2.6590   25.6528 C   0  0  0  0  0  0  0  0  0  0  0  0
   10.1182   -1.5672   23.1165 C   0  0  0  0  0  0  0  0  0  0  0  0
    1.0552   -9.6360   17.0650 C   0  0  0  0  0  0  0  0  0  0  0  0
    3.6519   -9.1783   16.9039 C   0  0  0  0  0  0  0  0  0  0  0  0
    7.8675   -7.0096   15.9415 C   0  0  0  0  0  0  0  0  0  0  0  0
    5.9733   -9.6553   17.3832 N   0  0  0  0  0  0  0  0  0  0  0  0
   10.2411   -2.9363   23.4301 C   0  0  0  0  0  0  0  0  0  0  0  0
   10.7288   -3.8197   19.9525 C   0  0  0  0  0  0  0  0  0  0  0  0
   10.1189   -5.0054   19.6987 C   0  0  0  0  0  0  0  0  0  0  0  0
  1  3  4  0
  1  7  4  0
  2 21  4  0
  2 27  4  0
  3  9  4  0
  3 10  4  0
  4  8  4  0
  4 18  4  0
  4 25  1  0
  5  9  4  0
  5 12  4  0
  6 13  1  0
  6 27  1  0
  7 28  4  0
  8 11  4  0
  9 29  4  0
 10 12  4  0
 11 24  1  0
 11 26  4  0
 12 25  1  0
 13 28  1  0
 14 20  4  0
 14 23  4  0
 15 17  4  0
 15 21  4  0
 16 19  4  0
 16 23  4  0
 17 22  4  0
 18 26  4  0
 19 24  4  0
 20 24  4  0
 22 27  4  0
 28 29  4  0
M  END
$$$$

 Created by Python create_sdf_string function

 29 33  0  0  0  0  0  0  0  0999 V2000
   10.7215   -3.3326   17.6437 C   0  0  0  0  0  0  0  0  0  0  0  0
    9.9489   -3.4675   24.6487 N   0  0  0  0  0  0  0  0  0  0  0  0
   10.0172   -4.4740   17.4101 C   0  0  0  0  0  0  0  0  0  0  0  0
    6.9051   -7.9575   16.4222 C   0  0  0  0  0  0  0  0  0  0  0  0
    8.9969   -6.3552   17.9668 N   0  0  0  0  0  0  0  0  0  0  0  0
   10.6702   -3.9051   22.4070 C   0  0  0  0  0  0  0  0  0  0  0  0
   11.0625   -3.0028   18.8894 C   0  0  0  0  0  0  0  0  0  0  0  0
    5.6180   -7.9194   16.1754 O   0  0  0  0  0  0  0  0  0  0  0  0
    9.7259   -5.3080   18.4485 C   0  0  0  0  0  0  0  0  0  0  0  0
    9.4578   -5.0200   16.3036 N   0  0  0  0  0  0  0  0  0  0  0  0
    5.0287   -8.9365   16.8223 C   0  0  0  0  0  0  0  0  0  0  0  0
    8.7742   -6.1498   16.6764 C   0  0  0  0  0  0  0  0  0  0  0  0
   10.9418   -3.4032   21.2053 O   0  0  0  0  0  0  0  0  0  0  0  0
    1.4797   -8.6258   16.2950 C   0  0  0  0  0  0  0  0  0  0  0  0
    9.2861   -1.2743   25.3585 C   0  0  0  0  0  0  0  0  0  0  0  0
    1.8892  -10.3985   17.7511 N   0  0  0  0  0  0  0  0  0  0  0  0
    9.6210   -0.6952   24.0976 C   0  0  0  0  0  0  0  0  0  0  0  0
    7.0792   -9.0217   17.1429 C   0  0  0  0  0  0  0  0  0  0  0  0
    3.1713  -10.1816   17.6634 C   0  0  0  0  0  0  0  0  0  0  0  0
    2.7878   -8.3822   16.2137 C   0  0  0  0  0  0  0  0  0  0  0  0
    9.4601   -2.6590   25.6528 C   0  0  0  0  0  0  0  0  0  0  0  0
   10.1182   -1.5672   23.1165 C   0  0  0  0  0  0  0  0  0  0  0  0
    1.0552   -9.6360   17.0650 C   0  0  0  0  0  0  0  0  0  0  0  0
    3.6519   -9.1783   16.9039 C   0  0  0  0  0  0  0  0  0  0  0  0
    7.8675   -7.0096   15.9415 C   0  0  0  0  0  0  0  0  0  0  0  0
    5.9733   -9.6553   17.3832 N   0  0  0  0  0  0  0  0  0  0  0  0
   10.2411   -2.9363   23.4301 C   0  0  0  0  0  0  0  0  0  0  0  0
   10.7288   -3.8197   19.9525 C   0  0  0  0  0  0  0  0  0  0  0  0
   10.1189   -5.0054   19.6987 C   0  0  0  0  0  0  0  0  0  0  0  0
  1  3  4  0
  1  7  4  0
  2 21  4  0
  2 27  4  0
  3  9  4  0
  3 10  4  0
  4  8  4  0
  4 18  4  0
  4 25  1  0
  5  9  4  0
  5 12  4  0
  6 13  1  0
  6 27  1  0
  7 28  4  0
  8 11  4  0
  9 29  4  0
 10 12  4  0
 11 24  1  0
 11 26  4  0
 12 25  1  0
 13 28  1  0
 14 20  4  0
 14 23  4  0
 15 17  4  0
 15 21  4  0
 16 19  4  0
 16 23  4  0
 17 22  4  0
 18 26  4  0
 19 24  4  0
 20 24  4  0
 22 27  4  0
 28 29  4  0
M  END
$$$$

 Created by Python create_sdf_string function

 29 33  0  0  0  0  0  0  0  0999 V2000
   10.7215   -3.3326   17.6437 C   0  0  0  0  0  0  0  0  0  0  0  0
    9.9489   -3.4675   24.6487 N   0  0  0  0  0  0  0  0  0  0  0  0
   10.0172   -4.4740   17.4101 C   0  0  0  0  0  0  0  0  0  0  0  0
    6.9051   -7.9575   16.4222 C   0  0  0  0  0  0  0  0  0  0  0  0
    8.9969   -6.3552   17.9668 N   0  0  0  0  0  0  0  0  0  0  0  0
   10.6702   -3.9051   22.4070 C   0  0  0  0  0  0  0  0  0  0  0  0
   11.0625   -3.0028   18.8894 C   0  0  0  0  0  0  0  0  0  0  0  0
    5.6180   -7.9194   16.1754 O   0  0  0  0  0  0  0  0  0  0  0  0
    9.7259   -5.3080   18.4485 C   0  0  0  0  0  0  0  0  0  0  0  0
    9.4578   -5.0200   16.3036 N   0  0  0  0  0  0  0  0  0  0  0  0
    5.0287   -8.9365   16.8223 C   0  0  0  0  0  0  0  0  0  0  0  0
    8.7742   -6.1498   16.6764 C   0  0  0  0  0  0  0  0  0  0  0  0
   10.9418   -3.4032   21.2053 O   0  0  0  0  0  0  0  0  0  0  0  0
    1.4797   -8.6258   16.2950 C   0  0  0  0  0  0  0  0  0  0  0  0
    9.2861   -1.2743   25.3585 C   0  0  0  0  0  0  0  0  0  0  0  0
    1.8892  -10.3985   17.7511 N   0  0  0  0  0  0  0  0  0  0  0  0
    9.6210   -0.6952   24.0976 C   0  0  0  0  0  0  0  0  0  0  0  0
    7.0792   -9.0217   17.1429 C   0  0  0  0  0  0  0  0  0  0  0  0
    3.1713  -10.1816   17.6634 C   0  0  0  0  0  0  0  0  0  0  0  0
    2.7878   -8.3822   16.2137 C   0  0  0  0  0  0  0  0  0  0  0  0
    9.4601   -2.6590   25.6528 C   0  0  0  0  0  0  0  0  0  0  0  0
   10.1182   -1.5672   23.1165 C   0  0  0  0  0  0  0  0  0  0  0  0
    1.0552   -9.6360   17.0650 C   0  0  0  0  0  0  0  0  0  0  0  0
    3.6519   -9.1783   16.9039 C   0  0  0  0  0  0  0  0  0  0  0  0
    7.8675   -7.0096   15.9415 C   0  0  0  0  0  0  0  0  0  0  0  0
    5.9733   -9.6553   17.3832 N   0  0  0  0  0  0  0  0  0  0  0  0
   10.2411   -2.9363   23.4301 C   0  0  0  0  0  0  0  0  0  0  0  0
   10.7288   -3.8197   19.9525 C   0  0  0  0  0  0  0  0  0  0  0  0
   10.1189   -5.0054   19.6987 C   0  0  0  0  0  0  0  0  0  0  0  0
  1  3  4  0
  1  7  4  0
  2 21  4  0
  2 27  4  0
  3  9  4  0
  3 10  4  0
  4  8  4  0
  4 18  4  0
  4 25  1  0
  5  9  4  0
  5 12  4  0
  6 13  1  0
  6 27  1  0
  7 28  4  0
  8 11  4  0
  9 29  4  0
 10 12  4  0
 11 24  1  0
 11 26  4  0
 12 25  1  0
 13 28  1  0
 14 20  4  0
 14 23  4  0
 15 17  4  0
 15 21  4  0
 16 19  4  0
 16 23  4  0
 17 22  4  0
 18 26  4  0
 19 24  4  0
 20 24  4  0
 22 27  4  0
 28 29  4  0
M  END
$$$$

 Created by Python create_sdf_string function

 29 33  0  0  0  0  0  0  0  0999 V2000
   10.7215   -3.3326   17.6437 C   0  0  0  0  0  0  0  0  0  0  0  0
    9.9489   -3.4675   24.6487 N   0  0  0  0  0  0  0  0  0  0  0  0
   10.0172   -4.4740   17.4101 C   0  0  0  0  0  0  0  0  0  0  0  0
    6.9051   -7.9575   16.4222 C   0  0  0  0  0  0  0  0  0  0  0  0
    8.9969   -6.3552   17.9668 N   0  0  0  0  0  0  0  0  0  0  0  0
   10.6702   -3.9051   22.4070 C   0  0  0  0  0  0  0  0  0  0  0  0
   11.0625   -3.0028   18.8894 C   0  0  0  0  0  0  0  0  0  0  0  0
    5.6180   -7.9194   16.1754 O   0  0  0  0  0  0  0  0  0  0  0  0
    9.7259   -5.3080   18.4485 C   0  0  0  0  0  0  0  0  0  0  0  0
    9.4578   -5.0200   16.3036 N   0  0  0  0  0  0  0  0  0  0  0  0
    5.0287   -8.9365   16.8223 C   0  0  0  0  0  0  0  0  0  0  0  0
    8.7742   -6.1498   16.6764 C   0  0  0  0  0  0  0  0  0  0  0  0
   10.9418   -3.4032   21.2053 O   0  0  0  0  0  0  0  0  0  0  0  0
    1.4797   -8.6258   16.2950 C   0  0  0  0  0  0  0  0  0  0  0  0
    9.2861   -1.2743   25.3585 C   0  0  0  0  0  0  0  0  0  0  0  0
    1.8892  -10.3985   17.7511 N   0  0  0  0  0  0  0  0  0  0  0  0
    9.6210   -0.6952   24.0976 C   0  0  0  0  0  0  0  0  0  0  0  0
    7.0792   -9.0217   17.1429 C   0  0  0  0  0  0  0  0  0  0  0  0
    3.1713  -10.1816   17.6634 C   0  0  0  0  0  0  0  0  0  0  0  0
    2.7878   -8.3822   16.2137 C   0  0  0  0  0  0  0  0  0  0  0  0
    9.4601   -2.6590   25.6528 C   0  0  0  0  0  0  0  0  0  0  0  0
   10.1182   -1.5672   23.1165 C   0  0  0  0  0  0  0  0  0  0  0  0
    1.0552   -9.6360   17.0650 C   0  0  0  0  0  0  0  0  0  0  0  0
    3.6519   -9.1783   16.9039 C   0  0  0  0  0  0  0  0  0  0  0  0
    7.8675   -7.0096   15.9415 C   0  0  0  0  0  0  0  0  0  0  0  0
    5.9733   -9.6553   17.3832 N   0  0  0  0  0  0  0  0  0  0  0  0
   10.2411   -2.9363   23.4301 C   0  0  0  0  0  0  0  0  0  0  0  0
   10.7288   -3.8197   19.9525 C   0  0  0  0  0  0  0  0  0  0  0  0
   10.1189   -5.0054   19.6987 C   0  0  0  0  0  0  0  0  0  0  0  0
  1  3  4  0
  1  7  4  0
  2 21  4  0
  2 27  4  0
  3  9  4  0
  3 10  4  0
  4  8  4  0
  4 18  4  0
  4 25  1  0
  5  9  4  0
  5 12  4  0
  6 13  1  0
  6 27  1  0
  7 28  4  0
  8 11  4  0
  9 29  4  0
 10 12  4  0
 11 24  1  0
 11 26  4  0
 12 25  1  0
 13 28  1  0
 14 20  4  0
 14 23  4  0
 15 17  4  0
 15 21  4  0
 16 19  4  0
 16 23  4  0
 17 22  4  0
 18 26  4  0
 19 24  4  0
 20 24  4  0
 22 27  4  0
 28 29  4  0
M  END
$$$$

 Created by Python create_sdf_string function

 29 33  0  0  0  0  0  0  0  0999 V2000
   10.7215   -3.3326   17.6437 C   0  0  0  0  0  0  0  0  0  0  0  0
    9.9489   -3.4675   24.6487 N   0  0  0  0  0  0  0  0  0  0  0  0
   10.0172   -4.4740   17.4101 C   0  0  0  0  0  0  0  0  0  0  0  0
    6.9051   -7.9575   16.4222 C   0  0  0  0  0  0  0  0  0  0  0  0
    8.9969   -6.3552   17.9668 N   0  0  0  0  0  0  0  0  0  0  0  0
   10.6702   -3.9051   22.4070 C   0  0  0  0  0  0  0  0  0  0  0  0
   11.0625   -3.0028   18.8894 C   0  0  0  0  0  0  0  0  0  0  0  0
    5.6180   -7.9194   16.1754 O   0  0  0  0  0  0  0  0  0  0  0  0
    9.7259   -5.3080   18.4485 C   0  0  0  0  0  0  0  0  0  0  0  0
    9.4578   -5.0200   16.3036 N   0  0  0  0  0  0  0  0  0  0  0  0
    5.0287   -8.9365   16.8223 C   0  0  0  0  0  0  0  0  0  0  0  0
    8.7742   -6.1498   16.6764 C   0  0  0  0  0  0  0  0  0  0  0  0
   10.9418   -3.4032   21.2053 O   0  0  0  0  0  0  0  0  0  0  0  0
    1.4797   -8.6258   16.2950 C   0  0  0  0  0  0  0  0  0  0  0  0
    9.2861   -1.2743   25.3585 C   0  0  0  0  0  0  0  0  0  0  0  0
    1.8892  -10.3985   17.7511 N   0  0  0  0  0  0  0  0  0  0  0  0
    9.6210   -0.6952   24.0976 C   0  0  0  0  0  0  0  0  0  0  0  0
    7.0792   -9.0217   17.1429 C   0  0  0  0  0  0  0  0  0  0  0  0
    3.1713  -10.1816   17.6634 C   0  0  0  0  0  0  0  0  0  0  0  0
    2.7878   -8.3822   16.2137 C   0  0  0  0  0  0  0  0  0  0  0  0
    9.4601   -2.6590   25.6528 C   0  0  0  0  0  0  0  0  0  0  0  0
   10.1182   -1.5672   23.1165 C   0  0  0  0  0  0  0  0  0  0  0  0
    1.0552   -9.6360   17.0650 C   0  0  0  0  0  0  0  0  0  0  0  0
    3.6519   -9.1783   16.9039 C   0  0  0  0  0  0  0  0  0  0  0  0
    7.8675   -7.0096   15.9415 C   0  0  0  0  0  0  0  0  0  0  0  0
    5.9733   -9.6553   17.3832 N   0  0  0  0  0  0  0  0  0  0  0  0
   10.2411   -2.9363   23.4301 C   0  0  0  0  0  0  0  0  0  0  0  0
   10.7288   -3.8197   19.9525 C   0  0  0  0  0  0  0  0  0  0  0  0
   10.1189   -5.0054   19.6987 C   0  0  0  0  0  0  0  0  0  0  0  0
  1  3  4  0
  1  7  4  0
  2 21  4  0
  2 27  4  0
  3  9  4  0
  3 10  4  0
  4  8  4  0
  4 18  4  0
  4 25  1  0
  5  9  4  0
  5 12  4  0
  6 13  1  0
  6 27  1  0
  7 28  4  0
  8 11  4  0
  9 29  4  0
 10 12  4  0
 11 24  1  0
 11 26  4  0
 12 25  1  0
 13 28  1  0
 14 20  4  0
 14 23  4  0
 15 17  4  0
 15 21  4  0
 16 19  4  0
 16 23  4  0
 17 22  4  0
 18 26  4  0
 19 24  4  0
 20 24  4  0
 22 27  4  0
 28 29  4  0
M  END
$$$$

 Created by Python create_sdf_string function

 29 33  0  0  0  0  0  0  0  0999 V2000
   10.7215   -3.3326   17.6437 C   0  0  0  0  0  0  0  0  0  0  0  0
    9.9489   -3.4675   24.6487 N   0  0  0  0  0  0  0  0  0  0  0  0
   10.0172   -4.4740   17.4101 C   0  0  0  0  0  0  0  0  0  0  0  0
    6.9051   -7.9575   16.4222 C   0  0  0  0  0  0  0  0  0  0  0  0
    8.9969   -6.3552   17.9668 N   0  0  0  0  0  0  0  0  0  0  0  0
   10.6702   -3.9051   22.4070 C   0  0  0  0  0  0  0  0  0  0  0  0
   11.0625   -3.0028   18.8894 C   0  0  0  0  0  0  0  0  0  0  0  0
    5.6180   -7.9194   16.1754 O   0  0  0  0  0  0  0  0  0  0  0  0
    9.7259   -5.3080   18.4485 C   0  0  0  0  0  0  0  0  0  0  0  0
    9.4578   -5.0200   16.3036 N   0  0  0  0  0  0  0  0  0  0  0  0
    5.0287   -8.9365   16.8223 C   0  0  0  0  0  0  0  0  0  0  0  0
    8.7742   -6.1498   16.6764 C   0  0  0  0  0  0  0  0  0  0  0  0
   10.9418   -3.4032   21.2053 O   0  0  0  0  0  0  0  0  0  0  0  0
    1.4797   -8.6258   16.2950 C   0  0  0  0  0  0  0  0  0  0  0  0
    9.2861   -1.2743   25.3585 C   0  0  0  0  0  0  0  0  0  0  0  0
    1.8892  -10.3985   17.7511 N   0  0  0  0  0  0  0  0  0  0  0  0
    9.6210   -0.6952   24.0976 C   0  0  0  0  0  0  0  0  0  0  0  0
    7.0792   -9.0217   17.1429 C   0  0  0  0  0  0  0  0  0  0  0  0
    3.1713  -10.1816   17.6634 C   0  0  0  0  0  0  0  0  0  0  0  0
    2.7878   -8.3822   16.2137 C   0  0  0  0  0  0  0  0  0  0  0  0
    9.4601   -2.6590   25.6528 C   0  0  0  0  0  0  0  0  0  0  0  0
   10.1182   -1.5672   23.1165 C   0  0  0  0  0  0  0  0  0  0  0  0
    1.0552   -9.6360   17.0650 C   0  0  0  0  0  0  0  0  0  0  0  0
    3.6519   -9.1783   16.9039 C   0  0  0  0  0  0  0  0  0  0  0  0
    7.8675   -7.0096   15.9415 C   0  0  0  0  0  0  0  0  0  0  0  0
    5.9733   -9.6553   17.3832 N   0  0  0  0  0  0  0  0  0  0  0  0
   10.2411   -2.9363   23.4301 C   0  0  0  0  0  0  0  0  0  0  0  0
   10.7288   -3.8197   19.9525 C   0  0  0  0  0  0  0  0  0  0  0  0
   10.1189   -5.0054   19.6987 C   0  0  0  0  0  0  0  0  0  0  0  0
  1  3  4  0
  1  7  4  0
  2 21  4  0
  2 27  4  0
  3  9  4  0
  3 10  4  0
  4  8  4  0
  4 18  4  0
  4 25  1  0
  5  9  4  0
  5 12  4  0
  6 13  1  0
  6 27  1  0
  7 28  4  0
  8 11  4  0
  9 29  4  0
 10 12  4  0
 11 24  1  0
 11 26  4  0
 12 25  1  0
 13 28  1  0
 14 20  4  0
 14 23  4  0
 15 17  4  0
 15 21  4  0
 16 19  4  0
 16 23  4  0
 17 22  4  0
 18 26  4  0
 19 24  4  0
 20 24  4  0
 22 27  4  0
 28 29  4  0
M  END
$$$$

 Created by Python create_sdf_string function

 29 33  0  0  0  0  0  0  0  0999 V2000
   10.7215   -3.3326   17.6437 C   0  0  0  0  0  0  0  0  0  0  0  0
    9.9489   -3.4675   24.6487 N   0  0  0  0  0  0  0  0  0  0  0  0
   10.0172   -4.4740   17.4101 C   0  0  0  0  0  0  0  0  0  0  0  0
    6.9051   -7.9575   16.4222 C   0  0  0  0  0  0  0  0  0  0  0  0
    8.9969   -6.3552   17.9668 N   0  0  0  0  0  0  0  0  0  0  0  0
   10.6702   -3.9051   22.4070 C   0  0  0  0  0  0  0  0  0  0  0  0
   11.0625   -3.0028   18.8894 C   0  0  0  0  0  0  0  0  0  0  0  0
    5.6180   -7.9194   16.1754 O   0  0  0  0  0  0  0  0  0  0  0  0
    9.7259   -5.3080   18.4485 C   0  0  0  0  0  0  0  0  0  0  0  0
    9.4578   -5.0200   16.3036 N   0  0  0  0  0  0  0  0  0  0  0  0
    5.0287   -8.9365   16.8223 C   0  0  0  0  0  0  0  0  0  0  0  0
    8.7742   -6.1498   16.6764 C   0  0  0  0  0  0  0  0  0  0  0  0
   10.9418   -3.4032   21.2053 O   0  0  0  0  0  0  0  0  0  0  0  0
    1.4797   -8.6258   16.2950 C   0  0  0  0  0  0  0  0  0  0  0  0
    9.2861   -1.2743   25.3585 C   0  0  0  0  0  0  0  0  0  0  0  0
    1.8892  -10.3985   17.7511 N   0  0  0  0  0  0  0  0  0  0  0  0
    9.6210   -0.6952   24.0976 C   0  0  0  0  0  0  0  0  0  0  0  0
    7.0792   -9.0217   17.1429 C   0  0  0  0  0  0  0  0  0  0  0  0
    3.1713  -10.1816   17.6634 C   0  0  0  0  0  0  0  0  0  0  0  0
    2.7878   -8.3822   16.2137 C   0  0  0  0  0  0  0  0  0  0  0  0
    9.4601   -2.6590   25.6528 C   0  0  0  0  0  0  0  0  0  0  0  0
   10.1182   -1.5672   23.1165 C   0  0  0  0  0  0  0  0  0  0  0  0
    1.0552   -9.6360   17.0650 C   0  0  0  0  0  0  0  0  0  0  0  0
    3.6519   -9.1783   16.9039 C   0  0  0  0  0  0  0  0  0  0  0  0
    7.8675   -7.0096   15.9415 C   0  0  0  0  0  0  0  0  0  0  0  0
    5.9733   -9.6553   17.3832 N   0  0  0  0  0  0  0  0  0  0  0  0
   10.2411   -2.9363   23.4301 C   0  0  0  0  0  0  0  0  0  0  0  0
   10.7288   -3.8197   19.9525 C   0  0  0  0  0  0  0  0  0  0  0  0
   10.1189   -5.0054   19.6987 C   0  0  0  0  0  0  0  0  0  0  0  0
  1  3  4  0
  1  7  4  0
  2 21  4  0
  2 27  4  0
  3  9  4  0
  3 10  4  0
  4  8  4  0
  4 18  4  0
  4 25  1  0
  5  9  4  0
  5 12  4  0
  6 13  1  0
  6 27  1  0
  7 28  4  0
  8 11  4  0
  9 29  4  0
 10 12  4  0
 11 24  1  0
 11 26  4  0
 12 25  1  0
 13 28  1  0
 14 20  4  0
 14 23  4  0
 15 17  4  0
 15 21  4  0
 16 19  4  0
 16 23  4  0
 17 22  4  0
 18 26  4  0
 19 24  4  0
 20 24  4  0
 22 27  4  0
 28 29  4  0
M  END
$$$$

 Created by Python create_sdf_string function

 29 33  0  0  0  0  0  0  0  0999 V2000
   10.7215   -3.3326   17.6437 C   0  0  0  0  0  0  0  0  0  0  0  0
    9.9489   -3.4675   24.6487 N   0  0  0  0  0  0  0  0  0  0  0  0
   10.0172   -4.4740   17.4101 C   0  0  0  0  0  0  0  0  0  0  0  0
    6.9051   -7.9575   16.4222 C   0  0  0  0  0  0  0  0  0  0  0  0
    8.9969   -6.3552   17.9668 N   0  0  0  0  0  0  0  0  0  0  0  0
   10.6702   -3.9051   22.4070 C   0  0  0  0  0  0  0  0  0  0  0  0
   11.0625   -3.0028   18.8894 C   0  0  0  0  0  0  0  0  0  0  0  0
    5.6180   -7.9194   16.1754 O   0  0  0  0  0  0  0  0  0  0  0  0
    9.7259   -5.3080   18.4485 C   0  0  0  0  0  0  0  0  0  0  0  0
    9.4578   -5.0200   16.3036 N   0  0  0  0  0  0  0  0  0  0  0  0
    5.0287   -8.9365   16.8223 C   0  0  0  0  0  0  0  0  0  0  0  0
    8.7742   -6.1498   16.6764 C   0  0  0  0  0  0  0  0  0  0  0  0
   10.9418   -3.4032   21.2053 O   0  0  0  0  0  0  0  0  0  0  0  0
    1.4797   -8.6258   16.2950 C   0  0  0  0  0  0  0  0  0  0  0  0
    9.2861   -1.2743   25.3585 C   0  0  0  0  0  0  0  0  0  0  0  0
    1.8892  -10.3985   17.7511 N   0  0  0  0  0  0  0  0  0  0  0  0
    9.6210   -0.6952   24.0976 C   0  0  0  0  0  0  0  0  0  0  0  0
    7.0792   -9.0217   17.1429 C   0  0  0  0  0  0  0  0  0  0  0  0
    3.1713  -10.1816   17.6634 C   0  0  0  0  0  0  0  0  0  0  0  0
    2.7878   -8.3822   16.2137 C   0  0  0  0  0  0  0  0  0  0  0  0
    9.4601   -2.6590   25.6528 C   0  0  0  0  0  0  0  0  0  0  0  0
   10.1182   -1.5672   23.1165 C   0  0  0  0  0  0  0  0  0  0  0  0
    1.0552   -9.6360   17.0650 C   0  0  0  0  0  0  0  0  0  0  0  0
    3.6519   -9.1783   16.9039 C   0  0  0  0  0  0  0  0  0  0  0  0
    7.8675   -7.0096   15.9415 C   0  0  0  0  0  0  0  0  0  0  0  0
    5.9733   -9.6553   17.3832 N   0  0  0  0  0  0  0  0  0  0  0  0
   10.2411   -2.9363   23.4301 C   0  0  0  0  0  0  0  0  0  0  0  0
   10.7288   -3.8197   19.9525 C   0  0  0  0  0  0  0  0  0  0  0  0
   10.1189   -5.0054   19.6987 C   0  0  0  0  0  0  0  0  0  0  0  0
  1  3  4  0
  1  7  4  0
  2 21  4  0
  2 27  4  0
  3  9  4  0
  3 10  4  0
  4  8  4  0
  4 18  4  0
  4 25  1  0
  5  9  4  0
  5 12  4  0
  6 13  1  0
  6 27  1  0
  7 28  4  0
  8 11  4  0
  9 29  4  0
 10 12  4  0
 11 24  1  0
 11 26  4  0
 12 25  1  0
 13 28  1  0
 14 20  4  0
 14 23  4  0
 15 17  4  0
 15 21  4  0
 16 19  4  0
 16 23  4  0
 17 22  4  0
 18 26  4  0
 19 24  4  0
 20 24  4  0
 22 27  4  0
 28 29  4  0
M  END
$$$$

 Created by Python create_sdf_string function

 29 33  0  0  0  0  0  0  0  0999 V2000
   10.7215   -3.3326   17.6437 C   0  0  0  0  0  0  0  0  0  0  0  0
    9.9489   -3.4675   24.6487 N   0  0  0  0  0  0  0  0  0  0  0  0
   10.0172   -4.4740   17.4101 C   0  0  0  0  0  0  0  0  0  0  0  0
    6.9051   -7.9575   16.4222 C   0  0  0  0  0  0  0  0  0  0  0  0
    8.9969   -6.3552   17.9668 N   0  0  0  0  0  0  0  0  0  0  0  0
   10.6702   -3.9051   22.4070 C   0  0  0  0  0  0  0  0  0  0  0  0
   11.0625   -3.0028   18.8894 C   0  0  0  0  0  0  0  0  0  0  0  0
    5.6180   -7.9194   16.1754 O   0  0  0  0  0  0  0  0  0  0  0  0
    9.7259   -5.3080   18.4485 C   0  0  0  0  0  0  0  0  0  0  0  0
    9.4578   -5.0200   16.3036 N   0  0  0  0  0  0  0  0  0  0  0  0
    5.0287   -8.9365   16.8223 C   0  0  0  0  0  0  0  0  0  0  0  0
    8.7742   -6.1498   16.6764 C   0  0  0  0  0  0  0  0  0  0  0  0
   10.9418   -3.4032   21.2053 O   0  0  0  0  0  0  0  0  0  0  0  0
    1.4797   -8.6258   16.2950 C   0  0  0  0  0  0  0  0  0  0  0  0
    9.2861   -1.2743   25.3585 C   0  0  0  0  0  0  0  0  0  0  0  0
    1.8892  -10.3985   17.7511 N   0  0  0  0  0  0  0  0  0  0  0  0
    9.6210   -0.6952   24.0976 C   0  0  0  0  0  0  0  0  0  0  0  0
    7.0792   -9.0217   17.1429 C   0  0  0  0  0  0  0  0  0  0  0  0
    3.1713  -10.1816   17.6634 C   0  0  0  0  0  0  0  0  0  0  0  0
    2.7878   -8.3822   16.2137 C   0  0  0  0  0  0  0  0  0  0  0  0
    9.4601   -2.6590   25.6528 C   0  0  0  0  0  0  0  0  0  0  0  0
   10.1182   -1.5672   23.1165 C   0  0  0  0  0  0  0  0  0  0  0  0
    1.0552   -9.6360   17.0650 C   0  0  0  0  0  0  0  0  0  0  0  0
    3.6519   -9.1783   16.9039 C   0  0  0  0  0  0  0  0  0  0  0  0
    7.8675   -7.0096   15.9415 C   0  0  0  0  0  0  0  0  0  0  0  0
    5.9733   -9.6553   17.3832 N   0  0  0  0  0  0  0  0  0  0  0  0
   10.2411   -2.9363   23.4301 C   0  0  0  0  0  0  0  0  0  0  0  0
   10.7288   -3.8197   19.9525 C   0  0  0  0  0  0  0  0  0  0  0  0
   10.1189   -5.0054   19.6987 C   0  0  0  0  0  0  0  0  0  0  0  0
  1  3  4  0
  1  7  4  0
  2 21  4  0
  2 27  4  0
  3  9  4  0
  3 10  4  0
  4  8  4  0
  4 18  4  0
  4 25  1  0
  5  9  4  0
  5 12  4  0
  6 13  1  0
  6 27  1  0
  7 28  4  0
  8 11  4  0
  9 29  4  0
 10 12  4  0
 11 24  1  0
 11 26  4  0
 12 25  1  0
 13 28  1  0
 14 20  4  0
 14 23  4  0
 15 17  4  0
 15 21  4  0
 16 19  4  0
 16 23  4  0
 17 22  4  0
 18 26  4  0
 19 24  4  0
 20 24  4  0
 22 27  4  0
 28 29  4  0
M  END
$$$$

 Created by Python create_sdf_string function

 29 33  0  0  0  0  0  0  0  0999 V2000
   10.7215   -3.3326   17.6437 C   0  0  0  0  0  0  0  0  0  0  0  0
    9.9489   -3.4675   24.6487 N   0  0  0  0  0  0  0  0  0  0  0  0
   10.0172   -4.4740   17.4101 C   0  0  0  0  0  0  0  0  0  0  0  0
    6.9051   -7.9575   16.4222 C   0  0  0  0  0  0  0  0  0  0  0  0
    8.9969   -6.3552   17.9668 N   0  0  0  0  0  0  0  0  0  0  0  0
   10.6702   -3.9051   22.4070 C   0  0  0  0  0  0  0  0  0  0  0  0
   11.0625   -3.0028   18.8894 C   0  0  0  0  0  0  0  0  0  0  0  0
    5.6180   -7.9194   16.1754 O   0  0  0  0  0  0  0  0  0  0  0  0
    9.7259   -5.3080   18.4485 C   0  0  0  0  0  0  0  0  0  0  0  0
    9.4578   -5.0200   16.3036 N   0  0  0  0  0  0  0  0  0  0  0  0
    5.0287   -8.9365   16.8223 C   0  0  0  0  0  0  0  0  0  0  0  0
    8.7742   -6.1498   16.6764 C   0  0  0  0  0  0  0  0  0  0  0  0
   10.9418   -3.4032   21.2053 O   0  0  0  0  0  0  0  0  0  0  0  0
    1.4797   -8.6258   16.2950 C   0  0  0  0  0  0  0  0  0  0  0  0
    9.2861   -1.2743   25.3585 C   0  0  0  0  0  0  0  0  0  0  0  0
    1.8892  -10.3985   17.7511 N   0  0  0  0  0  0  0  0  0  0  0  0
    9.6210   -0.6952   24.0976 C   0  0  0  0  0  0  0  0  0  0  0  0
    7.0792   -9.0217   17.1429 C   0  0  0  0  0  0  0  0  0  0  0  0
    3.1713  -10.1816   17.6634 C   0  0  0  0  0  0  0  0  0  0  0  0
    2.7878   -8.3822   16.2137 C   0  0  0  0  0  0  0  0  0  0  0  0
    9.4601   -2.6590   25.6528 C   0  0  0  0  0  0  0  0  0  0  0  0
   10.1182   -1.5672   23.1165 C   0  0  0  0  0  0  0  0  0  0  0  0
    1.0552   -9.6360   17.0650 C   0  0  0  0  0  0  0  0  0  0  0  0
    3.6519   -9.1783   16.9039 C   0  0  0  0  0  0  0  0  0  0  0  0
    7.8675   -7.0096   15.9415 C   0  0  0  0  0  0  0  0  0  0  0  0
    5.9733   -9.6553   17.3832 N   0  0  0  0  0  0  0  0  0  0  0  0
   10.2411   -2.9363   23.4301 C   0  0  0  0  0  0  0  0  0  0  0  0
   10.7288   -3.8197   19.9525 C   0  0  0  0  0  0  0  0  0  0  0  0
   10.1189   -5.0054   19.6987 C   0  0  0  0  0  0  0  0  0  0  0  0
  1  3  4  0
  1  7  4  0
  2 21  4  0
  2 27  4  0
  3  9  4  0
  3 10  4  0
  4  8  4  0
  4 18  4  0
  4 25  1  0
  5  9  4  0
  5 12  4  0
  6 13  1  0
  6 27  1  0
  7 28  4  0
  8 11  4  0
  9 29  4  0
 10 12  4  0
 11 24  1  0
 11 26  4  0
 12 25  1  0
 13 28  1  0
 14 20  4  0
 14 23  4  0
 15 17  4  0
 15 21  4  0
 16 19  4  0
 16 23  4  0
 17 22  4  0
 18 26  4  0
 19 24  4  0
 20 24  4  0
 22 27  4  0
 28 29  4  0
M  END
$$$$

 Created by Python create_sdf_string function

 29 33  0  0  0  0  0  0  0  0999 V2000
   10.7215   -3.3326   17.6437 C   0  0  0  0  0  0  0  0  0  0  0  0
    9.9489   -3.4675   24.6487 N   0  0  0  0  0  0  0  0  0  0  0  0
   10.0172   -4.4740   17.4101 C   0  0  0  0  0  0  0  0  0  0  0  0
    6.9051   -7.9575   16.4222 C   0  0  0  0  0  0  0  0  0  0  0  0
    8.9969   -6.3552   17.9668 N   0  0  0  0  0  0  0  0  0  0  0  0
   10.6702   -3.9051   22.4070 C   0  0  0  0  0  0  0  0  0  0  0  0
   11.0625   -3.0028   18.8894 C   0  0  0  0  0  0  0  0  0  0  0  0
    5.6180   -7.9194   16.1754 O   0  0  0  0  0  0  0  0  0  0  0  0
    9.7259   -5.3080   18.4485 C   0  0  0  0  0  0  0  0  0  0  0  0
    9.4578   -5.0200   16.3036 N   0  0  0  0  0  0  0  0  0  0  0  0
    5.0287   -8.9365   16.8223 C   0  0  0  0  0  0  0  0  0  0  0  0
    8.7742   -6.1498   16.6764 C   0  0  0  0  0  0  0  0  0  0  0  0
   10.9418   -3.4032   21.2053 O   0  0  0  0  0  0  0  0  0  0  0  0
    1.4797   -8.6258   16.2950 C   0  0  0  0  0  0  0  0  0  0  0  0
    9.2861   -1.2743   25.3585 C   0  0  0  0  0  0  0  0  0  0  0  0
    1.8892  -10.3985   17.7511 N   0  0  0  0  0  0  0  0  0  0  0  0
    9.6210   -0.6952   24.0976 C   0  0  0  0  0  0  0  0  0  0  0  0
    7.0792   -9.0217   17.1429 C   0  0  0  0  0  0  0  0  0  0  0  0
    3.1713  -10.1816   17.6634 C   0  0  0  0  0  0  0  0  0  0  0  0
    2.7878   -8.3822   16.2137 C   0  0  0  0  0  0  0  0  0  0  0  0
    9.4601   -2.6590   25.6528 C   0  0  0  0  0  0  0  0  0  0  0  0
   10.1182   -1.5672   23.1165 C   0  0  0  0  0  0  0  0  0  0  0  0
    1.0552   -9.6360   17.0650 C   0  0  0  0  0  0  0  0  0  0  0  0
    3.6519   -9.1783   16.9039 C   0  0  0  0  0  0  0  0  0  0  0  0
    7.8675   -7.0096   15.9415 C   0  0  0  0  0  0  0  0  0  0  0  0
    5.9733   -9.6553   17.3832 N   0  0  0  0  0  0  0  0  0  0  0  0
   10.2411   -2.9363   23.4301 C   0  0  0  0  0  0  0  0  0  0  0  0
   10.7288   -3.8197   19.9525 C   0  0  0  0  0  0  0  0  0  0  0  0
   10.1189   -5.0054   19.6987 C   0  0  0  0  0  0  0  0  0  0  0  0
  1  3  4  0
  1  7  4  0
  2 21  4  0
  2 27  4  0
  3  9  4  0
  3 10  4  0
  4  8  4  0
  4 18  4  0
  4 25  1  0
  5  9  4  0
  5 12  4  0
  6 13  1  0
  6 27  1  0
  7 28  4  0
  8 11  4  0
  9 29  4  0
 10 12  4  0
 11 24  1  0
 11 26  4  0
 12 25  1  0
 13 28  1  0
 14 20  4  0
 14 23  4  0
 15 17  4  0
 15 21  4  0
 16 19  4  0
 16 23  4  0
 17 22  4  0
 18 26  4  0
 19 24  4  0
 20 24  4  0
 22 27  4  0
 28 29  4  0
M  END
$$$$

 Created by Python create_sdf_string function

 29 33  0  0  0  0  0  0  0  0999 V2000
   10.7215   -3.3326   17.6437 C   0  0  0  0  0  0  0  0  0  0  0  0
    9.9489   -3.4675   24.6487 N   0  0  0  0  0  0  0  0  0  0  0  0
   10.0172   -4.4740   17.4101 C   0  0  0  0  0  0  0  0  0  0  0  0
    6.9051   -7.9575   16.4222 C   0  0  0  0  0  0  0  0  0  0  0  0
    8.9969   -6.3552   17.9668 N   0  0  0  0  0  0  0  0  0  0  0  0
   10.6702   -3.9051   22.4070 C   0  0  0  0  0  0  0  0  0  0  0  0
   11.0625   -3.0028   18.8894 C   0  0  0  0  0  0  0  0  0  0  0  0
    5.6180   -7.9194   16.1754 O   0  0  0  0  0  0  0  0  0  0  0  0
    9.7259   -5.3080   18.4485 C   0  0  0  0  0  0  0  0  0  0  0  0
    9.4578   -5.0200   16.3036 N   0  0  0  0  0  0  0  0  0  0  0  0
    5.0287   -8.9365   16.8223 C   0  0  0  0  0  0  0  0  0  0  0  0
    8.7742   -6.1498   16.6764 C   0  0  0  0  0  0  0  0  0  0  0  0
   10.9418   -3.4032   21.2053 O   0  0  0  0  0  0  0  0  0  0  0  0
    1.4797   -8.6258   16.2950 C   0  0  0  0  0  0  0  0  0  0  0  0
    9.2861   -1.2743   25.3585 C   0  0  0  0  0  0  0  0  0  0  0  0
    1.8892  -10.3985   17.7511 N   0  0  0  0  0  0  0  0  0  0  0  0
    9.6210   -0.6952   24.0976 C   0  0  0  0  0  0  0  0  0  0  0  0
    7.0792   -9.0217   17.1429 C   0  0  0  0  0  0  0  0  0  0  0  0
    3.1713  -10.1816   17.6634 C   0  0  0  0  0  0  0  0  0  0  0  0
    2.7878   -8.3822   16.2137 C   0  0  0  0  0  0  0  0  0  0  0  0
    9.4601   -2.6590   25.6528 C   0  0  0  0  0  0  0  0  0  0  0  0
   10.1182   -1.5672   23.1165 C   0  0  0  0  0  0  0  0  0  0  0  0
    1.0552   -9.6360   17.0650 C   0  0  0  0  0  0  0  0  0  0  0  0
    3.6519   -9.1783   16.9039 C   0  0  0  0  0  0  0  0  0  0  0  0
    7.8675   -7.0096   15.9415 C   0  0  0  0  0  0  0  0  0  0  0  0
    5.9733   -9.6553   17.3832 N   0  0  0  0  0  0  0  0  0  0  0  0
   10.2411   -2.9363   23.4301 C   0  0  0  0  0  0  0  0  0  0  0  0
   10.7288   -3.8197   19.9525 C   0  0  0  0  0  0  0  0  0  0  0  0
   10.1189   -5.0054   19.6987 C   0  0  0  0  0  0  0  0  0  0  0  0
  1  3  4  0
  1  7  4  0
  2 21  4  0
  2 27  4  0
  3  9  4  0
  3 10  4  0
  4  8  4  0
  4 18  4  0
  4 25  1  0
  5  9  4  0
  5 12  4  0
  6 13  1  0
  6 27  1  0
  7 28  4  0
  8 11  4  0
  9 29  4  0
 10 12  4  0
 11 24  1  0
 11 26  4  0
 12 25  1  0
 13 28  1  0
 14 20  4  0
 14 23  4  0
 15 17  4  0
 15 21  4  0
 16 19  4  0
 16 23  4  0
 17 22  4  0
 18 26  4  0
 19 24  4  0
 20 24  4  0
 22 27  4  0
 28 29  4  0
M  END
$$$$

 Created by Python create_sdf_string function

 29 33  0  0  0  0  0  0  0  0999 V2000
   10.7215   -3.3326   17.6437 C   0  0  0  0  0  0  0  0  0  0  0  0
    9.9489   -3.4675   24.6487 N   0  0  0  0  0  0  0  0  0  0  0  0
   10.0172   -4.4740   17.4101 C   0  0  0  0  0  0  0  0  0  0  0  0
    6.9051   -7.9575   16.4222 C   0  0  0  0  0  0  0  0  0  0  0  0
    8.9969   -6.3552   17.9668 N   0  0  0  0  0  0  0  0  0  0  0  0
   10.6702   -3.9051   22.4070 C   0  0  0  0  0  0  0  0  0  0  0  0
   11.0625   -3.0028   18.8894 C   0  0  0  0  0  0  0  0  0  0  0  0
    5.6180   -7.9194   16.1754 O   0  0  0  0  0  0  0  0  0  0  0  0
    9.7259   -5.3080   18.4485 C   0  0  0  0  0  0  0  0  0  0  0  0
    9.4578   -5.0200   16.3036 N   0  0  0  0  0  0  0  0  0  0  0  0
    5.0287   -8.9365   16.8223 C   0  0  0  0  0  0  0  0  0  0  0  0
    8.7742   -6.1498   16.6764 C   0  0  0  0  0  0  0  0  0  0  0  0
   10.9418   -3.4032   21.2053 O   0  0  0  0  0  0  0  0  0  0  0  0
    1.4797   -8.6258   16.2950 C   0  0  0  0  0  0  0  0  0  0  0  0
    9.2861   -1.2743   25.3585 C   0  0  0  0  0  0  0  0  0  0  0  0
    1.8892  -10.3985   17.7511 N   0  0  0  0  0  0  0  0  0  0  0  0
    9.6210   -0.6952   24.0976 C   0  0  0  0  0  0  0  0  0  0  0  0
    7.0792   -9.0217   17.1429 C   0  0  0  0  0  0  0  0  0  0  0  0
    3.1713  -10.1816   17.6634 C   0  0  0  0  0  0  0  0  0  0  0  0
    2.7878   -8.3822   16.2137 C   0  0  0  0  0  0  0  0  0  0  0  0
    9.4601   -2.6590   25.6528 C   0  0  0  0  0  0  0  0  0  0  0  0
   10.1182   -1.5672   23.1165 C   0  0  0  0  0  0  0  0  0  0  0  0
    1.0552   -9.6360   17.0650 C   0  0  0  0  0  0  0  0  0  0  0  0
    3.6519   -9.1783   16.9039 C   0  0  0  0  0  0  0  0  0  0  0  0
    7.8675   -7.0096   15.9415 C   0  0  0  0  0  0  0  0  0  0  0  0
    5.9733   -9.6553   17.3832 N   0  0  0  0  0  0  0  0  0  0  0  0
   10.2411   -2.9363   23.4301 C   0  0  0  0  0  0  0  0  0  0  0  0
   10.7288   -3.8197   19.9525 C   0  0  0  0  0  0  0  0  0  0  0  0
   10.1189   -5.0054   19.6987 C   0  0  0  0  0  0  0  0  0  0  0  0
  1  3  4  0
  1  7  4  0
  2 21  4  0
  2 27  4  0
  3  9  4  0
  3 10  4  0
  4  8  4  0
  4 18  4  0
  4 25  1  0
  5  9  4  0
  5 12  4  0
  6 13  1  0
  6 27  1  0
  7 28  4  0
  8 11  4  0
  9 29  4  0
 10 12  4  0
 11 24  1  0
 11 26  4  0
 12 25  1  0
 13 28  1  0
 14 20  4  0
 14 23  4  0
 15 17  4  0
 15 21  4  0
 16 19  4  0
 16 23  4  0
 17 22  4  0
 18 26  4  0
 19 24  4  0
 20 24  4  0
 22 27  4  0
 28 29  4  0
M  END
$$$$

 Created by Python create_sdf_string function

 29 33  0  0  0  0  0  0  0  0999 V2000
   10.7215   -3.3326   17.6437 C   0  0  0  0  0  0  0  0  0  0  0  0
    9.9489   -3.4675   24.6487 N   0  0  0  0  0  0  0  0  0  0  0  0
   10.0172   -4.4740   17.4101 C   0  0  0  0  0  0  0  0  0  0  0  0
    6.9051   -7.9575   16.4222 C   0  0  0  0  0  0  0  0  0  0  0  0
    8.9969   -6.3552   17.9668 N   0  0  0  0  0  0  0  0  0  0  0  0
   10.6702   -3.9051   22.4070 C   0  0  0  0  0  0  0  0  0  0  0  0
   11.0625   -3.0028   18.8894 C   0  0  0  0  0  0  0  0  0  0  0  0
    5.6180   -7.9194   16.1754 O   0  0  0  0  0  0  0  0  0  0  0  0
    9.7259   -5.3080   18.4485 C   0  0  0  0  0  0  0  0  0  0  0  0
    9.4578   -5.0200   16.3036 N   0  0  0  0  0  0  0  0  0  0  0  0
    5.0287   -8.9365   16.8223 C   0  0  0  0  0  0  0  0  0  0  0  0
    8.7742   -6.1498   16.6764 C   0  0  0  0  0  0  0  0  0  0  0  0
   10.9418   -3.4032   21.2053 O   0  0  0  0  0  0  0  0  0  0  0  0
    1.4797   -8.6258   16.2950 C   0  0  0  0  0  0  0  0  0  0  0  0
    9.2861   -1.2743   25.3585 C   0  0  0  0  0  0  0  0  0  0  0  0
    1.8892  -10.3985   17.7511 N   0  0  0  0  0  0  0  0  0  0  0  0
    9.6210   -0.6952   24.0976 C   0  0  0  0  0  0  0  0  0  0  0  0
    7.0792   -9.0217   17.1429 C   0  0  0  0  0  0  0  0  0  0  0  0
    3.1713  -10.1816   17.6634 C   0  0  0  0  0  0  0  0  0  0  0  0
    2.7878   -8.3822   16.2137 C   0  0  0  0  0  0  0  0  0  0  0  0
    9.4601   -2.6590   25.6528 C   0  0  0  0  0  0  0  0  0  0  0  0
   10.1182   -1.5672   23.1165 C   0  0  0  0  0  0  0  0  0  0  0  0
    1.0552   -9.6360   17.0650 C   0  0  0  0  0  0  0  0  0  0  0  0
    3.6519   -9.1783   16.9039 C   0  0  0  0  0  0  0  0  0  0  0  0
    7.8675   -7.0096   15.9415 C   0  0  0  0  0  0  0  0  0  0  0  0
    5.9733   -9.6553   17.3832 N   0  0  0  0  0  0  0  0  0  0  0  0
   10.2411   -2.9363   23.4301 C   0  0  0  0  0  0  0  0  0  0  0  0
   10.7288   -3.8197   19.9525 C   0  0  0  0  0  0  0  0  0  0  0  0
   10.1189   -5.0054   19.6987 C   0  0  0  0  0  0  0  0  0  0  0  0
  1  3  4  0
  1  7  4  0
  2 21  4  0
  2 27  4  0
  3  9  4  0
  3 10  4  0
  4  8  4  0
  4 18  4  0
  4 25  1  0
  5  9  4  0
  5 12  4  0
  6 13  1  0
  6 27  1  0
  7 28  4  0
  8 11  4  0
  9 29  4  0
 10 12  4  0
 11 24  1  0
 11 26  4  0
 12 25  1  0
 13 28  1  0
 14 20  4  0
 14 23  4  0
 15 17  4  0
 15 21  4  0
 16 19  4  0
 16 23  4  0
 17 22  4  0
 18 26  4  0
 19 24  4  0
 20 24  4  0
 22 27  4  0
 28 29  4  0
M  END
$$$$

 Created by Python create_sdf_string function

 29 33  0  0  0  0  0  0  0  0999 V2000
   10.7215   -3.3326   17.6437 C   0  0  0  0  0  0  0  0  0  0  0  0
    9.9489   -3.4675   24.6487 N   0  0  0  0  0  0  0  0  0  0  0  0
   10.0172   -4.4740   17.4101 C   0  0  0  0  0  0  0  0  0  0  0  0
    6.9051   -7.9575   16.4222 C   0  0  0  0  0  0  0  0  0  0  0  0
    8.9969   -6.3552   17.9668 N   0  0  0  0  0  0  0  0  0  0  0  0
   10.6702   -3.9051   22.4070 C   0  0  0  0  0  0  0  0  0  0  0  0
   11.0625   -3.0028   18.8894 C   0  0  0  0  0  0  0  0  0  0  0  0
    5.6180   -7.9194   16.1754 O   0  0  0  0  0  0  0  0  0  0  0  0
    9.7259   -5.3080   18.4485 C   0  0  0  0  0  0  0  0  0  0  0  0
    9.4578   -5.0200   16.3036 N   0  0  0  0  0  0  0  0  0  0  0  0
    5.0287   -8.9365   16.8223 C   0  0  0  0  0  0  0  0  0  0  0  0
    8.7742   -6.1498   16.6764 C   0  0  0  0  0  0  0  0  0  0  0  0
   10.9418   -3.4032   21.2053 O   0  0  0  0  0  0  0  0  0  0  0  0
    1.4797   -8.6258   16.2950 C   0  0  0  0  0  0  0  0  0  0  0  0
    9.2861   -1.2743   25.3585 C   0  0  0  0  0  0  0  0  0  0  0  0
    1.8892  -10.3985   17.7511 N   0  0  0  0  0  0  0  0  0  0  0  0
    9.6210   -0.6952   24.0976 C   0  0  0  0  0  0  0  0  0  0  0  0
    7.0792   -9.0217   17.1429 C   0  0  0  0  0  0  0  0  0  0  0  0
    3.1713  -10.1816   17.6634 C   0  0  0  0  0  0  0  0  0  0  0  0
    2.7878   -8.3822   16.2137 C   0  0  0  0  0  0  0  0  0  0  0  0
    9.4601   -2.6590   25.6528 C   0  0  0  0  0  0  0  0  0  0  0  0
   10.1182   -1.5672   23.1165 C   0  0  0  0  0  0  0  0  0  0  0  0
    1.0552   -9.6360   17.0650 C   0  0  0  0  0  0  0  0  0  0  0  0
    3.6519   -9.1783   16.9039 C   0  0  0  0  0  0  0  0  0  0  0  0
    7.8675   -7.0096   15.9415 C   0  0  0  0  0  0  0  0  0  0  0  0
    5.9733   -9.6553   17.3832 N   0  0  0  0  0  0  0  0  0  0  0  0
   10.2411   -2.9363   23.4301 C   0  0  0  0  0  0  0  0  0  0  0  0
   10.7288   -3.8197   19.9525 C   0  0  0  0  0  0  0  0  0  0  0  0
   10.1189   -5.0054   19.6987 C   0  0  0  0  0  0  0  0  0  0  0  0
  1  3  4  0
  1  7  4  0
  2 21  4  0
  2 27  4  0
  3  9  4  0
  3 10  4  0
  4  8  4  0
  4 18  4  0
  4 25  1  0
  5  9  4  0
  5 12  4  0
  6 13  1  0
  6 27  1  0
  7 28  4  0
  8 11  4  0
  9 29  4  0
 10 12  4  0
 11 24  1  0
 11 26  4  0
 12 25  1  0
 13 28  1  0
 14 20  4  0
 14 23  4  0
 15 17  4  0
 15 21  4  0
 16 19  4  0
 16 23  4  0
 17 22  4  0
 18 26  4  0
 19 24  4  0
 20 24  4  0
 22 27  4  0
 28 29  4  0
M  END
$$$$

 Created by Python create_sdf_string function

 29 33  0  0  0  0  0  0  0  0999 V2000
   10.7215   -3.3326   17.6437 C   0  0  0  0  0  0  0  0  0  0  0  0
    9.9489   -3.4675   24.6487 N   0  0  0  0  0  0  0  0  0  0  0  0
   10.0172   -4.4740   17.4101 C   0  0  0  0  0  0  0  0  0  0  0  0
    6.9051   -7.9575   16.4222 C   0  0  0  0  0  0  0  0  0  0  0  0
    8.9969   -6.3552   17.9668 N   0  0  0  0  0  0  0  0  0  0  0  0
   10.6702   -3.9051   22.4070 C   0  0  0  0  0  0  0  0  0  0  0  0
   11.0625   -3.0028   18.8894 C   0  0  0  0  0  0  0  0  0  0  0  0
    5.6180   -7.9194   16.1754 O   0  0  0  0  0  0  0  0  0  0  0  0
    9.7259   -5.3080   18.4485 C   0  0  0  0  0  0  0  0  0  0  0  0
    9.4578   -5.0200   16.3036 N   0  0  0  0  0  0  0  0  0  0  0  0
    5.0287   -8.9365   16.8223 C   0  0  0  0  0  0  0  0  0  0  0  0
    8.7742   -6.1498   16.6764 C   0  0  0  0  0  0  0  0  0  0  0  0
   10.9418   -3.4032   21.2053 O   0  0  0  0  0  0  0  0  0  0  0  0
    1.4797   -8.6258   16.2950 C   0  0  0  0  0  0  0  0  0  0  0  0
    9.2861   -1.2743   25.3585 C   0  0  0  0  0  0  0  0  0  0  0  0
    1.8892  -10.3985   17.7511 N   0  0  0  0  0  0  0  0  0  0  0  0
    9.6210   -0.6952   24.0976 C   0  0  0  0  0  0  0  0  0  0  0  0
    7.0792   -9.0217   17.1429 C   0  0  0  0  0  0  0  0  0  0  0  0
    3.1713  -10.1816   17.6634 C   0  0  0  0  0  0  0  0  0  0  0  0
    2.7878   -8.3822   16.2137 C   0  0  0  0  0  0  0  0  0  0  0  0
    9.4601   -2.6590   25.6528 C   0  0  0  0  0  0  0  0  0  0  0  0
   10.1182   -1.5672   23.1165 C   0  0  0  0  0  0  0  0  0  0  0  0
    1.0552   -9.6360   17.0650 C   0  0  0  0  0  0  0  0  0  0  0  0
    3.6519   -9.1783   16.9039 C   0  0  0  0  0  0  0  0  0  0  0  0
    7.8675   -7.0096   15.9415 C   0  0  0  0  0  0  0  0  0  0  0  0
    5.9733   -9.6553   17.3832 N   0  0  0  0  0  0  0  0  0  0  0  0
   10.2411   -2.9363   23.4301 C   0  0  0  0  0  0  0  0  0  0  0  0
   10.7288   -3.8197   19.9525 C   0  0  0  0  0  0  0  0  0  0  0  0
   10.1189   -5.0054   19.6987 C   0  0  0  0  0  0  0  0  0  0  0  0
  1  3  4  0
  1  7  4  0
  2 21  4  0
  2 27  4  0
  3  9  4  0
  3 10  4  0
  4  8  4  0
  4 18  4  0
  4 25  1  0
  5  9  4  0
  5 12  4  0
  6 13  1  0
  6 27  1  0
  7 28  4  0
  8 11  4  0
  9 29  4  0
 10 12  4  0
 11 24  1  0
 11 26  4  0
 12 25  1  0
 13 28  1  0
 14 20  4  0
 14 23  4  0
 15 17  4  0
 15 21  4  0
 16 19  4  0
 16 23  4  0
 17 22  4  0
 18 26  4  0
 19 24  4  0
 20 24  4  0
 22 27  4  0
 28 29  4  0
M  END
$$$$

 Created by Python create_sdf_string function

 29 33  0  0  0  0  0  0  0  0999 V2000
   10.7215   -3.3326   17.6437 C   0  0  0  0  0  0  0  0  0  0  0  0
    9.9489   -3.4675   24.6487 N   0  0  0  0  0  0  0  0  0  0  0  0
   10.0172   -4.4740   17.4101 C   0  0  0  0  0  0  0  0  0  0  0  0
    6.9051   -7.9575   16.4222 C   0  0  0  0  0  0  0  0  0  0  0  0
    8.9969   -6.3552   17.9668 N   0  0  0  0  0  0  0  0  0  0  0  0
   10.6702   -3.9051   22.4070 C   0  0  0  0  0  0  0  0  0  0  0  0
   11.0625   -3.0028   18.8894 C   0  0  0  0  0  0  0  0  0  0  0  0
    5.6180   -7.9194   16.1754 O   0  0  0  0  0  0  0  0  0  0  0  0
    9.7259   -5.3080   18.4485 C   0  0  0  0  0  0  0  0  0  0  0  0
    9.4578   -5.0200   16.3036 N   0  0  0  0  0  0  0  0  0  0  0  0
    5.0287   -8.9365   16.8223 C   0  0  0  0  0  0  0  0  0  0  0  0
    8.7742   -6.1498   16.6764 C   0  0  0  0  0  0  0  0  0  0  0  0
   10.9418   -3.4032   21.2053 O   0  0  0  0  0  0  0  0  0  0  0  0
    1.4797   -8.6258   16.2950 C   0  0  0  0  0  0  0  0  0  0  0  0
    9.2861   -1.2743   25.3585 C   0  0  0  0  0  0  0  0  0  0  0  0
    1.8892  -10.3985   17.7511 N   0  0  0  0  0  0  0  0  0  0  0  0
    9.6210   -0.6952   24.0976 C   0  0  0  0  0  0  0  0  0  0  0  0
    7.0792   -9.0217   17.1429 C   0  0  0  0  0  0  0  0  0  0  0  0
    3.1713  -10.1816   17.6634 C   0  0  0  0  0  0  0  0  0  0  0  0
    2.7878   -8.3822   16.2137 C   0  0  0  0  0  0  0  0  0  0  0  0
    9.4601   -2.6590   25.6528 C   0  0  0  0  0  0  0  0  0  0  0  0
   10.1182   -1.5672   23.1165 C   0  0  0  0  0  0  0  0  0  0  0  0
    1.0552   -9.6360   17.0650 C   0  0  0  0  0  0  0  0  0  0  0  0
    3.6519   -9.1783   16.9039 C   0  0  0  0  0  0  0  0  0  0  0  0
    7.8675   -7.0096   15.9415 C   0  0  0  0  0  0  0  0  0  0  0  0
    5.9733   -9.6553   17.3832 N   0  0  0  0  0  0  0  0  0  0  0  0
   10.2411   -2.9363   23.4301 C   0  0  0  0  0  0  0  0  0  0  0  0
   10.7288   -3.8197   19.9525 C   0  0  0  0  0  0  0  0  0  0  0  0
   10.1189   -5.0054   19.6987 C   0  0  0  0  0  0  0  0  0  0  0  0
  1  3  4  0
  1  7  4  0
  2 21  4  0
  2 27  4  0
  3  9  4  0
  3 10  4  0
  4  8  4  0
  4 18  4  0
  4 25  1  0
  5  9  4  0
  5 12  4  0
  6 13  1  0
  6 27  1  0
  7 28  4  0
  8 11  4  0
  9 29  4  0
 10 12  4  0
 11 24  1  0
 11 26  4  0
 12 25  1  0
 13 28  1  0
 14 20  4  0
 14 23  4  0
 15 17  4  0
 15 21  4  0
 16 19  4  0
 16 23  4  0
 17 22  4  0
 18 26  4  0
 19 24  4  0
 20 24  4  0
 22 27  4  0
 28 29  4  0
M  END
$$$$

 Created by Python create_sdf_string function

 29 33  0  0  0  0  0  0  0  0999 V2000
   10.7215   -3.3326   17.6437 C   0  0  0  0  0  0  0  0  0  0  0  0
    9.9489   -3.4675   24.6487 N   0  0  0  0  0  0  0  0  0  0  0  0
   10.0172   -4.4740   17.4101 C   0  0  0  0  0  0  0  0  0  0  0  0
    6.9051   -7.9575   16.4222 C   0  0  0  0  0  0  0  0  0  0  0  0
    8.9969   -6.3552   17.9668 N   0  0  0  0  0  0  0  0  0  0  0  0
   10.6702   -3.9051   22.4070 C   0  0  0  0  0  0  0  0  0  0  0  0
   11.0625   -3.0028   18.8894 C   0  0  0  0  0  0  0  0  0  0  0  0
    5.6180   -7.9194   16.1754 O   0  0  0  0  0  0  0  0  0  0  0  0
    9.7259   -5.3080   18.4485 C   0  0  0  0  0  0  0  0  0  0  0  0
    9.4578   -5.0200   16.3036 N   0  0  0  0  0  0  0  0  0  0  0  0
    5.0287   -8.9365   16.8223 C   0  0  0  0  0  0  0  0  0  0  0  0
    8.7742   -6.1498   16.6764 C   0  0  0  0  0  0  0  0  0  0  0  0
   10.9418   -3.4032   21.2053 O   0  0  0  0  0  0  0  0  0  0  0  0
    1.4797   -8.6258   16.2950 C   0  0  0  0  0  0  0  0  0  0  0  0
    9.2861   -1.2743   25.3585 C   0  0  0  0  0  0  0  0  0  0  0  0
    1.8892  -10.3985   17.7511 N   0  0  0  0  0  0  0  0  0  0  0  0
    9.6210   -0.6952   24.0976 C   0  0  0  0  0  0  0  0  0  0  0  0
    7.0792   -9.0217   17.1429 C   0  0  0  0  0  0  0  0  0  0  0  0
    3.1713  -10.1816   17.6634 C   0  0  0  0  0  0  0  0  0  0  0  0
    2.7878   -8.3822   16.2137 C   0  0  0  0  0  0  0  0  0  0  0  0
    9.4601   -2.6590   25.6528 C   0  0  0  0  0  0  0  0  0  0  0  0
   10.1182   -1.5672   23.1165 C   0  0  0  0  0  0  0  0  0  0  0  0
    1.0552   -9.6360   17.0650 C   0  0  0  0  0  0  0  0  0  0  0  0
    3.6519   -9.1783   16.9039 C   0  0  0  0  0  0  0  0  0  0  0  0
    7.8675   -7.0096   15.9415 C   0  0  0  0  0  0  0  0  0  0  0  0
    5.9733   -9.6553   17.3832 N   0  0  0  0  0  0  0  0  0  0  0  0
   10.2411   -2.9363   23.4301 C   0  0  0  0  0  0  0  0  0  0  0  0
   10.7288   -3.8197   19.9525 C   0  0  0  0  0  0  0  0  0  0  0  0
   10.1189   -5.0054   19.6987 C   0  0  0  0  0  0  0  0  0  0  0  0
  1  3  4  0
  1  7  4  0
  2 21  4  0
  2 27  4  0
  3  9  4  0
  3 10  4  0
  4  8  4  0
  4 18  4  0
  4 25  1  0
  5  9  4  0
  5 12  4  0
  6 13  1  0
  6 27  1  0
  7 28  4  0
  8 11  4  0
  9 29  4  0
 10 12  4  0
 11 24  1  0
 11 26  4  0
 12 25  1  0
 13 28  1  0
 14 20  4  0
 14 23  4  0
 15 17  4  0
 15 21  4  0
 16 19  4  0
 16 23  4  0
 17 22  4  0
 18 26  4  0
 19 24  4  0
 20 24  4  0
 22 27  4  0
 28 29  4  0
M  END
$$$$

 Created by Python create_sdf_string function

 29 33  0  0  0  0  0  0  0  0999 V2000
   10.7215   -3.3326   17.6437 C   0  0  0  0  0  0  0  0  0  0  0  0
    9.9489   -3.4675   24.6487 N   0  0  0  0  0  0  0  0  0  0  0  0
   10.0172   -4.4740   17.4101 C   0  0  0  0  0  0  0  0  0  0  0  0
    6.9051   -7.9575   16.4222 C   0  0  0  0  0  0  0  0  0  0  0  0
    8.9969   -6.3552   17.9668 N   0  0  0  0  0  0  0  0  0  0  0  0
   10.6702   -3.9051   22.4070 C   0  0  0  0  0  0  0  0  0  0  0  0
   11.0625   -3.0028   18.8894 C   0  0  0  0  0  0  0  0  0  0  0  0
    5.6180   -7.9194   16.1754 O   0  0  0  0  0  0  0  0  0  0  0  0
    9.7259   -5.3080   18.4485 C   0  0  0  0  0  0  0  0  0  0  0  0
    9.4578   -5.0200   16.3036 N   0  0  0  0  0  0  0  0  0  0  0  0
    5.0287   -8.9365   16.8223 C   0  0  0  0  0  0  0  0  0  0  0  0
    8.7742   -6.1498   16.6764 C   0  0  0  0  0  0  0  0  0  0  0  0
   10.9418   -3.4032   21.2053 O   0  0  0  0  0  0  0  0  0  0  0  0
    1.4797   -8.6258   16.2950 C   0  0  0  0  0  0  0  0  0  0  0  0
    9.2861   -1.2743   25.3585 C   0  0  0  0  0  0  0  0  0  0  0  0
    1.8892  -10.3985   17.7511 N   0  0  0  0  0  0  0  0  0  0  0  0
    9.6210   -0.6952   24.0976 C   0  0  0  0  0  0  0  0  0  0  0  0
    7.0792   -9.0217   17.1429 C   0  0  0  0  0  0  0  0  0  0  0  0
    3.1713  -10.1816   17.6634 C   0  0  0  0  0  0  0  0  0  0  0  0
    2.7878   -8.3822   16.2137 C   0  0  0  0  0  0  0  0  0  0  0  0
    9.4601   -2.6590   25.6528 C   0  0  0  0  0  0  0  0  0  0  0  0
   10.1182   -1.5672   23.1165 C   0  0  0  0  0  0  0  0  0  0  0  0
    1.0552   -9.6360   17.0650 C   0  0  0  0  0  0  0  0  0  0  0  0
    3.6519   -9.1783   16.9039 C   0  0  0  0  0  0  0  0  0  0  0  0
    7.8675   -7.0096   15.9415 C   0  0  0  0  0  0  0  0  0  0  0  0
    5.9733   -9.6553   17.3832 N   0  0  0  0  0  0  0  0  0  0  0  0
   10.2411   -2.9363   23.4301 C   0  0  0  0  0  0  0  0  0  0  0  0
   10.7288   -3.8197   19.9525 C   0  0  0  0  0  0  0  0  0  0  0  0
   10.1189   -5.0054   19.6987 C   0  0  0  0  0  0  0  0  0  0  0  0
  1  3  4  0
  1  7  4  0
  2 21  4  0
  2 27  4  0
  3  9  4  0
  3 10  4  0
  4  8  4  0
  4 18  4  0
  4 25  1  0
  5  9  4  0
  5 12  4  0
  6 13  1  0
  6 27  1  0
  7 28  4  0
  8 11  4  0
  9 29  4  0
 10 12  4  0
 11 24  1  0
 11 26  4  0
 12 25  1  0
 13 28  1  0
 14 20  4  0
 14 23  4  0
 15 17  4  0
 15 21  4  0
 16 19  4  0
 16 23  4  0
 17 22  4  0
 18 26  4  0
 19 24  4  0
 20 24  4  0
 22 27  4  0
 28 29  4  0
M  END
$$$$

 Created by Python create_sdf_string function

 29 33  0  0  0  0  0  0  0  0999 V2000
   10.7215   -3.3326   17.6437 C   0  0  0  0  0  0  0  0  0  0  0  0
    9.9489   -3.4675   24.6487 N   0  0  0  0  0  0  0  0  0  0  0  0
   10.0172   -4.4740   17.4101 C   0  0  0  0  0  0  0  0  0  0  0  0
    6.9051   -7.9575   16.4222 C   0  0  0  0  0  0  0  0  0  0  0  0
    8.9969   -6.3552   17.9668 N   0  0  0  0  0  0  0  0  0  0  0  0
   10.6702   -3.9051   22.4070 C   0  0  0  0  0  0  0  0  0  0  0  0
   11.0625   -3.0028   18.8894 C   0  0  0  0  0  0  0  0  0  0  0  0
    5.6180   -7.9194   16.1754 O   0  0  0  0  0  0  0  0  0  0  0  0
    9.7259   -5.3080   18.4485 C   0  0  0  0  0  0  0  0  0  0  0  0
    9.4578   -5.0200   16.3036 N   0  0  0  0  0  0  0  0  0  0  0  0
    5.0287   -8.9365   16.8223 C   0  0  0  0  0  0  0  0  0  0  0  0
    8.7742   -6.1498   16.6764 C   0  0  0  0  0  0  0  0  0  0  0  0
   10.9418   -3.4032   21.2053 O   0  0  0  0  0  0  0  0  0  0  0  0
    1.4797   -8.6258   16.2950 C   0  0  0  0  0  0  0  0  0  0  0  0
    9.2861   -1.2743   25.3585 C   0  0  0  0  0  0  0  0  0  0  0  0
    1.8892  -10.3985   17.7511 N   0  0  0  0  0  0  0  0  0  0  0  0
    9.6210   -0.6952   24.0976 C   0  0  0  0  0  0  0  0  0  0  0  0
    7.0792   -9.0217   17.1429 C   0  0  0  0  0  0  0  0  0  0  0  0
    3.1713  -10.1816   17.6634 C   0  0  0  0  0  0  0  0  0  0  0  0
    2.7878   -8.3822   16.2137 C   0  0  0  0  0  0  0  0  0  0  0  0
    9.4601   -2.6590   25.6528 C   0  0  0  0  0  0  0  0  0  0  0  0
   10.1182   -1.5672   23.1165 C   0  0  0  0  0  0  0  0  0  0  0  0
    1.0552   -9.6360   17.0650 C   0  0  0  0  0  0  0  0  0  0  0  0
    3.6519   -9.1783   16.9039 C   0  0  0  0  0  0  0  0  0  0  0  0
    7.8675   -7.0096   15.9415 C   0  0  0  0  0  0  0  0  0  0  0  0
    5.9733   -9.6553   17.3832 N   0  0  0  0  0  0  0  0  0  0  0  0
   10.2411   -2.9363   23.4301 C   0  0  0  0  0  0  0  0  0  0  0  0
   10.7288   -3.8197   19.9525 C   0  0  0  0  0  0  0  0  0  0  0  0
   10.1189   -5.0054   19.6987 C   0  0  0  0  0  0  0  0  0  0  0  0
  1  3  4  0
  1  7  4  0
  2 21  4  0
  2 27  4  0
  3  9  4  0
  3 10  4  0
  4  8  4  0
  4 18  4  0
  4 25  1  0
  5  9  4  0
  5 12  4  0
  6 13  1  0
  6 27  1  0
  7 28  4  0
  8 11  4  0
  9 29  4  0
 10 12  4  0
 11 24  1  0
 11 26  4  0
 12 25  1  0
 13 28  1  0
 14 20  4  0
 14 23  4  0
 15 17  4  0
 15 21  4  0
 16 19  4  0
 16 23  4  0
 17 22  4  0
 18 26  4  0
 19 24  4  0
 20 24  4  0
 22 27  4  0
 28 29  4  0
M  END
$$$$

 Created by Python create_sdf_string function

 29 33  0  0  0  0  0  0  0  0999 V2000
   10.7215   -3.3326   17.6437 C   0  0  0  0  0  0  0  0  0  0  0  0
    9.9489   -3.4675   24.6487 N   0  0  0  0  0  0  0  0  0  0  0  0
   10.0172   -4.4740   17.4101 C   0  0  0  0  0  0  0  0  0  0  0  0
    6.9051   -7.9575   16.4222 C   0  0  0  0  0  0  0  0  0  0  0  0
    8.9969   -6.3552   17.9668 N   0  0  0  0  0  0  0  0  0  0  0  0
   10.6702   -3.9051   22.4070 C   0  0  0  0  0  0  0  0  0  0  0  0
   11.0625   -3.0028   18.8894 C   0  0  0  0  0  0  0  0  0  0  0  0
    5.6180   -7.9194   16.1754 O   0  0  0  0  0  0  0  0  0  0  0  0
    9.7259   -5.3080   18.4485 C   0  0  0  0  0  0  0  0  0  0  0  0
    9.4578   -5.0200   16.3036 N   0  0  0  0  0  0  0  0  0  0  0  0
    5.0287   -8.9365   16.8223 C   0  0  0  0  0  0  0  0  0  0  0  0
    8.7742   -6.1498   16.6764 C   0  0  0  0  0  0  0  0  0  0  0  0
   10.9418   -3.4032   21.2053 O   0  0  0  0  0  0  0  0  0  0  0  0
    1.4797   -8.6258   16.2950 C   0  0  0  0  0  0  0  0  0  0  0  0
    9.2861   -1.2743   25.3585 C   0  0  0  0  0  0  0  0  0  0  0  0
    1.8892  -10.3985   17.7511 N   0  0  0  0  0  0  0  0  0  0  0  0
    9.6210   -0.6952   24.0976 C   0  0  0  0  0  0  0  0  0  0  0  0
    7.0792   -9.0217   17.1429 C   0  0  0  0  0  0  0  0  0  0  0  0
    3.1713  -10.1816   17.6634 C   0  0  0  0  0  0  0  0  0  0  0  0
    2.7878   -8.3822   16.2137 C   0  0  0  0  0  0  0  0  0  0  0  0
    9.4601   -2.6590   25.6528 C   0  0  0  0  0  0  0  0  0  0  0  0
   10.1182   -1.5672   23.1165 C   0  0  0  0  0  0  0  0  0  0  0  0
    1.0552   -9.6360   17.0650 C   0  0  0  0  0  0  0  0  0  0  0  0
    3.6519   -9.1783   16.9039 C   0  0  0  0  0  0  0  0  0  0  0  0
    7.8675   -7.0096   15.9415 C   0  0  0  0  0  0  0  0  0  0  0  0
    5.9733   -9.6553   17.3832 N   0  0  0  0  0  0  0  0  0  0  0  0
   10.2411   -2.9363   23.4301 C   0  0  0  0  0  0  0  0  0  0  0  0
   10.7288   -3.8197   19.9525 C   0  0  0  0  0  0  0  0  0  0  0  0
   10.1189   -5.0054   19.6987 C   0  0  0  0  0  0  0  0  0  0  0  0
  1  3  4  0
  1  7  4  0
  2 21  4  0
  2 27  4  0
  3  9  4  0
  3 10  4  0
  4  8  4  0
  4 18  4  0
  4 25  1  0
  5  9  4  0
  5 12  4  0
  6 13  1  0
  6 27  1  0
  7 28  4  0
  8 11  4  0
  9 29  4  0
 10 12  4  0
 11 24  1  0
 11 26  4  0
 12 25  1  0
 13 28  1  0
 14 20  4  0
 14 23  4  0
 15 17  4  0
 15 21  4  0
 16 19  4  0
 16 23  4  0
 17 22  4  0
 18 26  4  0
 19 24  4  0
 20 24  4  0
 22 27  4  0
 28 29  4  0
M  END
$$$$

 Created by Python create_sdf_string function

 29 33  0  0  0  0  0  0  0  0999 V2000
   10.7215   -3.3326   17.6437 C   0  0  0  0  0  0  0  0  0  0  0  0
    9.9489   -3.4675   24.6487 N   0  0  0  0  0  0  0  0  0  0  0  0
   10.0172   -4.4740   17.4101 C   0  0  0  0  0  0  0  0  0  0  0  0
    6.9051   -7.9575   16.4222 C   0  0  0  0  0  0  0  0  0  0  0  0
    8.9969   -6.3552   17.9668 N   0  0  0  0  0  0  0  0  0  0  0  0
   10.6702   -3.9051   22.4070 C   0  0  0  0  0  0  0  0  0  0  0  0
   11.0625   -3.0028   18.8894 C   0  0  0  0  0  0  0  0  0  0  0  0
    5.6180   -7.9194   16.1754 O   0  0  0  0  0  0  0  0  0  0  0  0
    9.7259   -5.3080   18.4485 C   0  0  0  0  0  0  0  0  0  0  0  0
    9.4578   -5.0200   16.3036 N   0  0  0  0  0  0  0  0  0  0  0  0
    5.0287   -8.9365   16.8223 C   0  0  0  0  0  0  0  0  0  0  0  0
    8.7742   -6.1498   16.6764 C   0  0  0  0  0  0  0  0  0  0  0  0
   10.9418   -3.4032   21.2053 O   0  0  0  0  0  0  0  0  0  0  0  0
    1.4797   -8.6258   16.2950 C   0  0  0  0  0  0  0  0  0  0  0  0
    9.2861   -1.2743   25.3585 C   0  0  0  0  0  0  0  0  0  0  0  0
    1.8892  -10.3985   17.7511 N   0  0  0  0  0  0  0  0  0  0  0  0
    9.6210   -0.6952   24.0976 C   0  0  0  0  0  0  0  0  0  0  0  0
    7.0792   -9.0217   17.1429 C   0  0  0  0  0  0  0  0  0  0  0  0
    3.1713  -10.1816   17.6634 C   0  0  0  0  0  0  0  0  0  0  0  0
    2.7878   -8.3822   16.2137 C   0  0  0  0  0  0  0  0  0  0  0  0
    9.4601   -2.6590   25.6528 C   0  0  0  0  0  0  0  0  0  0  0  0
   10.1182   -1.5672   23.1165 C   0  0  0  0  0  0  0  0  0  0  0  0
    1.0552   -9.6360   17.0650 C   0  0  0  0  0  0  0  0  0  0  0  0
    3.6519   -9.1783   16.9039 C   0  0  0  0  0  0  0  0  0  0  0  0
    7.8675   -7.0096   15.9415 C   0  0  0  0  0  0  0  0  0  0  0  0
    5.9733   -9.6553   17.3832 N   0  0  0  0  0  0  0  0  0  0  0  0
   10.2411   -2.9363   23.4301 C   0  0  0  0  0  0  0  0  0  0  0  0
   10.7288   -3.8197   19.9525 C   0  0  0  0  0  0  0  0  0  0  0  0
   10.1189   -5.0054   19.6987 C   0  0  0  0  0  0  0  0  0  0  0  0
  1  3  4  0
  1  7  4  0
  2 21  4  0
  2 27  4  0
  3  9  4  0
  3 10  4  0
  4  8  4  0
  4 18  4  0
  4 25  1  0
  5  9  4  0
  5 12  4  0
  6 13  1  0
  6 27  1  0
  7 28  4  0
  8 11  4  0
  9 29  4  0
 10 12  4  0
 11 24  1  0
 11 26  4  0
 12 25  1  0
 13 28  1  0
 14 20  4  0
 14 23  4  0
 15 17  4  0
 15 21  4  0
 16 19  4  0
 16 23  4  0
 17 22  4  0
 18 26  4  0
 19 24  4  0
 20 24  4  0
 22 27  4  0
 28 29  4  0
M  END
$$$$

 Created by Python create_sdf_string function

 29 33  0  0  0  0  0  0  0  0999 V2000
   10.7215   -3.3326   17.6437 C   0  0  0  0  0  0  0  0  0  0  0  0
    9.9489   -3.4675   24.6487 N   0  0  0  0  0  0  0  0  0  0  0  0
   10.0172   -4.4740   17.4101 C   0  0  0  0  0  0  0  0  0  0  0  0
    6.9051   -7.9575   16.4222 C   0  0  0  0  0  0  0  0  0  0  0  0
    8.9969   -6.3552   17.9668 N   0  0  0  0  0  0  0  0  0  0  0  0
   10.6702   -3.9051   22.4070 C   0  0  0  0  0  0  0  0  0  0  0  0
   11.0625   -3.0028   18.8894 C   0  0  0  0  0  0  0  0  0  0  0  0
    5.6180   -7.9194   16.1754 O   0  0  0  0  0  0  0  0  0  0  0  0
    9.7259   -5.3080   18.4485 C   0  0  0  0  0  0  0  0  0  0  0  0
    9.4578   -5.0200   16.3036 N   0  0  0  0  0  0  0  0  0  0  0  0
    5.0287   -8.9365   16.8223 C   0  0  0  0  0  0  0  0  0  0  0  0
    8.7742   -6.1498   16.6764 C   0  0  0  0  0  0  0  0  0  0  0  0
   10.9418   -3.4032   21.2053 O   0  0  0  0  0  0  0  0  0  0  0  0
    1.4797   -8.6258   16.2950 C   0  0  0  0  0  0  0  0  0  0  0  0
    9.2861   -1.2743   25.3585 C   0  0  0  0  0  0  0  0  0  0  0  0
    1.8892  -10.3985   17.7511 N   0  0  0  0  0  0  0  0  0  0  0  0
    9.6210   -0.6952   24.0976 C   0  0  0  0  0  0  0  0  0  0  0  0
    7.0792   -9.0217   17.1429 C   0  0  0  0  0  0  0  0  0  0  0  0
    3.1713  -10.1816   17.6634 C   0  0  0  0  0  0  0  0  0  0  0  0
    2.7878   -8.3822   16.2137 C   0  0  0  0  0  0  0  0  0  0  0  0
    9.4601   -2.6590   25.6528 C   0  0  0  0  0  0  0  0  0  0  0  0
   10.1182   -1.5672   23.1165 C   0  0  0  0  0  0  0  0  0  0  0  0
    1.0552   -9.6360   17.0650 C   0  0  0  0  0  0  0  0  0  0  0  0
    3.6519   -9.1783   16.9039 C   0  0  0  0  0  0  0  0  0  0  0  0
    7.8675   -7.0096   15.9415 C   0  0  0  0  0  0  0  0  0  0  0  0
    5.9733   -9.6553   17.3832 N   0  0  0  0  0  0  0  0  0  0  0  0
   10.2411   -2.9363   23.4301 C   0  0  0  0  0  0  0  0  0  0  0  0
   10.7288   -3.8197   19.9525 C   0  0  0  0  0  0  0  0  0  0  0  0
   10.1189   -5.0054   19.6987 C   0  0  0  0  0  0  0  0  0  0  0  0
  1  3  4  0
  1  7  4  0
  2 21  4  0
  2 27  4  0
  3  9  4  0
  3 10  4  0
  4  8  4  0
  4 18  4  0
  4 25  1  0
  5  9  4  0
  5 12  4  0
  6 13  1  0
  6 27  1  0
  7 28  4  0
  8 11  4  0
  9 29  4  0
 10 12  4  0
 11 24  1  0
 11 26  4  0
 12 25  1  0
 13 28  1  0
 14 20  4  0
 14 23  4  0
 15 17  4  0
 15 21  4  0
 16 19  4  0
 16 23  4  0
 17 22  4  0
 18 26  4  0
 19 24  4  0
 20 24  4  0
 22 27  4  0
 28 29  4  0
M  END
$$$$

 Created by Python create_sdf_string function

 29 33  0  0  0  0  0  0  0  0999 V2000
   10.7215   -3.3326   17.6437 C   0  0  0  0  0  0  0  0  0  0  0  0
    9.9489   -3.4675   24.6487 N   0  0  0  0  0  0  0  0  0  0  0  0
   10.0172   -4.4740   17.4101 C   0  0  0  0  0  0  0  0  0  0  0  0
    6.9051   -7.9575   16.4222 C   0  0  0  0  0  0  0  0  0  0  0  0
    8.9969   -6.3552   17.9668 N   0  0  0  0  0  0  0  0  0  0  0  0
   10.6702   -3.9051   22.4070 C   0  0  0  0  0  0  0  0  0  0  0  0
   11.0625   -3.0028   18.8894 C   0  0  0  0  0  0  0  0  0  0  0  0
    5.6180   -7.9194   16.1754 O   0  0  0  0  0  0  0  0  0  0  0  0
    9.7259   -5.3080   18.4485 C   0  0  0  0  0  0  0  0  0  0  0  0
    9.4578   -5.0200   16.3036 N   0  0  0  0  0  0  0  0  0  0  0  0
    5.0287   -8.9365   16.8223 C   0  0  0  0  0  0  0  0  0  0  0  0
    8.7742   -6.1498   16.6764 C   0  0  0  0  0  0  0  0  0  0  0  0
   10.9418   -3.4032   21.2053 O   0  0  0  0  0  0  0  0  0  0  0  0
    1.4797   -8.6258   16.2950 C   0  0  0  0  0  0  0  0  0  0  0  0
    9.2861   -1.2743   25.3585 C   0  0  0  0  0  0  0  0  0  0  0  0
    1.8892  -10.3985   17.7511 N   0  0  0  0  0  0  0  0  0  0  0  0
    9.6210   -0.6952   24.0976 C   0  0  0  0  0  0  0  0  0  0  0  0
    7.0792   -9.0217   17.1429 C   0  0  0  0  0  0  0  0  0  0  0  0
    3.1713  -10.1816   17.6634 C   0  0  0  0  0  0  0  0  0  0  0  0
    2.7878   -8.3822   16.2137 C   0  0  0  0  0  0  0  0  0  0  0  0
    9.4601   -2.6590   25.6528 C   0  0  0  0  0  0  0  0  0  0  0  0
   10.1182   -1.5672   23.1165 C   0  0  0  0  0  0  0  0  0  0  0  0
    1.0552   -9.6360   17.0650 C   0  0  0  0  0  0  0  0  0  0  0  0
    3.6519   -9.1783   16.9039 C   0  0  0  0  0  0  0  0  0  0  0  0
    7.8675   -7.0096   15.9415 C   0  0  0  0  0  0  0  0  0  0  0  0
    5.9733   -9.6553   17.3832 N   0  0  0  0  0  0  0  0  0  0  0  0
   10.2411   -2.9363   23.4301 C   0  0  0  0  0  0  0  0  0  0  0  0
   10.7288   -3.8197   19.9525 C   0  0  0  0  0  0  0  0  0  0  0  0
   10.1189   -5.0054   19.6987 C   0  0  0  0  0  0  0  0  0  0  0  0
  1  3  4  0
  1  7  4  0
  2 21  4  0
  2 27  4  0
  3  9  4  0
  3 10  4  0
  4  8  4  0
  4 18  4  0
  4 25  1  0
  5  9  4  0
  5 12  4  0
  6 13  1  0
  6 27  1  0
  7 28  4  0
  8 11  4  0
  9 29  4  0
 10 12  4  0
 11 24  1  0
 11 26  4  0
 12 25  1  0
 13 28  1  0
 14 20  4  0
 14 23  4  0
 15 17  4  0
 15 21  4  0
 16 19  4  0
 16 23  4  0
 17 22  4  0
 18 26  4  0
 19 24  4  0
 20 24  4  0
 22 27  4  0
 28 29  4  0
M  END
$$$$

 Created by Python create_sdf_string function

 29 33  0  0  0  0  0  0  0  0999 V2000
   10.7215   -3.3326   17.6437 C   0  0  0  0  0  0  0  0  0  0  0  0
    9.9489   -3.4675   24.6487 N   0  0  0  0  0  0  0  0  0  0  0  0
   10.0172   -4.4740   17.4101 C   0  0  0  0  0  0  0  0  0  0  0  0
    6.9051   -7.9575   16.4222 C   0  0  0  0  0  0  0  0  0  0  0  0
    8.9969   -6.3552   17.9668 N   0  0  0  0  0  0  0  0  0  0  0  0
   10.6702   -3.9051   22.4070 C   0  0  0  0  0  0  0  0  0  0  0  0
   11.0625   -3.0028   18.8894 C   0  0  0  0  0  0  0  0  0  0  0  0
    5.6180   -7.9194   16.1754 O   0  0  0  0  0  0  0  0  0  0  0  0
    9.7259   -5.3080   18.4485 C   0  0  0  0  0  0  0  0  0  0  0  0
    9.4578   -5.0200   16.3036 N   0  0  0  0  0  0  0  0  0  0  0  0
    5.0287   -8.9365   16.8223 C   0  0  0  0  0  0  0  0  0  0  0  0
    8.7742   -6.1498   16.6764 C   0  0  0  0  0  0  0  0  0  0  0  0
   10.9418   -3.4032   21.2053 O   0  0  0  0  0  0  0  0  0  0  0  0
    1.4797   -8.6258   16.2950 C   0  0  0  0  0  0  0  0  0  0  0  0
    9.2861   -1.2743   25.3585 C   0  0  0  0  0  0  0  0  0  0  0  0
    1.8892  -10.3985   17.7511 N   0  0  0  0  0  0  0  0  0  0  0  0
    9.6210   -0.6952   24.0976 C   0  0  0  0  0  0  0  0  0  0  0  0
    7.0792   -9.0217   17.1429 C   0  0  0  0  0  0  0  0  0  0  0  0
    3.1713  -10.1816   17.6634 C   0  0  0  0  0  0  0  0  0  0  0  0
    2.7878   -8.3822   16.2137 C   0  0  0  0  0  0  0  0  0  0  0  0
    9.4601   -2.6590   25.6528 C   0  0  0  0  0  0  0  0  0  0  0  0
   10.1182   -1.5672   23.1165 C   0  0  0  0  0  0  0  0  0  0  0  0
    1.0552   -9.6360   17.0650 C   0  0  0  0  0  0  0  0  0  0  0  0
    3.6519   -9.1783   16.9039 C   0  0  0  0  0  0  0  0  0  0  0  0
    7.8675   -7.0096   15.9415 C   0  0  0  0  0  0  0  0  0  0  0  0
    5.9733   -9.6553   17.3832 N   0  0  0  0  0  0  0  0  0  0  0  0
   10.2411   -2.9363   23.4301 C   0  0  0  0  0  0  0  0  0  0  0  0
   10.7288   -3.8197   19.9525 C   0  0  0  0  0  0  0  0  0  0  0  0
   10.1189   -5.0054   19.6987 C   0  0  0  0  0  0  0  0  0  0  0  0
  1  3  4  0
  1  7  4  0
  2 21  4  0
  2 27  4  0
  3  9  4  0
  3 10  4  0
  4  8  4  0
  4 18  4  0
  4 25  1  0
  5  9  4  0
  5 12  4  0
  6 13  1  0
  6 27  1  0
  7 28  4  0
  8 11  4  0
  9 29  4  0
 10 12  4  0
 11 24  1  0
 11 26  4  0
 12 25  1  0
 13 28  1  0
 14 20  4  0
 14 23  4  0
 15 17  4  0
 15 21  4  0
 16 19  4  0
 16 23  4  0
 17 22  4  0
 18 26  4  0
 19 24  4  0
 20 24  4  0
 22 27  4  0
 28 29  4  0
M  END
$$$$

 Created by Python create_sdf_string function

 29 33  0  0  0  0  0  0  0  0999 V2000
   10.7215   -3.3326   17.6437 C   0  0  0  0  0  0  0  0  0  0  0  0
    9.9489   -3.4675   24.6487 N   0  0  0  0  0  0  0  0  0  0  0  0
   10.0172   -4.4740   17.4101 C   0  0  0  0  0  0  0  0  0  0  0  0
    6.9051   -7.9575   16.4222 C   0  0  0  0  0  0  0  0  0  0  0  0
    8.9969   -6.3552   17.9668 N   0  0  0  0  0  0  0  0  0  0  0  0
   10.6702   -3.9051   22.4070 C   0  0  0  0  0  0  0  0  0  0  0  0
   11.0625   -3.0028   18.8894 C   0  0  0  0  0  0  0  0  0  0  0  0
    5.6180   -7.9194   16.1754 O   0  0  0  0  0  0  0  0  0  0  0  0
    9.7259   -5.3080   18.4485 C   0  0  0  0  0  0  0  0  0  0  0  0
    9.4578   -5.0200   16.3036 N   0  0  0  0  0  0  0  0  0  0  0  0
    5.0287   -8.9365   16.8223 C   0  0  0  0  0  0  0  0  0  0  0  0
    8.7742   -6.1498   16.6764 C   0  0  0  0  0  0  0  0  0  0  0  0
   10.9418   -3.4032   21.2053 O   0  0  0  0  0  0  0  0  0  0  0  0
    1.4797   -8.6258   16.2950 C   0  0  0  0  0  0  0  0  0  0  0  0
    9.2861   -1.2743   25.3585 C   0  0  0  0  0  0  0  0  0  0  0  0
    1.8892  -10.3985   17.7511 N   0  0  0  0  0  0  0  0  0  0  0  0
    9.6210   -0.6952   24.0976 C   0  0  0  0  0  0  0  0  0  0  0  0
    7.0792   -9.0217   17.1429 C   0  0  0  0  0  0  0  0  0  0  0  0
    3.1713  -10.1816   17.6634 C   0  0  0  0  0  0  0  0  0  0  0  0
    2.7878   -8.3822   16.2137 C   0  0  0  0  0  0  0  0  0  0  0  0
    9.4601   -2.6590   25.6528 C   0  0  0  0  0  0  0  0  0  0  0  0
   10.1182   -1.5672   23.1165 C   0  0  0  0  0  0  0  0  0  0  0  0
    1.0552   -9.6360   17.0650 C   0  0  0  0  0  0  0  0  0  0  0  0
    3.6519   -9.1783   16.9039 C   0  0  0  0  0  0  0  0  0  0  0  0
    7.8675   -7.0096   15.9415 C   0  0  0  0  0  0  0  0  0  0  0  0
    5.9733   -9.6553   17.3832 N   0  0  0  0  0  0  0  0  0  0  0  0
   10.2411   -2.9363   23.4301 C   0  0  0  0  0  0  0  0  0  0  0  0
   10.7288   -3.8197   19.9525 C   0  0  0  0  0  0  0  0  0  0  0  0
   10.1189   -5.0054   19.6987 C   0  0  0  0  0  0  0  0  0  0  0  0
  1  3  4  0
  1  7  4  0
  2 21  4  0
  2 27  4  0
  3  9  4  0
  3 10  4  0
  4  8  4  0
  4 18  4  0
  4 25  1  0
  5  9  4  0
  5 12  4  0
  6 13  1  0
  6 27  1  0
  7 28  4  0
  8 11  4  0
  9 29  4  0
 10 12  4  0
 11 24  1  0
 11 26  4  0
 12 25  1  0
 13 28  1  0
 14 20  4  0
 14 23  4  0
 15 17  4  0
 15 21  4  0
 16 19  4  0
 16 23  4  0
 17 22  4  0
 18 26  4  0
 19 24  4  0
 20 24  4  0
 22 27  4  0
 28 29  4  0
M  END
$$$$

 Created by Python create_sdf_string function

 29 33  0  0  0  0  0  0  0  0999 V2000
   10.7215   -3.3326   17.6437 C   0  0  0  0  0  0  0  0  0  0  0  0
    9.9489   -3.4675   24.6487 N   0  0  0  0  0  0  0  0  0  0  0  0
   10.0172   -4.4740   17.4101 C   0  0  0  0  0  0  0  0  0  0  0  0
    6.9051   -7.9575   16.4222 C   0  0  0  0  0  0  0  0  0  0  0  0
    8.9969   -6.3552   17.9668 N   0  0  0  0  0  0  0  0  0  0  0  0
   10.6702   -3.9051   22.4070 C   0  0  0  0  0  0  0  0  0  0  0  0
   11.0625   -3.0028   18.8894 C   0  0  0  0  0  0  0  0  0  0  0  0
    5.6180   -7.9194   16.1754 O   0  0  0  0  0  0  0  0  0  0  0  0
    9.7259   -5.3080   18.4485 C   0  0  0  0  0  0  0  0  0  0  0  0
    9.4578   -5.0200   16.3036 N   0  0  0  0  0  0  0  0  0  0  0  0
    5.0287   -8.9365   16.8223 C   0  0  0  0  0  0  0  0  0  0  0  0
    8.7742   -6.1498   16.6764 C   0  0  0  0  0  0  0  0  0  0  0  0
   10.9418   -3.4032   21.2053 O   0  0  0  0  0  0  0  0  0  0  0  0
    1.4797   -8.6258   16.2950 C   0  0  0  0  0  0  0  0  0  0  0  0
    9.2861   -1.2743   25.3585 C   0  0  0  0  0  0  0  0  0  0  0  0
    1.8892  -10.3985   17.7511 N   0  0  0  0  0  0  0  0  0  0  0  0
    9.6210   -0.6952   24.0976 C   0  0  0  0  0  0  0  0  0  0  0  0
    7.0792   -9.0217   17.1429 C   0  0  0  0  0  0  0  0  0  0  0  0
    3.1713  -10.1816   17.6634 C   0  0  0  0  0  0  0  0  0  0  0  0
    2.7878   -8.3822   16.2137 C   0  0  0  0  0  0  0  0  0  0  0  0
    9.4601   -2.6590   25.6528 C   0  0  0  0  0  0  0  0  0  0  0  0
   10.1182   -1.5672   23.1165 C   0  0  0  0  0  0  0  0  0  0  0  0
    1.0552   -9.6360   17.0650 C   0  0  0  0  0  0  0  0  0  0  0  0
    3.6519   -9.1783   16.9039 C   0  0  0  0  0  0  0  0  0  0  0  0
    7.8675   -7.0096   15.9415 C   0  0  0  0  0  0  0  0  0  0  0  0
    5.9733   -9.6553   17.3832 N   0  0  0  0  0  0  0  0  0  0  0  0
   10.2411   -2.9363   23.4301 C   0  0  0  0  0  0  0  0  0  0  0  0
   10.7288   -3.8197   19.9525 C   0  0  0  0  0  0  0  0  0  0  0  0
   10.1189   -5.0054   19.6987 C   0  0  0  0  0  0  0  0  0  0  0  0
  1  3  4  0
  1  7  4  0
  2 21  4  0
  2 27  4  0
  3  9  4  0
  3 10  4  0
  4  8  4  0
  4 18  4  0
  4 25  1  0
  5  9  4  0
  5 12  4  0
  6 13  1  0
  6 27  1  0
  7 28  4  0
  8 11  4  0
  9 29  4  0
 10 12  4  0
 11 24  1  0
 11 26  4  0
 12 25  1  0
 13 28  1  0
 14 20  4  0
 14 23  4  0
 15 17  4  0
 15 21  4  0
 16 19  4  0
 16 23  4  0
 17 22  4  0
 18 26  4  0
 19 24  4  0
 20 24  4  0
 22 27  4  0
 28 29  4  0
M  END
$$$$

 Created by Python create_sdf_string function

 29 33  0  0  0  0  0  0  0  0999 V2000
   10.7215   -3.3326   17.6437 C   0  0  0  0  0  0  0  0  0  0  0  0
    9.9489   -3.4675   24.6487 N   0  0  0  0  0  0  0  0  0  0  0  0
   10.0172   -4.4740   17.4101 C   0  0  0  0  0  0  0  0  0  0  0  0
    6.9051   -7.9575   16.4222 C   0  0  0  0  0  0  0  0  0  0  0  0
    8.9969   -6.3552   17.9668 N   0  0  0  0  0  0  0  0  0  0  0  0
   10.6702   -3.9051   22.4070 C   0  0  0  0  0  0  0  0  0  0  0  0
   11.0625   -3.0028   18.8894 C   0  0  0  0  0  0  0  0  0  0  0  0
    5.6180   -7.9194   16.1754 O   0  0  0  0  0  0  0  0  0  0  0  0
    9.7259   -5.3080   18.4485 C   0  0  0  0  0  0  0  0  0  0  0  0
    9.4578   -5.0200   16.3036 N   0  0  0  0  0  0  0  0  0  0  0  0
    5.0287   -8.9365   16.8223 C   0  0  0  0  0  0  0  0  0  0  0  0
    8.7742   -6.1498   16.6764 C   0  0  0  0  0  0  0  0  0  0  0  0
   10.9418   -3.4032   21.2053 O   0  0  0  0  0  0  0  0  0  0  0  0
    1.4797   -8.6258   16.2950 C   0  0  0  0  0  0  0  0  0  0  0  0
    9.2861   -1.2743   25.3585 C   0  0  0  0  0  0  0  0  0  0  0  0
    1.8892  -10.3985   17.7511 N   0  0  0  0  0  0  0  0  0  0  0  0
    9.6210   -0.6952   24.0976 C   0  0  0  0  0  0  0  0  0  0  0  0
    7.0792   -9.0217   17.1429 C   0  0  0  0  0  0  0  0  0  0  0  0
    3.1713  -10.1816   17.6634 C   0  0  0  0  0  0  0  0  0  0  0  0
    2.7878   -8.3822   16.2137 C   0  0  0  0  0  0  0  0  0  0  0  0
    9.4601   -2.6590   25.6528 C   0  0  0  0  0  0  0  0  0  0  0  0
   10.1182   -1.5672   23.1165 C   0  0  0  0  0  0  0  0  0  0  0  0
    1.0552   -9.6360   17.0650 C   0  0  0  0  0  0  0  0  0  0  0  0
    3.6519   -9.1783   16.9039 C   0  0  0  0  0  0  0  0  0  0  0  0
    7.8675   -7.0096   15.9415 C   0  0  0  0  0  0  0  0  0  0  0  0
    5.9733   -9.6553   17.3832 N   0  0  0  0  0  0  0  0  0  0  0  0
   10.2411   -2.9363   23.4301 C   0  0  0  0  0  0  0  0  0  0  0  0
   10.7288   -3.8197   19.9525 C   0  0  0  0  0  0  0  0  0  0  0  0
   10.1189   -5.0054   19.6987 C   0  0  0  0  0  0  0  0  0  0  0  0
  1  3  4  0
  1  7  4  0
  2 21  4  0
  2 27  4  0
  3  9  4  0
  3 10  4  0
  4  8  4  0
  4 18  4  0
  4 25  1  0
  5  9  4  0
  5 12  4  0
  6 13  1  0
  6 27  1  0
  7 28  4  0
  8 11  4  0
  9 29  4  0
 10 12  4  0
 11 24  1  0
 11 26  4  0
 12 25  1  0
 13 28  1  0
 14 20  4  0
 14 23  4  0
 15 17  4  0
 15 21  4  0
 16 19  4  0
 16 23  4  0
 17 22  4  0
 18 26  4  0
 19 24  4  0
 20 24  4  0
 22 27  4  0
 28 29  4  0
M  END
$$$$

 Created by Python create_sdf_string function

 29 33  0  0  0  0  0  0  0  0999 V2000
   10.7215   -3.3326   17.6437 C   0  0  0  0  0  0  0  0  0  0  0  0
    9.9489   -3.4675   24.6487 N   0  0  0  0  0  0  0  0  0  0  0  0
   10.0172   -4.4740   17.4101 C   0  0  0  0  0  0  0  0  0  0  0  0
    6.9051   -7.9575   16.4222 C   0  0  0  0  0  0  0  0  0  0  0  0
    8.9969   -6.3552   17.9668 N   0  0  0  0  0  0  0  0  0  0  0  0
   10.6702   -3.9051   22.4070 C   0  0  0  0  0  0  0  0  0  0  0  0
   11.0625   -3.0028   18.8894 C   0  0  0  0  0  0  0  0  0  0  0  0
    5.6180   -7.9194   16.1754 O   0  0  0  0  0  0  0  0  0  0  0  0
    9.7259   -5.3080   18.4485 C   0  0  0  0  0  0  0  0  0  0  0  0
    9.4578   -5.0200   16.3036 N   0  0  0  0  0  0  0  0  0  0  0  0
    5.0287   -8.9365   16.8223 C   0  0  0  0  0  0  0  0  0  0  0  0
    8.7742   -6.1498   16.6764 C   0  0  0  0  0  0  0  0  0  0  0  0
   10.9418   -3.4032   21.2053 O   0  0  0  0  0  0  0  0  0  0  0  0
    1.4797   -8.6258   16.2950 C   0  0  0  0  0  0  0  0  0  0  0  0
    9.2861   -1.2743   25.3585 C   0  0  0  0  0  0  0  0  0  0  0  0
    1.8892  -10.3985   17.7511 N   0  0  0  0  0  0  0  0  0  0  0  0
    9.6210   -0.6952   24.0976 C   0  0  0  0  0  0  0  0  0  0  0  0
    7.0792   -9.0217   17.1429 C   0  0  0  0  0  0  0  0  0  0  0  0
    3.1713  -10.1816   17.6634 C   0  0  0  0  0  0  0  0  0  0  0  0
    2.7878   -8.3822   16.2137 C   0  0  0  0  0  0  0  0  0  0  0  0
    9.4601   -2.6590   25.6528 C   0  0  0  0  0  0  0  0  0  0  0  0
   10.1182   -1.5672   23.1165 C   0  0  0  0  0  0  0  0  0  0  0  0
    1.0552   -9.6360   17.0650 C   0  0  0  0  0  0  0  0  0  0  0  0
    3.6519   -9.1783   16.9039 C   0  0  0  0  0  0  0  0  0  0  0  0
    7.8675   -7.0096   15.9415 C   0  0  0  0  0  0  0  0  0  0  0  0
    5.9733   -9.6553   17.3832 N   0  0  0  0  0  0  0  0  0  0  0  0
   10.2411   -2.9363   23.4301 C   0  0  0  0  0  0  0  0  0  0  0  0
   10.7288   -3.8197   19.9525 C   0  0  0  0  0  0  0  0  0  0  0  0
   10.1189   -5.0054   19.6987 C   0  0  0  0  0  0  0  0  0  0  0  0
  1  3  4  0
  1  7  4  0
  2 21  4  0
  2 27  4  0
  3  9  4  0
  3 10  4  0
  4  8  4  0
  4 18  4  0
  4 25  1  0
  5  9  4  0
  5 12  4  0
  6 13  1  0
  6 27  1  0
  7 28  4  0
  8 11  4  0
  9 29  4  0
 10 12  4  0
 11 24  1  0
 11 26  4  0
 12 25  1  0
 13 28  1  0
 14 20  4  0
 14 23  4  0
 15 17  4  0
 15 21  4  0
 16 19  4  0
 16 23  4  0
 17 22  4  0
 18 26  4  0
 19 24  4  0
 20 24  4  0
 22 27  4  0
 28 29  4  0
M  END
$$$$

 Created by Python create_sdf_string function

 29 33  0  0  0  0  0  0  0  0999 V2000
   10.7215   -3.3326   17.6437 C   0  0  0  0  0  0  0  0  0  0  0  0
    9.9489   -3.4675   24.6487 N   0  0  0  0  0  0  0  0  0  0  0  0
   10.0172   -4.4740   17.4101 C   0  0  0  0  0  0  0  0  0  0  0  0
    6.9051   -7.9575   16.4222 C   0  0  0  0  0  0  0  0  0  0  0  0
    8.9969   -6.3552   17.9668 N   0  0  0  0  0  0  0  0  0  0  0  0
   10.6702   -3.9051   22.4070 C   0  0  0  0  0  0  0  0  0  0  0  0
   11.0625   -3.0028   18.8894 C   0  0  0  0  0  0  0  0  0  0  0  0
    5.6180   -7.9194   16.1754 O   0  0  0  0  0  0  0  0  0  0  0  0
    9.7259   -5.3080   18.4485 C   0  0  0  0  0  0  0  0  0  0  0  0
    9.4578   -5.0200   16.3036 N   0  0  0  0  0  0  0  0  0  0  0  0
    5.0287   -8.9365   16.8223 C   0  0  0  0  0  0  0  0  0  0  0  0
    8.7742   -6.1498   16.6764 C   0  0  0  0  0  0  0  0  0  0  0  0
   10.9418   -3.4032   21.2053 O   0  0  0  0  0  0  0  0  0  0  0  0
    1.4797   -8.6258   16.2950 C   0  0  0  0  0  0  0  0  0  0  0  0
    9.2861   -1.2743   25.3585 C   0  0  0  0  0  0  0  0  0  0  0  0
    1.8892  -10.3985   17.7511 N   0  0  0  0  0  0  0  0  0  0  0  0
    9.6210   -0.6952   24.0976 C   0  0  0  0  0  0  0  0  0  0  0  0
    7.0792   -9.0217   17.1429 C   0  0  0  0  0  0  0  0  0  0  0  0
    3.1713  -10.1816   17.6634 C   0  0  0  0  0  0  0  0  0  0  0  0
    2.7878   -8.3822   16.2137 C   0  0  0  0  0  0  0  0  0  0  0  0
    9.4601   -2.6590   25.6528 C   0  0  0  0  0  0  0  0  0  0  0  0
   10.1182   -1.5672   23.1165 C   0  0  0  0  0  0  0  0  0  0  0  0
    1.0552   -9.6360   17.0650 C   0  0  0  0  0  0  0  0  0  0  0  0
    3.6519   -9.1783   16.9039 C   0  0  0  0  0  0  0  0  0  0  0  0
    7.8675   -7.0096   15.9415 C   0  0  0  0  0  0  0  0  0  0  0  0
    5.9733   -9.6553   17.3832 N   0  0  0  0  0  0  0  0  0  0  0  0
   10.2411   -2.9363   23.4301 C   0  0  0  0  0  0  0  0  0  0  0  0
   10.7288   -3.8197   19.9525 C   0  0  0  0  0  0  0  0  0  0  0  0
   10.1189   -5.0054   19.6987 C   0  0  0  0  0  0  0  0  0  0  0  0
  1  3  4  0
  1  7  4  0
  2 21  4  0
  2 27  4  0
  3  9  4  0
  3 10  4  0
  4  8  4  0
  4 18  4  0
  4 25  1  0
  5  9  4  0
  5 12  4  0
  6 13  1  0
  6 27  1  0
  7 28  4  0
  8 11  4  0
  9 29  4  0
 10 12  4  0
 11 24  1  0
 11 26  4  0
 12 25  1  0
 13 28  1  0
 14 20  4  0
 14 23  4  0
 15 17  4  0
 15 21  4  0
 16 19  4  0
 16 23  4  0
 17 22  4  0
 18 26  4  0
 19 24  4  0
 20 24  4  0
 22 27  4  0
 28 29  4  0
M  END
$$$$

 Created by Python create_sdf_string function

 29 33  0  0  0  0  0  0  0  0999 V2000
   10.7215   -3.3326   17.6437 C   0  0  0  0  0  0  0  0  0  0  0  0
    9.9489   -3.4675   24.6487 N   0  0  0  0  0  0  0  0  0  0  0  0
   10.0172   -4.4740   17.4101 C   0  0  0  0  0  0  0  0  0  0  0  0
    6.9051   -7.9575   16.4222 C   0  0  0  0  0  0  0  0  0  0  0  0
    8.9969   -6.3552   17.9668 N   0  0  0  0  0  0  0  0  0  0  0  0
   10.6702   -3.9051   22.4070 C   0  0  0  0  0  0  0  0  0  0  0  0
   11.0625   -3.0028   18.8894 C   0  0  0  0  0  0  0  0  0  0  0  0
    5.6180   -7.9194   16.1754 O   0  0  0  0  0  0  0  0  0  0  0  0
    9.7259   -5.3080   18.4485 C   0  0  0  0  0  0  0  0  0  0  0  0
    9.4578   -5.0200   16.3036 N   0  0  0  0  0  0  0  0  0  0  0  0
    5.0287   -8.9365   16.8223 C   0  0  0  0  0  0  0  0  0  0  0  0
    8.7742   -6.1498   16.6764 C   0  0  0  0  0  0  0  0  0  0  0  0
   10.9418   -3.4032   21.2053 O   0  0  0  0  0  0  0  0  0  0  0  0
    1.4797   -8.6258   16.2950 C   0  0  0  0  0  0  0  0  0  0  0  0
    9.2861   -1.2743   25.3585 C   0  0  0  0  0  0  0  0  0  0  0  0
    1.8892  -10.3985   17.7511 N   0  0  0  0  0  0  0  0  0  0  0  0
    9.6210   -0.6952   24.0976 C   0  0  0  0  0  0  0  0  0  0  0  0
    7.0792   -9.0217   17.1429 C   0  0  0  0  0  0  0  0  0  0  0  0
    3.1713  -10.1816   17.6634 C   0  0  0  0  0  0  0  0  0  0  0  0
    2.7878   -8.3822   16.2137 C   0  0  0  0  0  0  0  0  0  0  0  0
    9.4601   -2.6590   25.6528 C   0  0  0  0  0  0  0  0  0  0  0  0
   10.1182   -1.5672   23.1165 C   0  0  0  0  0  0  0  0  0  0  0  0
    1.0552   -9.6360   17.0650 C   0  0  0  0  0  0  0  0  0  0  0  0
    3.6519   -9.1783   16.9039 C   0  0  0  0  0  0  0  0  0  0  0  0
    7.8675   -7.0096   15.9415 C   0  0  0  0  0  0  0  0  0  0  0  0
    5.9733   -9.6553   17.3832 N   0  0  0  0  0  0  0  0  0  0  0  0
   10.2411   -2.9363   23.4301 C   0  0  0  0  0  0  0  0  0  0  0  0
   10.7288   -3.8197   19.9525 C   0  0  0  0  0  0  0  0  0  0  0  0
   10.1189   -5.0054   19.6987 C   0  0  0  0  0  0  0  0  0  0  0  0
  1  3  4  0
  1  7  4  0
  2 21  4  0
  2 27  4  0
  3  9  4  0
  3 10  4  0
  4  8  4  0
  4 18  4  0
  4 25  1  0
  5  9  4  0
  5 12  4  0
  6 13  1  0
  6 27  1  0
  7 28  4  0
  8 11  4  0
  9 29  4  0
 10 12  4  0
 11 24  1  0
 11 26  4  0
 12 25  1  0
 13 28  1  0
 14 20  4  0
 14 23  4  0
 15 17  4  0
 15 21  4  0
 16 19  4  0
 16 23  4  0
 17 22  4  0
 18 26  4  0
 19 24  4  0
 20 24  4  0
 22 27  4  0
 28 29  4  0
M  END
$$$$

 Created by Python create_sdf_string function

 29 33  0  0  0  0  0  0  0  0999 V2000
   10.7215   -3.3326   17.6437 C   0  0  0  0  0  0  0  0  0  0  0  0
    9.9489   -3.4675   24.6487 N   0  0  0  0  0  0  0  0  0  0  0  0
   10.0172   -4.4740   17.4101 C   0  0  0  0  0  0  0  0  0  0  0  0
    6.9051   -7.9575   16.4222 C   0  0  0  0  0  0  0  0  0  0  0  0
    8.9969   -6.3552   17.9668 N   0  0  0  0  0  0  0  0  0  0  0  0
   10.6702   -3.9051   22.4070 C   0  0  0  0  0  0  0  0  0  0  0  0
   11.0625   -3.0028   18.8894 C   0  0  0  0  0  0  0  0  0  0  0  0
    5.6180   -7.9194   16.1754 O   0  0  0  0  0  0  0  0  0  0  0  0
    9.7259   -5.3080   18.4485 C   0  0  0  0  0  0  0  0  0  0  0  0
    9.4578   -5.0200   16.3036 N   0  0  0  0  0  0  0  0  0  0  0  0
    5.0287   -8.9365   16.8223 C   0  0  0  0  0  0  0  0  0  0  0  0
    8.7742   -6.1498   16.6764 C   0  0  0  0  0  0  0  0  0  0  0  0
   10.9418   -3.4032   21.2053 O   0  0  0  0  0  0  0  0  0  0  0  0
    1.4797   -8.6258   16.2950 C   0  0  0  0  0  0  0  0  0  0  0  0
    9.2861   -1.2743   25.3585 C   0  0  0  0  0  0  0  0  0  0  0  0
    1.8892  -10.3985   17.7511 N   0  0  0  0  0  0  0  0  0  0  0  0
    9.6210   -0.6952   24.0976 C   0  0  0  0  0  0  0  0  0  0  0  0
    7.0792   -9.0217   17.1429 C   0  0  0  0  0  0  0  0  0  0  0  0
    3.1713  -10.1816   17.6634 C   0  0  0  0  0  0  0  0  0  0  0  0
    2.7878   -8.3822   16.2137 C   0  0  0  0  0  0  0  0  0  0  0  0
    9.4601   -2.6590   25.6528 C   0  0  0  0  0  0  0  0  0  0  0  0
   10.1182   -1.5672   23.1165 C   0  0  0  0  0  0  0  0  0  0  0  0
    1.0552   -9.6360   17.0650 C   0  0  0  0  0  0  0  0  0  0  0  0
    3.6519   -9.1783   16.9039 C   0  0  0  0  0  0  0  0  0  0  0  0
    7.8675   -7.0096   15.9415 C   0  0  0  0  0  0  0  0  0  0  0  0
    5.9733   -9.6553   17.3832 N   0  0  0  0  0  0  0  0  0  0  0  0
   10.2411   -2.9363   23.4301 C   0  0  0  0  0  0  0  0  0  0  0  0
   10.7288   -3.8197   19.9525 C   0  0  0  0  0  0  0  0  0  0  0  0
   10.1189   -5.0054   19.6987 C   0  0  0  0  0  0  0  0  0  0  0  0
  1  3  4  0
  1  7  4  0
  2 21  4  0
  2 27  4  0
  3  9  4  0
  3 10  4  0
  4  8  4  0
  4 18  4  0
  4 25  1  0
  5  9  4  0
  5 12  4  0
  6 13  1  0
  6 27  1  0
  7 28  4  0
  8 11  4  0
  9 29  4  0
 10 12  4  0
 11 24  1  0
 11 26  4  0
 12 25  1  0
 13 28  1  0
 14 20  4  0
 14 23  4  0
 15 17  4  0
 15 21  4  0
 16 19  4  0
 16 23  4  0
 17 22  4  0
 18 26  4  0
 19 24  4  0
 20 24  4  0
 22 27  4  0
 28 29  4  0
M  END
$$$$

 Created by Python create_sdf_string function

 29 33  0  0  0  0  0  0  0  0999 V2000
   10.7215   -3.3326   17.6437 C   0  0  0  0  0  0  0  0  0  0  0  0
    9.9489   -3.4675   24.6487 N   0  0  0  0  0  0  0  0  0  0  0  0
   10.0172   -4.4740   17.4101 C   0  0  0  0  0  0  0  0  0  0  0  0
    6.9051   -7.9575   16.4222 C   0  0  0  0  0  0  0  0  0  0  0  0
    8.9969   -6.3552   17.9668 N   0  0  0  0  0  0  0  0  0  0  0  0
   10.6702   -3.9051   22.4070 C   0  0  0  0  0  0  0  0  0  0  0  0
   11.0625   -3.0028   18.8894 C   0  0  0  0  0  0  0  0  0  0  0  0
    5.6180   -7.9194   16.1754 O   0  0  0  0  0  0  0  0  0  0  0  0
    9.7259   -5.3080   18.4485 C   0  0  0  0  0  0  0  0  0  0  0  0
    9.4578   -5.0200   16.3036 N   0  0  0  0  0  0  0  0  0  0  0  0
    5.0287   -8.9365   16.8223 C   0  0  0  0  0  0  0  0  0  0  0  0
    8.7742   -6.1498   16.6764 C   0  0  0  0  0  0  0  0  0  0  0  0
   10.9418   -3.4032   21.2053 O   0  0  0  0  0  0  0  0  0  0  0  0
    1.4797   -8.6258   16.2950 C   0  0  0  0  0  0  0  0  0  0  0  0
    9.2861   -1.2743   25.3585 C   0  0  0  0  0  0  0  0  0  0  0  0
    1.8892  -10.3985   17.7511 N   0  0  0  0  0  0  0  0  0  0  0  0
    9.6210   -0.6952   24.0976 C   0  0  0  0  0  0  0  0  0  0  0  0
    7.0792   -9.0217   17.1429 C   0  0  0  0  0  0  0  0  0  0  0  0
    3.1713  -10.1816   17.6634 C   0  0  0  0  0  0  0  0  0  0  0  0
    2.7878   -8.3822   16.2137 C   0  0  0  0  0  0  0  0  0  0  0  0
    9.4601   -2.6590   25.6528 C   0  0  0  0  0  0  0  0  0  0  0  0
   10.1182   -1.5672   23.1165 C   0  0  0  0  0  0  0  0  0  0  0  0
    1.0552   -9.6360   17.0650 C   0  0  0  0  0  0  0  0  0  0  0  0
    3.6519   -9.1783   16.9039 C   0  0  0  0  0  0  0  0  0  0  0  0
    7.8675   -7.0096   15.9415 C   0  0  0  0  0  0  0  0  0  0  0  0
    5.9733   -9.6553   17.3832 N   0  0  0  0  0  0  0  0  0  0  0  0
   10.2411   -2.9363   23.4301 C   0  0  0  0  0  0  0  0  0  0  0  0
   10.7288   -3.8197   19.9525 C   0  0  0  0  0  0  0  0  0  0  0  0
   10.1189   -5.0054   19.6987 C   0  0  0  0  0  0  0  0  0  0  0  0
  1  3  4  0
  1  7  4  0
  2 21  4  0
  2 27  4  0
  3  9  4  0
  3 10  4  0
  4  8  4  0
  4 18  4  0
  4 25  1  0
  5  9  4  0
  5 12  4  0
  6 13  1  0
  6 27  1  0
  7 28  4  0
  8 11  4  0
  9 29  4  0
 10 12  4  0
 11 24  1  0
 11 26  4  0
 12 25  1  0
 13 28  1  0
 14 20  4  0
 14 23  4  0
 15 17  4  0
 15 21  4  0
 16 19  4  0
 16 23  4  0
 17 22  4  0
 18 26  4  0
 19 24  4  0
 20 24  4  0
 22 27  4  0
 28 29  4  0
M  END
$$$$

 Created by Python create_sdf_string function

 29 33  0  0  0  0  0  0  0  0999 V2000
   10.7215   -3.3326   17.6437 C   0  0  0  0  0  0  0  0  0  0  0  0
    9.9489   -3.4675   24.6487 N   0  0  0  0  0  0  0  0  0  0  0  0
   10.0172   -4.4740   17.4101 C   0  0  0  0  0  0  0  0  0  0  0  0
    6.9051   -7.9575   16.4222 C   0  0  0  0  0  0  0  0  0  0  0  0
    8.9969   -6.3552   17.9668 N   0  0  0  0  0  0  0  0  0  0  0  0
   10.6702   -3.9051   22.4070 C   0  0  0  0  0  0  0  0  0  0  0  0
   11.0625   -3.0028   18.8894 C   0  0  0  0  0  0  0  0  0  0  0  0
    5.6180   -7.9194   16.1754 O   0  0  0  0  0  0  0  0  0  0  0  0
    9.7259   -5.3080   18.4485 C   0  0  0  0  0  0  0  0  0  0  0  0
    9.4578   -5.0200   16.3036 N   0  0  0  0  0  0  0  0  0  0  0  0
    5.0287   -8.9365   16.8223 C   0  0  0  0  0  0  0  0  0  0  0  0
    8.7742   -6.1498   16.6764 C   0  0  0  0  0  0  0  0  0  0  0  0
   10.9418   -3.4032   21.2053 O   0  0  0  0  0  0  0  0  0  0  0  0
    1.4797   -8.6258   16.2950 C   0  0  0  0  0  0  0  0  0  0  0  0
    9.2861   -1.2743   25.3585 C   0  0  0  0  0  0  0  0  0  0  0  0
    1.8892  -10.3985   17.7511 N   0  0  0  0  0  0  0  0  0  0  0  0
    9.6210   -0.6952   24.0976 C   0  0  0  0  0  0  0  0  0  0  0  0
    7.0792   -9.0217   17.1429 C   0  0  0  0  0  0  0  0  0  0  0  0
    3.1713  -10.1816   17.6634 C   0  0  0  0  0  0  0  0  0  0  0  0
    2.7878   -8.3822   16.2137 C   0  0  0  0  0  0  0  0  0  0  0  0
    9.4601   -2.6590   25.6528 C   0  0  0  0  0  0  0  0  0  0  0  0
   10.1182   -1.5672   23.1165 C   0  0  0  0  0  0  0  0  0  0  0  0
    1.0552   -9.6360   17.0650 C   0  0  0  0  0  0  0  0  0  0  0  0
    3.6519   -9.1783   16.9039 C   0  0  0  0  0  0  0  0  0  0  0  0
    7.8675   -7.0096   15.9415 C   0  0  0  0  0  0  0  0  0  0  0  0
    5.9733   -9.6553   17.3832 N   0  0  0  0  0  0  0  0  0  0  0  0
   10.2411   -2.9363   23.4301 C   0  0  0  0  0  0  0  0  0  0  0  0
   10.7288   -3.8197   19.9525 C   0  0  0  0  0  0  0  0  0  0  0  0
   10.1189   -5.0054   19.6987 C   0  0  0  0  0  0  0  0  0  0  0  0
  1  3  4  0
  1  7  4  0
  2 21  4  0
  2 27  4  0
  3  9  4  0
  3 10  4  0
  4  8  4  0
  4 18  4  0
  4 25  1  0
  5  9  4  0
  5 12  4  0
  6 13  1  0
  6 27  1  0
  7 28  4  0
  8 11  4  0
  9 29  4  0
 10 12  4  0
 11 24  1  0
 11 26  4  0
 12 25  1  0
 13 28  1  0
 14 20  4  0
 14 23  4  0
 15 17  4  0
 15 21  4  0
 16 19  4  0
 16 23  4  0
 17 22  4  0
 18 26  4  0
 19 24  4  0
 20 24  4  0
 22 27  4  0
 28 29  4  0
M  END
$$$$

 Created by Python create_sdf_string function

 29 33  0  0  0  0  0  0  0  0999 V2000
   10.7215   -3.3326   17.6437 C   0  0  0  0  0  0  0  0  0  0  0  0
    9.9489   -3.4675   24.6487 N   0  0  0  0  0  0  0  0  0  0  0  0
   10.0172   -4.4740   17.4101 C   0  0  0  0  0  0  0  0  0  0  0  0
    6.9051   -7.9575   16.4222 C   0  0  0  0  0  0  0  0  0  0  0  0
    8.9969   -6.3552   17.9668 N   0  0  0  0  0  0  0  0  0  0  0  0
   10.6702   -3.9051   22.4070 C   0  0  0  0  0  0  0  0  0  0  0  0
   11.0625   -3.0028   18.8894 C   0  0  0  0  0  0  0  0  0  0  0  0
    5.6180   -7.9194   16.1754 O   0  0  0  0  0  0  0  0  0  0  0  0
    9.7259   -5.3080   18.4485 C   0  0  0  0  0  0  0  0  0  0  0  0
    9.4578   -5.0200   16.3036 N   0  0  0  0  0  0  0  0  0  0  0  0
    5.0287   -8.9365   16.8223 C   0  0  0  0  0  0  0  0  0  0  0  0
    8.7742   -6.1498   16.6764 C   0  0  0  0  0  0  0  0  0  0  0  0
   10.9418   -3.4032   21.2053 O   0  0  0  0  0  0  0  0  0  0  0  0
    1.4797   -8.6258   16.2950 C   0  0  0  0  0  0  0  0  0  0  0  0
    9.2861   -1.2743   25.3585 C   0  0  0  0  0  0  0  0  0  0  0  0
    1.8892  -10.3985   17.7511 N   0  0  0  0  0  0  0  0  0  0  0  0
    9.6210   -0.6952   24.0976 C   0  0  0  0  0  0  0  0  0  0  0  0
    7.0792   -9.0217   17.1429 C   0  0  0  0  0  0  0  0  0  0  0  0
    3.1713  -10.1816   17.6634 C   0  0  0  0  0  0  0  0  0  0  0  0
    2.7878   -8.3822   16.2137 C   0  0  0  0  0  0  0  0  0  0  0  0
    9.4601   -2.6590   25.6528 C   0  0  0  0  0  0  0  0  0  0  0  0
   10.1182   -1.5672   23.1165 C   0  0  0  0  0  0  0  0  0  0  0  0
    1.0552   -9.6360   17.0650 C   0  0  0  0  0  0  0  0  0  0  0  0
    3.6519   -9.1783   16.9039 C   0  0  0  0  0  0  0  0  0  0  0  0
    7.8675   -7.0096   15.9415 C   0  0  0  0  0  0  0  0  0  0  0  0
    5.9733   -9.6553   17.3832 N   0  0  0  0  0  0  0  0  0  0  0  0
   10.2411   -2.9363   23.4301 C   0  0  0  0  0  0  0  0  0  0  0  0
   10.7288   -3.8197   19.9525 C   0  0  0  0  0  0  0  0  0  0  0  0
   10.1189   -5.0054   19.6987 C   0  0  0  0  0  0  0  0  0  0  0  0
  1  3  4  0
  1  7  4  0
  2 21  4  0
  2 27  4  0
  3  9  4  0
  3 10  4  0
  4  8  4  0
  4 18  4  0
  4 25  1  0
  5  9  4  0
  5 12  4  0
  6 13  1  0
  6 27  1  0
  7 28  4  0
  8 11  4  0
  9 29  4  0
 10 12  4  0
 11 24  1  0
 11 26  4  0
 12 25  1  0
 13 28  1  0
 14 20  4  0
 14 23  4  0
 15 17  4  0
 15 21  4  0
 16 19  4  0
 16 23  4  0
 17 22  4  0
 18 26  4  0
 19 24  4  0
 20 24  4  0
 22 27  4  0
 28 29  4  0
M  END
$$$$

 Created by Python create_sdf_string function

 29 33  0  0  0  0  0  0  0  0999 V2000
   10.7215   -3.3326   17.6437 C   0  0  0  0  0  0  0  0  0  0  0  0
    9.9489   -3.4675   24.6487 N   0  0  0  0  0  0  0  0  0  0  0  0
   10.0172   -4.4740   17.4101 C   0  0  0  0  0  0  0  0  0  0  0  0
    6.9051   -7.9575   16.4222 C   0  0  0  0  0  0  0  0  0  0  0  0
    8.9969   -6.3552   17.9668 N   0  0  0  0  0  0  0  0  0  0  0  0
   10.6702   -3.9051   22.4070 C   0  0  0  0  0  0  0  0  0  0  0  0
   11.0625   -3.0028   18.8894 C   0  0  0  0  0  0  0  0  0  0  0  0
    5.6180   -7.9194   16.1754 O   0  0  0  0  0  0  0  0  0  0  0  0
    9.7259   -5.3080   18.4485 C   0  0  0  0  0  0  0  0  0  0  0  0
    9.4578   -5.0200   16.3036 N   0  0  0  0  0  0  0  0  0  0  0  0
    5.0287   -8.9365   16.8223 C   0  0  0  0  0  0  0  0  0  0  0  0
    8.7742   -6.1498   16.6764 C   0  0  0  0  0  0  0  0  0  0  0  0
   10.9418   -3.4032   21.2053 O   0  0  0  0  0  0  0  0  0  0  0  0
    1.4797   -8.6258   16.2950 C   0  0  0  0  0  0  0  0  0  0  0  0
    9.2861   -1.2743   25.3585 C   0  0  0  0  0  0  0  0  0  0  0  0
    1.8892  -10.3985   17.7511 N   0  0  0  0  0  0  0  0  0  0  0  0
    9.6210   -0.6952   24.0976 C   0  0  0  0  0  0  0  0  0  0  0  0
    7.0792   -9.0217   17.1429 C   0  0  0  0  0  0  0  0  0  0  0  0
    3.1713  -10.1816   17.6634 C   0  0  0  0  0  0  0  0  0  0  0  0
    2.7878   -8.3822   16.2137 C   0  0  0  0  0  0  0  0  0  0  0  0
    9.4601   -2.6590   25.6528 C   0  0  0  0  0  0  0  0  0  0  0  0
   10.1182   -1.5672   23.1165 C   0  0  0  0  0  0  0  0  0  0  0  0
    1.0552   -9.6360   17.0650 C   0  0  0  0  0  0  0  0  0  0  0  0
    3.6519   -9.1783   16.9039 C   0  0  0  0  0  0  0  0  0  0  0  0
    7.8675   -7.0096   15.9415 C   0  0  0  0  0  0  0  0  0  0  0  0
    5.9733   -9.6553   17.3832 N   0  0  0  0  0  0  0  0  0  0  0  0
   10.2411   -2.9363   23.4301 C   0  0  0  0  0  0  0  0  0  0  0  0
   10.7288   -3.8197   19.9525 C   0  0  0  0  0  0  0  0  0  0  0  0
   10.1189   -5.0054   19.6987 C   0  0  0  0  0  0  0  0  0  0  0  0
  1  3  4  0
  1  7  4  0
  2 21  4  0
  2 27  4  0
  3  9  4  0
  3 10  4  0
  4  8  4  0
  4 18  4  0
  4 25  1  0
  5  9  4  0
  5 12  4  0
  6 13  1  0
  6 27  1  0
  7 28  4  0
  8 11  4  0
  9 29  4  0
 10 12  4  0
 11 24  1  0
 11 26  4  0
 12 25  1  0
 13 28  1  0
 14 20  4  0
 14 23  4  0
 15 17  4  0
 15 21  4  0
 16 19  4  0
 16 23  4  0
 17 22  4  0
 18 26  4  0
 19 24  4  0
 20 24  4  0
 22 27  4  0
 28 29  4  0
M  END
$$$$

 Created by Python create_sdf_string function

 29 33  0  0  0  0  0  0  0  0999 V2000
   10.7215   -3.3326   17.6437 C   0  0  0  0  0  0  0  0  0  0  0  0
    9.9489   -3.4675   24.6487 N   0  0  0  0  0  0  0  0  0  0  0  0
   10.0172   -4.4740   17.4101 C   0  0  0  0  0  0  0  0  0  0  0  0
    6.9051   -7.9575   16.4222 C   0  0  0  0  0  0  0  0  0  0  0  0
    8.9969   -6.3552   17.9668 N   0  0  0  0  0  0  0  0  0  0  0  0
   10.6702   -3.9051   22.4070 C   0  0  0  0  0  0  0  0  0  0  0  0
   11.0625   -3.0028   18.8894 C   0  0  0  0  0  0  0  0  0  0  0  0
    5.6180   -7.9194   16.1754 O   0  0  0  0  0  0  0  0  0  0  0  0
    9.7259   -5.3080   18.4485 C   0  0  0  0  0  0  0  0  0  0  0  0
    9.4578   -5.0200   16.3036 N   0  0  0  0  0  0  0  0  0  0  0  0
    5.0287   -8.9365   16.8223 C   0  0  0  0  0  0  0  0  0  0  0  0
    8.7742   -6.1498   16.6764 C   0  0  0  0  0  0  0  0  0  0  0  0
   10.9418   -3.4032   21.2053 O   0  0  0  0  0  0  0  0  0  0  0  0
    1.4797   -8.6258   16.2950 C   0  0  0  0  0  0  0  0  0  0  0  0
    9.2861   -1.2743   25.3585 C   0  0  0  0  0  0  0  0  0  0  0  0
    1.8892  -10.3985   17.7511 N   0  0  0  0  0  0  0  0  0  0  0  0
    9.6210   -0.6952   24.0976 C   0  0  0  0  0  0  0  0  0  0  0  0
    7.0792   -9.0217   17.1429 C   0  0  0  0  0  0  0  0  0  0  0  0
    3.1713  -10.1816   17.6634 C   0  0  0  0  0  0  0  0  0  0  0  0
    2.7878   -8.3822   16.2137 C   0  0  0  0  0  0  0  0  0  0  0  0
    9.4601   -2.6590   25.6528 C   0  0  0  0  0  0  0  0  0  0  0  0
   10.1182   -1.5672   23.1165 C   0  0  0  0  0  0  0  0  0  0  0  0
    1.0552   -9.6360   17.0650 C   0  0  0  0  0  0  0  0  0  0  0  0
    3.6519   -9.1783   16.9039 C   0  0  0  0  0  0  0  0  0  0  0  0
    7.8675   -7.0096   15.9415 C   0  0  0  0  0  0  0  0  0  0  0  0
    5.9733   -9.6553   17.3832 N   0  0  0  0  0  0  0  0  0  0  0  0
   10.2411   -2.9363   23.4301 C   0  0  0  0  0  0  0  0  0  0  0  0
   10.7288   -3.8197   19.9525 C   0  0  0  0  0  0  0  0  0  0  0  0
   10.1189   -5.0054   19.6987 C   0  0  0  0  0  0  0  0  0  0  0  0
  1  3  4  0
  1  7  4  0
  2 21  4  0
  2 27  4  0
  3  9  4  0
  3 10  4  0
  4  8  4  0
  4 18  4  0
  4 25  1  0
  5  9  4  0
  5 12  4  0
  6 13  1  0
  6 27  1  0
  7 28  4  0
  8 11  4  0
  9 29  4  0
 10 12  4  0
 11 24  1  0
 11 26  4  0
 12 25  1  0
 13 28  1  0
 14 20  4  0
 14 23  4  0
 15 17  4  0
 15 21  4  0
 16 19  4  0
 16 23  4  0
 17 22  4  0
 18 26  4  0
 19 24  4  0
 20 24  4  0
 22 27  4  0
 28 29  4  0
M  END
$$$$

 Created by Python create_sdf_string function

 29 33  0  0  0  0  0  0  0  0999 V2000
   10.7215   -3.3326   17.6437 C   0  0  0  0  0  0  0  0  0  0  0  0
    9.9489   -3.4675   24.6487 N   0  0  0  0  0  0  0  0  0  0  0  0
   10.0172   -4.4740   17.4101 C   0  0  0  0  0  0  0  0  0  0  0  0
    6.9051   -7.9575   16.4222 C   0  0  0  0  0  0  0  0  0  0  0  0
    8.9969   -6.3552   17.9668 N   0  0  0  0  0  0  0  0  0  0  0  0
   10.6702   -3.9051   22.4070 C   0  0  0  0  0  0  0  0  0  0  0  0
   11.0625   -3.0028   18.8894 C   0  0  0  0  0  0  0  0  0  0  0  0
    5.6180   -7.9194   16.1754 O   0  0  0  0  0  0  0  0  0  0  0  0
    9.7259   -5.3080   18.4485 C   0  0  0  0  0  0  0  0  0  0  0  0
    9.4578   -5.0200   16.3036 N   0  0  0  0  0  0  0  0  0  0  0  0
    5.0287   -8.9365   16.8223 C   0  0  0  0  0  0  0  0  0  0  0  0
    8.7742   -6.1498   16.6764 C   0  0  0  0  0  0  0  0  0  0  0  0
   10.9418   -3.4032   21.2053 O   0  0  0  0  0  0  0  0  0  0  0  0
    1.4797   -8.6258   16.2950 C   0  0  0  0  0  0  0  0  0  0  0  0
    9.2861   -1.2743   25.3585 C   0  0  0  0  0  0  0  0  0  0  0  0
    1.8892  -10.3985   17.7511 N   0  0  0  0  0  0  0  0  0  0  0  0
    9.6210   -0.6952   24.0976 C   0  0  0  0  0  0  0  0  0  0  0  0
    7.0792   -9.0217   17.1429 C   0  0  0  0  0  0  0  0  0  0  0  0
    3.1713  -10.1816   17.6634 C   0  0  0  0  0  0  0  0  0  0  0  0
    2.7878   -8.3822   16.2137 C   0  0  0  0  0  0  0  0  0  0  0  0
    9.4601   -2.6590   25.6528 C   0  0  0  0  0  0  0  0  0  0  0  0
   10.1182   -1.5672   23.1165 C   0  0  0  0  0  0  0  0  0  0  0  0
    1.0552   -9.6360   17.0650 C   0  0  0  0  0  0  0  0  0  0  0  0
    3.6519   -9.1783   16.9039 C   0  0  0  0  0  0  0  0  0  0  0  0
    7.8675   -7.0096   15.9415 C   0  0  0  0  0  0  0  0  0  0  0  0
    5.9733   -9.6553   17.3832 N   0  0  0  0  0  0  0  0  0  0  0  0
   10.2411   -2.9363   23.4301 C   0  0  0  0  0  0  0  0  0  0  0  0
   10.7288   -3.8197   19.9525 C   0  0  0  0  0  0  0  0  0  0  0  0
   10.1189   -5.0054   19.6987 C   0  0  0  0  0  0  0  0  0  0  0  0
  1  3  4  0
  1  7  4  0
  2 21  4  0
  2 27  4  0
  3  9  4  0
  3 10  4  0
  4  8  4  0
  4 18  4  0
  4 25  1  0
  5  9  4  0
  5 12  4  0
  6 13  1  0
  6 27  1  0
  7 28  4  0
  8 11  4  0
  9 29  4  0
 10 12  4  0
 11 24  1  0
 11 26  4  0
 12 25  1  0
 13 28  1  0
 14 20  4  0
 14 23  4  0
 15 17  4  0
 15 21  4  0
 16 19  4  0
 16 23  4  0
 17 22  4  0
 18 26  4  0
 19 24  4  0
 20 24  4  0
 22 27  4  0
 28 29  4  0
M  END
$$$$

 Created by Python create_sdf_string function

 29 33  0  0  0  0  0  0  0  0999 V2000
   10.7215   -3.3326   17.6437 C   0  0  0  0  0  0  0  0  0  0  0  0
    9.9489   -3.4675   24.6487 N   0  0  0  0  0  0  0  0  0  0  0  0
   10.0172   -4.4740   17.4101 C   0  0  0  0  0  0  0  0  0  0  0  0
    6.9051   -7.9575   16.4222 C   0  0  0  0  0  0  0  0  0  0  0  0
    8.9969   -6.3552   17.9668 N   0  0  0  0  0  0  0  0  0  0  0  0
   10.6702   -3.9051   22.4070 C   0  0  0  0  0  0  0  0  0  0  0  0
   11.0625   -3.0028   18.8894 C   0  0  0  0  0  0  0  0  0  0  0  0
    5.6180   -7.9194   16.1754 O   0  0  0  0  0  0  0  0  0  0  0  0
    9.7259   -5.3080   18.4485 C   0  0  0  0  0  0  0  0  0  0  0  0
    9.4578   -5.0200   16.3036 N   0  0  0  0  0  0  0  0  0  0  0  0
    5.0287   -8.9365   16.8223 C   0  0  0  0  0  0  0  0  0  0  0  0
    8.7742   -6.1498   16.6764 C   0  0  0  0  0  0  0  0  0  0  0  0
   10.9418   -3.4032   21.2053 O   0  0  0  0  0  0  0  0  0  0  0  0
    1.4797   -8.6258   16.2950 C   0  0  0  0  0  0  0  0  0  0  0  0
    9.2861   -1.2743   25.3585 C   0  0  0  0  0  0  0  0  0  0  0  0
    1.8892  -10.3985   17.7511 N   0  0  0  0  0  0  0  0  0  0  0  0
    9.6210   -0.6952   24.0976 C   0  0  0  0  0  0  0  0  0  0  0  0
    7.0792   -9.0217   17.1429 C   0  0  0  0  0  0  0  0  0  0  0  0
    3.1713  -10.1816   17.6634 C   0  0  0  0  0  0  0  0  0  0  0  0
    2.7878   -8.3822   16.2137 C   0  0  0  0  0  0  0  0  0  0  0  0
    9.4601   -2.6590   25.6528 C   0  0  0  0  0  0  0  0  0  0  0  0
   10.1182   -1.5672   23.1165 C   0  0  0  0  0  0  0  0  0  0  0  0
    1.0552   -9.6360   17.0650 C   0  0  0  0  0  0  0  0  0  0  0  0
    3.6519   -9.1783   16.9039 C   0  0  0  0  0  0  0  0  0  0  0  0
    7.8675   -7.0096   15.9415 C   0  0  0  0  0  0  0  0  0  0  0  0
    5.9733   -9.6553   17.3832 N   0  0  0  0  0  0  0  0  0  0  0  0
   10.2411   -2.9363   23.4301 C   0  0  0  0  0  0  0  0  0  0  0  0
   10.7288   -3.8197   19.9525 C   0  0  0  0  0  0  0  0  0  0  0  0
   10.1189   -5.0054   19.6987 C   0  0  0  0  0  0  0  0  0  0  0  0
  1  3  4  0
  1  7  4  0
  2 21  4  0
  2 27  4  0
  3  9  4  0
  3 10  4  0
  4  8  4  0
  4 18  4  0
  4 25  1  0
  5  9  4  0
  5 12  4  0
  6 13  1  0
  6 27  1  0
  7 28  4  0
  8 11  4  0
  9 29  4  0
 10 12  4  0
 11 24  1  0
 11 26  4  0
 12 25  1  0
 13 28  1  0
 14 20  4  0
 14 23  4  0
 15 17  4  0
 15 21  4  0
 16 19  4  0
 16 23  4  0
 17 22  4  0
 18 26  4  0
 19 24  4  0
 20 24  4  0
 22 27  4  0
 28 29  4  0
M  END
$$$$

 Created by Python create_sdf_string function

 29 33  0  0  0  0  0  0  0  0999 V2000
   10.7215   -3.3326   17.6437 C   0  0  0  0  0  0  0  0  0  0  0  0
    9.9489   -3.4675   24.6487 N   0  0  0  0  0  0  0  0  0  0  0  0
   10.0172   -4.4740   17.4101 C   0  0  0  0  0  0  0  0  0  0  0  0
    6.9051   -7.9575   16.4222 C   0  0  0  0  0  0  0  0  0  0  0  0
    8.9969   -6.3552   17.9668 N   0  0  0  0  0  0  0  0  0  0  0  0
   10.6702   -3.9051   22.4070 C   0  0  0  0  0  0  0  0  0  0  0  0
   11.0625   -3.0028   18.8894 C   0  0  0  0  0  0  0  0  0  0  0  0
    5.6180   -7.9194   16.1754 O   0  0  0  0  0  0  0  0  0  0  0  0
    9.7259   -5.3080   18.4485 C   0  0  0  0  0  0  0  0  0  0  0  0
    9.4578   -5.0200   16.3036 N   0  0  0  0  0  0  0  0  0  0  0  0
    5.0287   -8.9365   16.8223 C   0  0  0  0  0  0  0  0  0  0  0  0
    8.7742   -6.1498   16.6764 C   0  0  0  0  0  0  0  0  0  0  0  0
   10.9418   -3.4032   21.2053 O   0  0  0  0  0  0  0  0  0  0  0  0
    1.4797   -8.6258   16.2950 C   0  0  0  0  0  0  0  0  0  0  0  0
    9.2861   -1.2743   25.3585 C   0  0  0  0  0  0  0  0  0  0  0  0
    1.8892  -10.3985   17.7511 N   0  0  0  0  0  0  0  0  0  0  0  0
    9.6210   -0.6952   24.0976 C   0  0  0  0  0  0  0  0  0  0  0  0
    7.0792   -9.0217   17.1429 C   0  0  0  0  0  0  0  0  0  0  0  0
    3.1713  -10.1816   17.6634 C   0  0  0  0  0  0  0  0  0  0  0  0
    2.7878   -8.3822   16.2137 C   0  0  0  0  0  0  0  0  0  0  0  0
    9.4601   -2.6590   25.6528 C   0  0  0  0  0  0  0  0  0  0  0  0
   10.1182   -1.5672   23.1165 C   0  0  0  0  0  0  0  0  0  0  0  0
    1.0552   -9.6360   17.0650 C   0  0  0  0  0  0  0  0  0  0  0  0
    3.6519   -9.1783   16.9039 C   0  0  0  0  0  0  0  0  0  0  0  0
    7.8675   -7.0096   15.9415 C   0  0  0  0  0  0  0  0  0  0  0  0
    5.9733   -9.6553   17.3832 N   0  0  0  0  0  0  0  0  0  0  0  0
   10.2411   -2.9363   23.4301 C   0  0  0  0  0  0  0  0  0  0  0  0
   10.7288   -3.8197   19.9525 C   0  0  0  0  0  0  0  0  0  0  0  0
   10.1189   -5.0054   19.6987 C   0  0  0  0  0  0  0  0  0  0  0  0
  1  3  4  0
  1  7  4  0
  2 21  4  0
  2 27  4  0
  3  9  4  0
  3 10  4  0
  4  8  4  0
  4 18  4  0
  4 25  1  0
  5  9  4  0
  5 12  4  0
  6 13  1  0
  6 27  1  0
  7 28  4  0
  8 11  4  0
  9 29  4  0
 10 12  4  0
 11 24  1  0
 11 26  4  0
 12 25  1  0
 13 28  1  0
 14 20  4  0
 14 23  4  0
 15 17  4  0
 15 21  4  0
 16 19  4  0
 16 23  4  0
 17 22  4  0
 18 26  4  0
 19 24  4  0
 20 24  4  0
 22 27  4  0
 28 29  4  0
M  END
$$$$

 Created by Python create_sdf_string function

 29 33  0  0  0  0  0  0  0  0999 V2000
   10.7215   -3.3326   17.6437 C   0  0  0  0  0  0  0  0  0  0  0  0
    9.9489   -3.4675   24.6487 N   0  0  0  0  0  0  0  0  0  0  0  0
   10.0172   -4.4740   17.4101 C   0  0  0  0  0  0  0  0  0  0  0  0
    6.9051   -7.9575   16.4222 C   0  0  0  0  0  0  0  0  0  0  0  0
    8.9969   -6.3552   17.9668 N   0  0  0  0  0  0  0  0  0  0  0  0
   10.6702   -3.9051   22.4070 C   0  0  0  0  0  0  0  0  0  0  0  0
   11.0625   -3.0028   18.8894 C   0  0  0  0  0  0  0  0  0  0  0  0
    5.6180   -7.9194   16.1754 O   0  0  0  0  0  0  0  0  0  0  0  0
    9.7259   -5.3080   18.4485 C   0  0  0  0  0  0  0  0  0  0  0  0
    9.4578   -5.0200   16.3036 N   0  0  0  0  0  0  0  0  0  0  0  0
    5.0287   -8.9365   16.8223 C   0  0  0  0  0  0  0  0  0  0  0  0
    8.7742   -6.1498   16.6764 C   0  0  0  0  0  0  0  0  0  0  0  0
   10.9418   -3.4032   21.2053 O   0  0  0  0  0  0  0  0  0  0  0  0
    1.4797   -8.6258   16.2950 C   0  0  0  0  0  0  0  0  0  0  0  0
    9.2861   -1.2743   25.3585 C   0  0  0  0  0  0  0  0  0  0  0  0
    1.8892  -10.3985   17.7511 N   0  0  0  0  0  0  0  0  0  0  0  0
    9.6210   -0.6952   24.0976 C   0  0  0  0  0  0  0  0  0  0  0  0
    7.0792   -9.0217   17.1429 C   0  0  0  0  0  0  0  0  0  0  0  0
    3.1713  -10.1816   17.6634 C   0  0  0  0  0  0  0  0  0  0  0  0
    2.7878   -8.3822   16.2137 C   0  0  0  0  0  0  0  0  0  0  0  0
    9.4601   -2.6590   25.6528 C   0  0  0  0  0  0  0  0  0  0  0  0
   10.1182   -1.5672   23.1165 C   0  0  0  0  0  0  0  0  0  0  0  0
    1.0552   -9.6360   17.0650 C   0  0  0  0  0  0  0  0  0  0  0  0
    3.6519   -9.1783   16.9039 C   0  0  0  0  0  0  0  0  0  0  0  0
    7.8675   -7.0096   15.9415 C   0  0  0  0  0  0  0  0  0  0  0  0
    5.9733   -9.6553   17.3832 N   0  0  0  0  0  0  0  0  0  0  0  0
   10.2411   -2.9363   23.4301 C   0  0  0  0  0  0  0  0  0  0  0  0
   10.7288   -3.8197   19.9525 C   0  0  0  0  0  0  0  0  0  0  0  0
   10.1189   -5.0054   19.6987 C   0  0  0  0  0  0  0  0  0  0  0  0
  1  3  4  0
  1  7  4  0
  2 21  4  0
  2 27  4  0
  3  9  4  0
  3 10  4  0
  4  8  4  0
  4 18  4  0
  4 25  1  0
  5  9  4  0
  5 12  4  0
  6 13  1  0
  6 27  1  0
  7 28  4  0
  8 11  4  0
  9 29  4  0
 10 12  4  0
 11 24  1  0
 11 26  4  0
 12 25  1  0
 13 28  1  0
 14 20  4  0
 14 23  4  0
 15 17  4  0
 15 21  4  0
 16 19  4  0
 16 23  4  0
 17 22  4  0
 18 26  4  0
 19 24  4  0
 20 24  4  0
 22 27  4  0
 28 29  4  0
M  END
$$$$

 Created by Python create_sdf_string function

 29 33  0  0  0  0  0  0  0  0999 V2000
   10.7215   -3.3326   17.6437 C   0  0  0  0  0  0  0  0  0  0  0  0
    9.9489   -3.4675   24.6487 N   0  0  0  0  0  0  0  0  0  0  0  0
   10.0172   -4.4740   17.4101 C   0  0  0  0  0  0  0  0  0  0  0  0
    6.9051   -7.9575   16.4222 C   0  0  0  0  0  0  0  0  0  0  0  0
    8.9969   -6.3552   17.9668 N   0  0  0  0  0  0  0  0  0  0  0  0
   10.6702   -3.9051   22.4070 C   0  0  0  0  0  0  0  0  0  0  0  0
   11.0625   -3.0028   18.8894 C   0  0  0  0  0  0  0  0  0  0  0  0
    5.6180   -7.9194   16.1754 O   0  0  0  0  0  0  0  0  0  0  0  0
    9.7259   -5.3080   18.4485 C   0  0  0  0  0  0  0  0  0  0  0  0
    9.4578   -5.0200   16.3036 N   0  0  0  0  0  0  0  0  0  0  0  0
    5.0287   -8.9365   16.8223 C   0  0  0  0  0  0  0  0  0  0  0  0
    8.7742   -6.1498   16.6764 C   0  0  0  0  0  0  0  0  0  0  0  0
   10.9418   -3.4032   21.2053 O   0  0  0  0  0  0  0  0  0  0  0  0
    1.4797   -8.6258   16.2950 C   0  0  0  0  0  0  0  0  0  0  0  0
    9.2861   -1.2743   25.3585 C   0  0  0  0  0  0  0  0  0  0  0  0
    1.8892  -10.3985   17.7511 N   0  0  0  0  0  0  0  0  0  0  0  0
    9.6210   -0.6952   24.0976 C   0  0  0  0  0  0  0  0  0  0  0  0
    7.0792   -9.0217   17.1429 C   0  0  0  0  0  0  0  0  0  0  0  0
    3.1713  -10.1816   17.6634 C   0  0  0  0  0  0  0  0  0  0  0  0
    2.7878   -8.3822   16.2137 C   0  0  0  0  0  0  0  0  0  0  0  0
    9.4601   -2.6590   25.6528 C   0  0  0  0  0  0  0  0  0  0  0  0
   10.1182   -1.5672   23.1165 C   0  0  0  0  0  0  0  0  0  0  0  0
    1.0552   -9.6360   17.0650 C   0  0  0  0  0  0  0  0  0  0  0  0
    3.6519   -9.1783   16.9039 C   0  0  0  0  0  0  0  0  0  0  0  0
    7.8675   -7.0096   15.9415 C   0  0  0  0  0  0  0  0  0  0  0  0
    5.9733   -9.6553   17.3832 N   0  0  0  0  0  0  0  0  0  0  0  0
   10.2411   -2.9363   23.4301 C   0  0  0  0  0  0  0  0  0  0  0  0
   10.7288   -3.8197   19.9525 C   0  0  0  0  0  0  0  0  0  0  0  0
   10.1189   -5.0054   19.6987 C   0  0  0  0  0  0  0  0  0  0  0  0
  1  3  4  0
  1  7  4  0
  2 21  4  0
  2 27  4  0
  3  9  4  0
  3 10  4  0
  4  8  4  0
  4 18  4  0
  4 25  1  0
  5  9  4  0
  5 12  4  0
  6 13  1  0
  6 27  1  0
  7 28  4  0
  8 11  4  0
  9 29  4  0
 10 12  4  0
 11 24  1  0
 11 26  4  0
 12 25  1  0
 13 28  1  0
 14 20  4  0
 14 23  4  0
 15 17  4  0
 15 21  4  0
 16 19  4  0
 16 23  4  0
 17 22  4  0
 18 26  4  0
 19 24  4  0
 20 24  4  0
 22 27  4  0
 28 29  4  0
M  END
$$$$

 Created by Python create_sdf_string function

 29 33  0  0  0  0  0  0  0  0999 V2000
   10.7215   -3.3326   17.6437 C   0  0  0  0  0  0  0  0  0  0  0  0
    9.9489   -3.4675   24.6487 N   0  0  0  0  0  0  0  0  0  0  0  0
   10.0172   -4.4740   17.4101 C   0  0  0  0  0  0  0  0  0  0  0  0
    6.9051   -7.9575   16.4222 C   0  0  0  0  0  0  0  0  0  0  0  0
    8.9969   -6.3552   17.9668 N   0  0  0  0  0  0  0  0  0  0  0  0
   10.6702   -3.9051   22.4070 C   0  0  0  0  0  0  0  0  0  0  0  0
   11.0625   -3.0028   18.8894 C   0  0  0  0  0  0  0  0  0  0  0  0
    5.6180   -7.9194   16.1754 O   0  0  0  0  0  0  0  0  0  0  0  0
    9.7259   -5.3080   18.4485 C   0  0  0  0  0  0  0  0  0  0  0  0
    9.4578   -5.0200   16.3036 N   0  0  0  0  0  0  0  0  0  0  0  0
    5.0287   -8.9365   16.8223 C   0  0  0  0  0  0  0  0  0  0  0  0
    8.7742   -6.1498   16.6764 C   0  0  0  0  0  0  0  0  0  0  0  0
   10.9418   -3.4032   21.2053 O   0  0  0  0  0  0  0  0  0  0  0  0
    1.4797   -8.6258   16.2950 C   0  0  0  0  0  0  0  0  0  0  0  0
    9.2861   -1.2743   25.3585 C   0  0  0  0  0  0  0  0  0  0  0  0
    1.8892  -10.3985   17.7511 N   0  0  0  0  0  0  0  0  0  0  0  0
    9.6210   -0.6952   24.0976 C   0  0  0  0  0  0  0  0  0  0  0  0
    7.0792   -9.0217   17.1429 C   0  0  0  0  0  0  0  0  0  0  0  0
    3.1713  -10.1816   17.6634 C   0  0  0  0  0  0  0  0  0  0  0  0
    2.7878   -8.3822   16.2137 C   0  0  0  0  0  0  0  0  0  0  0  0
    9.4601   -2.6590   25.6528 C   0  0  0  0  0  0  0  0  0  0  0  0
   10.1182   -1.5672   23.1165 C   0  0  0  0  0  0  0  0  0  0  0  0
    1.0552   -9.6360   17.0650 C   0  0  0  0  0  0  0  0  0  0  0  0
    3.6519   -9.1783   16.9039 C   0  0  0  0  0  0  0  0  0  0  0  0
    7.8675   -7.0096   15.9415 C   0  0  0  0  0  0  0  0  0  0  0  0
    5.9733   -9.6553   17.3832 N   0  0  0  0  0  0  0  0  0  0  0  0
   10.2411   -2.9363   23.4301 C   0  0  0  0  0  0  0  0  0  0  0  0
   10.7288   -3.8197   19.9525 C   0  0  0  0  0  0  0  0  0  0  0  0
   10.1189   -5.0054   19.6987 C   0  0  0  0  0  0  0  0  0  0  0  0
  1  3  4  0
  1  7  4  0
  2 21  4  0
  2 27  4  0
  3  9  4  0
  3 10  4  0
  4  8  4  0
  4 18  4  0
  4 25  1  0
  5  9  4  0
  5 12  4  0
  6 13  1  0
  6 27  1  0
  7 28  4  0
  8 11  4  0
  9 29  4  0
 10 12  4  0
 11 24  1  0
 11 26  4  0
 12 25  1  0
 13 28  1  0
 14 20  4  0
 14 23  4  0
 15 17  4  0
 15 21  4  0
 16 19  4  0
 16 23  4  0
 17 22  4  0
 18 26  4  0
 19 24  4  0
 20 24  4  0
 22 27  4  0
 28 29  4  0
M  END
$$$$

 Created by Python create_sdf_string function

 29 33  0  0  0  0  0  0  0  0999 V2000
   10.7215   -3.3326   17.6437 C   0  0  0  0  0  0  0  0  0  0  0  0
    9.9489   -3.4675   24.6487 N   0  0  0  0  0  0  0  0  0  0  0  0
   10.0172   -4.4740   17.4101 C   0  0  0  0  0  0  0  0  0  0  0  0
    6.9051   -7.9575   16.4222 C   0  0  0  0  0  0  0  0  0  0  0  0
    8.9969   -6.3552   17.9668 N   0  0  0  0  0  0  0  0  0  0  0  0
   10.6702   -3.9051   22.4070 C   0  0  0  0  0  0  0  0  0  0  0  0
   11.0625   -3.0028   18.8894 C   0  0  0  0  0  0  0  0  0  0  0  0
    5.6180   -7.9194   16.1754 O   0  0  0  0  0  0  0  0  0  0  0  0
    9.7259   -5.3080   18.4485 C   0  0  0  0  0  0  0  0  0  0  0  0
    9.4578   -5.0200   16.3036 N   0  0  0  0  0  0  0  0  0  0  0  0
    5.0287   -8.9365   16.8223 C   0  0  0  0  0  0  0  0  0  0  0  0
    8.7742   -6.1498   16.6764 C   0  0  0  0  0  0  0  0  0  0  0  0
   10.9418   -3.4032   21.2053 O   0  0  0  0  0  0  0  0  0  0  0  0
    1.4797   -8.6258   16.2950 C   0  0  0  0  0  0  0  0  0  0  0  0
    9.2861   -1.2743   25.3585 C   0  0  0  0  0  0  0  0  0  0  0  0
    1.8892  -10.3985   17.7511 N   0  0  0  0  0  0  0  0  0  0  0  0
    9.6210   -0.6952   24.0976 C   0  0  0  0  0  0  0  0  0  0  0  0
    7.0792   -9.0217   17.1429 C   0  0  0  0  0  0  0  0  0  0  0  0
    3.1713  -10.1816   17.6634 C   0  0  0  0  0  0  0  0  0  0  0  0
    2.7878   -8.3822   16.2137 C   0  0  0  0  0  0  0  0  0  0  0  0
    9.4601   -2.6590   25.6528 C   0  0  0  0  0  0  0  0  0  0  0  0
   10.1182   -1.5672   23.1165 C   0  0  0  0  0  0  0  0  0  0  0  0
    1.0552   -9.6360   17.0650 C   0  0  0  0  0  0  0  0  0  0  0  0
    3.6519   -9.1783   16.9039 C   0  0  0  0  0  0  0  0  0  0  0  0
    7.8675   -7.0096   15.9415 C   0  0  0  0  0  0  0  0  0  0  0  0
    5.9733   -9.6553   17.3832 N   0  0  0  0  0  0  0  0  0  0  0  0
   10.2411   -2.9363   23.4301 C   0  0  0  0  0  0  0  0  0  0  0  0
   10.7288   -3.8197   19.9525 C   0  0  0  0  0  0  0  0  0  0  0  0
   10.1189   -5.0054   19.6987 C   0  0  0  0  0  0  0  0  0  0  0  0
  1  3  4  0
  1  7  4  0
  2 21  4  0
  2 27  4  0
  3  9  4  0
  3 10  4  0
  4  8  4  0
  4 18  4  0
  4 25  1  0
  5  9  4  0
  5 12  4  0
  6 13  1  0
  6 27  1  0
  7 28  4  0
  8 11  4  0
  9 29  4  0
 10 12  4  0
 11 24  1  0
 11 26  4  0
 12 25  1  0
 13 28  1  0
 14 20  4  0
 14 23  4  0
 15 17  4  0
 15 21  4  0
 16 19  4  0
 16 23  4  0
 17 22  4  0
 18 26  4  0
 19 24  4  0
 20 24  4  0
 22 27  4  0
 28 29  4  0
M  END
$$$$

 Created by Python create_sdf_string function

 29 33  0  0  0  0  0  0  0  0999 V2000
   10.7215   -3.3326   17.6437 C   0  0  0  0  0  0  0  0  0  0  0  0
    9.9489   -3.4675   24.6487 N   0  0  0  0  0  0  0  0  0  0  0  0
   10.0172   -4.4740   17.4101 C   0  0  0  0  0  0  0  0  0  0  0  0
    6.9051   -7.9575   16.4222 C   0  0  0  0  0  0  0  0  0  0  0  0
    8.9969   -6.3552   17.9668 N   0  0  0  0  0  0  0  0  0  0  0  0
   10.6702   -3.9051   22.4070 C   0  0  0  0  0  0  0  0  0  0  0  0
   11.0625   -3.0028   18.8894 C   0  0  0  0  0  0  0  0  0  0  0  0
    5.6180   -7.9194   16.1754 O   0  0  0  0  0  0  0  0  0  0  0  0
    9.7259   -5.3080   18.4485 C   0  0  0  0  0  0  0  0  0  0  0  0
    9.4578   -5.0200   16.3036 N   0  0  0  0  0  0  0  0  0  0  0  0
    5.0287   -8.9365   16.8223 C   0  0  0  0  0  0  0  0  0  0  0  0
    8.7742   -6.1498   16.6764 C   0  0  0  0  0  0  0  0  0  0  0  0
   10.9418   -3.4032   21.2053 O   0  0  0  0  0  0  0  0  0  0  0  0
    1.4797   -8.6258   16.2950 C   0  0  0  0  0  0  0  0  0  0  0  0
    9.2861   -1.2743   25.3585 C   0  0  0  0  0  0  0  0  0  0  0  0
    1.8892  -10.3985   17.7511 N   0  0  0  0  0  0  0  0  0  0  0  0
    9.6210   -0.6952   24.0976 C   0  0  0  0  0  0  0  0  0  0  0  0
    7.0792   -9.0217   17.1429 C   0  0  0  0  0  0  0  0  0  0  0  0
    3.1713  -10.1816   17.6634 C   0  0  0  0  0  0  0  0  0  0  0  0
    2.7878   -8.3822   16.2137 C   0  0  0  0  0  0  0  0  0  0  0  0
    9.4601   -2.6590   25.6528 C   0  0  0  0  0  0  0  0  0  0  0  0
   10.1182   -1.5672   23.1165 C   0  0  0  0  0  0  0  0  0  0  0  0
    1.0552   -9.6360   17.0650 C   0  0  0  0  0  0  0  0  0  0  0  0
    3.6519   -9.1783   16.9039 C   0  0  0  0  0  0  0  0  0  0  0  0
    7.8675   -7.0096   15.9415 C   0  0  0  0  0  0  0  0  0  0  0  0
    5.9733   -9.6553   17.3832 N   0  0  0  0  0  0  0  0  0  0  0  0
   10.2411   -2.9363   23.4301 C   0  0  0  0  0  0  0  0  0  0  0  0
   10.7288   -3.8197   19.9525 C   0  0  0  0  0  0  0  0  0  0  0  0
   10.1189   -5.0054   19.6987 C   0  0  0  0  0  0  0  0  0  0  0  0
  1  3  4  0
  1  7  4  0
  2 21  4  0
  2 27  4  0
  3  9  4  0
  3 10  4  0
  4  8  4  0
  4 18  4  0
  4 25  1  0
  5  9  4  0
  5 12  4  0
  6 13  1  0
  6 27  1  0
  7 28  4  0
  8 11  4  0
  9 29  4  0
 10 12  4  0
 11 24  1  0
 11 26  4  0
 12 25  1  0
 13 28  1  0
 14 20  4  0
 14 23  4  0
 15 17  4  0
 15 21  4  0
 16 19  4  0
 16 23  4  0
 17 22  4  0
 18 26  4  0
 19 24  4  0
 20 24  4  0
 22 27  4  0
 28 29  4  0
M  END
$$$$

 Created by Python create_sdf_string function

 29 33  0  0  0  0  0  0  0  0999 V2000
   10.7215   -3.3326   17.6437 C   0  0  0  0  0  0  0  0  0  0  0  0
    9.9489   -3.4675   24.6487 N   0  0  0  0  0  0  0  0  0  0  0  0
   10.0172   -4.4740   17.4101 C   0  0  0  0  0  0  0  0  0  0  0  0
    6.9051   -7.9575   16.4222 C   0  0  0  0  0  0  0  0  0  0  0  0
    8.9969   -6.3552   17.9668 N   0  0  0  0  0  0  0  0  0  0  0  0
   10.6702   -3.9051   22.4070 C   0  0  0  0  0  0  0  0  0  0  0  0
   11.0625   -3.0028   18.8894 C   0  0  0  0  0  0  0  0  0  0  0  0
    5.6180   -7.9194   16.1754 O   0  0  0  0  0  0  0  0  0  0  0  0
    9.7259   -5.3080   18.4485 C   0  0  0  0  0  0  0  0  0  0  0  0
    9.4578   -5.0200   16.3036 N   0  0  0  0  0  0  0  0  0  0  0  0
    5.0287   -8.9365   16.8223 C   0  0  0  0  0  0  0  0  0  0  0  0
    8.7742   -6.1498   16.6764 C   0  0  0  0  0  0  0  0  0  0  0  0
   10.9418   -3.4032   21.2053 O   0  0  0  0  0  0  0  0  0  0  0  0
    1.4797   -8.6258   16.2950 C   0  0  0  0  0  0  0  0  0  0  0  0
    9.2861   -1.2743   25.3585 C   0  0  0  0  0  0  0  0  0  0  0  0
    1.8892  -10.3985   17.7511 N   0  0  0  0  0  0  0  0  0  0  0  0
    9.6210   -0.6952   24.0976 C   0  0  0  0  0  0  0  0  0  0  0  0
    7.0792   -9.0217   17.1429 C   0  0  0  0  0  0  0  0  0  0  0  0
    3.1713  -10.1816   17.6634 C   0  0  0  0  0  0  0  0  0  0  0  0
    2.7878   -8.3822   16.2137 C   0  0  0  0  0  0  0  0  0  0  0  0
    9.4601   -2.6590   25.6528 C   0  0  0  0  0  0  0  0  0  0  0  0
   10.1182   -1.5672   23.1165 C   0  0  0  0  0  0  0  0  0  0  0  0
    1.0552   -9.6360   17.0650 C   0  0  0  0  0  0  0  0  0  0  0  0
    3.6519   -9.1783   16.9039 C   0  0  0  0  0  0  0  0  0  0  0  0
    7.8675   -7.0096   15.9415 C   0  0  0  0  0  0  0  0  0  0  0  0
    5.9733   -9.6553   17.3832 N   0  0  0  0  0  0  0  0  0  0  0  0
   10.2411   -2.9363   23.4301 C   0  0  0  0  0  0  0  0  0  0  0  0
   10.7288   -3.8197   19.9525 C   0  0  0  0  0  0  0  0  0  0  0  0
   10.1189   -5.0054   19.6987 C   0  0  0  0  0  0  0  0  0  0  0  0
  1  3  4  0
  1  7  4  0
  2 21  4  0
  2 27  4  0
  3  9  4  0
  3 10  4  0
  4  8  4  0
  4 18  4  0
  4 25  1  0
  5  9  4  0
  5 12  4  0
  6 13  1  0
  6 27  1  0
  7 28  4  0
  8 11  4  0
  9 29  4  0
 10 12  4  0
 11 24  1  0
 11 26  4  0
 12 25  1  0
 13 28  1  0
 14 20  4  0
 14 23  4  0
 15 17  4  0
 15 21  4  0
 16 19  4  0
 16 23  4  0
 17 22  4  0
 18 26  4  0
 19 24  4  0
 20 24  4  0
 22 27  4  0
 28 29  4  0
M  END
$$$$

 Created by Python create_sdf_string function

 29 33  0  0  0  0  0  0  0  0999 V2000
   10.7215   -3.3326   17.6437 C   0  0  0  0  0  0  0  0  0  0  0  0
    9.9489   -3.4675   24.6487 N   0  0  0  0  0  0  0  0  0  0  0  0
   10.0172   -4.4740   17.4101 C   0  0  0  0  0  0  0  0  0  0  0  0
    6.9051   -7.9575   16.4222 C   0  0  0  0  0  0  0  0  0  0  0  0
    8.9969   -6.3552   17.9668 N   0  0  0  0  0  0  0  0  0  0  0  0
   10.6702   -3.9051   22.4070 C   0  0  0  0  0  0  0  0  0  0  0  0
   11.0625   -3.0028   18.8894 C   0  0  0  0  0  0  0  0  0  0  0  0
    5.6180   -7.9194   16.1754 O   0  0  0  0  0  0  0  0  0  0  0  0
    9.7259   -5.3080   18.4485 C   0  0  0  0  0  0  0  0  0  0  0  0
    9.4578   -5.0200   16.3036 N   0  0  0  0  0  0  0  0  0  0  0  0
    5.0287   -8.9365   16.8223 C   0  0  0  0  0  0  0  0  0  0  0  0
    8.7742   -6.1498   16.6764 C   0  0  0  0  0  0  0  0  0  0  0  0
   10.9418   -3.4032   21.2053 O   0  0  0  0  0  0  0  0  0  0  0  0
    1.4797   -8.6258   16.2950 C   0  0  0  0  0  0  0  0  0  0  0  0
    9.2861   -1.2743   25.3585 C   0  0  0  0  0  0  0  0  0  0  0  0
    1.8892  -10.3985   17.7511 N   0  0  0  0  0  0  0  0  0  0  0  0
    9.6210   -0.6952   24.0976 C   0  0  0  0  0  0  0  0  0  0  0  0
    7.0792   -9.0217   17.1429 C   0  0  0  0  0  0  0  0  0  0  0  0
    3.1713  -10.1816   17.6634 C   0  0  0  0  0  0  0  0  0  0  0  0
    2.7878   -8.3822   16.2137 C   0  0  0  0  0  0  0  0  0  0  0  0
    9.4601   -2.6590   25.6528 C   0  0  0  0  0  0  0  0  0  0  0  0
   10.1182   -1.5672   23.1165 C   0  0  0  0  0  0  0  0  0  0  0  0
    1.0552   -9.6360   17.0650 C   0  0  0  0  0  0  0  0  0  0  0  0
    3.6519   -9.1783   16.9039 C   0  0  0  0  0  0  0  0  0  0  0  0
    7.8675   -7.0096   15.9415 C   0  0  0  0  0  0  0  0  0  0  0  0
    5.9733   -9.6553   17.3832 N   0  0  0  0  0  0  0  0  0  0  0  0
   10.2411   -2.9363   23.4301 C   0  0  0  0  0  0  0  0  0  0  0  0
   10.7288   -3.8197   19.9525 C   0  0  0  0  0  0  0  0  0  0  0  0
   10.1189   -5.0054   19.6987 C   0  0  0  0  0  0  0  0  0  0  0  0
  1  3  4  0
  1  7  4  0
  2 21  4  0
  2 27  4  0
  3  9  4  0
  3 10  4  0
  4  8  4  0
  4 18  4  0
  4 25  1  0
  5  9  4  0
  5 12  4  0
  6 13  1  0
  6 27  1  0
  7 28  4  0
  8 11  4  0
  9 29  4  0
 10 12  4  0
 11 24  1  0
 11 26  4  0
 12 25  1  0
 13 28  1  0
 14 20  4  0
 14 23  4  0
 15 17  4  0
 15 21  4  0
 16 19  4  0
 16 23  4  0
 17 22  4  0
 18 26  4  0
 19 24  4  0
 20 24  4  0
 22 27  4  0
 28 29  4  0
M  END
$$$$

 Created by Python create_sdf_string function

 29 33  0  0  0  0  0  0  0  0999 V2000
   10.7215   -3.3326   17.6437 C   0  0  0  0  0  0  0  0  0  0  0  0
    9.9489   -3.4675   24.6487 N   0  0  0  0  0  0  0  0  0  0  0  0
   10.0172   -4.4740   17.4101 C   0  0  0  0  0  0  0  0  0  0  0  0
    6.9051   -7.9575   16.4222 C   0  0  0  0  0  0  0  0  0  0  0  0
    8.9969   -6.3552   17.9668 N   0  0  0  0  0  0  0  0  0  0  0  0
   10.6702   -3.9051   22.4070 C   0  0  0  0  0  0  0  0  0  0  0  0
   11.0625   -3.0028   18.8894 C   0  0  0  0  0  0  0  0  0  0  0  0
    5.6180   -7.9194   16.1754 O   0  0  0  0  0  0  0  0  0  0  0  0
    9.7259   -5.3080   18.4485 C   0  0  0  0  0  0  0  0  0  0  0  0
    9.4578   -5.0200   16.3036 N   0  0  0  0  0  0  0  0  0  0  0  0
    5.0287   -8.9365   16.8223 C   0  0  0  0  0  0  0  0  0  0  0  0
    8.7742   -6.1498   16.6764 C   0  0  0  0  0  0  0  0  0  0  0  0
   10.9418   -3.4032   21.2053 O   0  0  0  0  0  0  0  0  0  0  0  0
    1.4797   -8.6258   16.2950 C   0  0  0  0  0  0  0  0  0  0  0  0
    9.2861   -1.2743   25.3585 C   0  0  0  0  0  0  0  0  0  0  0  0
    1.8892  -10.3985   17.7511 N   0  0  0  0  0  0  0  0  0  0  0  0
    9.6210   -0.6952   24.0976 C   0  0  0  0  0  0  0  0  0  0  0  0
    7.0792   -9.0217   17.1429 C   0  0  0  0  0  0  0  0  0  0  0  0
    3.1713  -10.1816   17.6634 C   0  0  0  0  0  0  0  0  0  0  0  0
    2.7878   -8.3822   16.2137 C   0  0  0  0  0  0  0  0  0  0  0  0
    9.4601   -2.6590   25.6528 C   0  0  0  0  0  0  0  0  0  0  0  0
   10.1182   -1.5672   23.1165 C   0  0  0  0  0  0  0  0  0  0  0  0
    1.0552   -9.6360   17.0650 C   0  0  0  0  0  0  0  0  0  0  0  0
    3.6519   -9.1783   16.9039 C   0  0  0  0  0  0  0  0  0  0  0  0
    7.8675   -7.0096   15.9415 C   0  0  0  0  0  0  0  0  0  0  0  0
    5.9733   -9.6553   17.3832 N   0  0  0  0  0  0  0  0  0  0  0  0
   10.2411   -2.9363   23.4301 C   0  0  0  0  0  0  0  0  0  0  0  0
   10.7288   -3.8197   19.9525 C   0  0  0  0  0  0  0  0  0  0  0  0
   10.1189   -5.0054   19.6987 C   0  0  0  0  0  0  0  0  0  0  0  0
  1  3  4  0
  1  7  4  0
  2 21  4  0
  2 27  4  0
  3  9  4  0
  3 10  4  0
  4  8  4  0
  4 18  4  0
  4 25  1  0
  5  9  4  0
  5 12  4  0
  6 13  1  0
  6 27  1  0
  7 28  4  0
  8 11  4  0
  9 29  4  0
 10 12  4  0
 11 24  1  0
 11 26  4  0
 12 25  1  0
 13 28  1  0
 14 20  4  0
 14 23  4  0
 15 17  4  0
 15 21  4  0
 16 19  4  0
 16 23  4  0
 17 22  4  0
 18 26  4  0
 19 24  4  0
 20 24  4  0
 22 27  4  0
 28 29  4  0
M  END
$$$$

 Created by Python create_sdf_string function

 29 33  0  0  0  0  0  0  0  0999 V2000
   10.7215   -3.3326   17.6437 C   0  0  0  0  0  0  0  0  0  0  0  0
    9.9489   -3.4675   24.6487 N   0  0  0  0  0  0  0  0  0  0  0  0
   10.0172   -4.4740   17.4101 C   0  0  0  0  0  0  0  0  0  0  0  0
    6.9051   -7.9575   16.4222 C   0  0  0  0  0  0  0  0  0  0  0  0
    8.9969   -6.3552   17.9668 N   0  0  0  0  0  0  0  0  0  0  0  0
   10.6702   -3.9051   22.4070 C   0  0  0  0  0  0  0  0  0  0  0  0
   11.0625   -3.0028   18.8894 C   0  0  0  0  0  0  0  0  0  0  0  0
    5.6180   -7.9194   16.1754 O   0  0  0  0  0  0  0  0  0  0  0  0
    9.7259   -5.3080   18.4485 C   0  0  0  0  0  0  0  0  0  0  0  0
    9.4578   -5.0200   16.3036 N   0  0  0  0  0  0  0  0  0  0  0  0
    5.0287   -8.9365   16.8223 C   0  0  0  0  0  0  0  0  0  0  0  0
    8.7742   -6.1498   16.6764 C   0  0  0  0  0  0  0  0  0  0  0  0
   10.9418   -3.4032   21.2053 O   0  0  0  0  0  0  0  0  0  0  0  0
    1.4797   -8.6258   16.2950 C   0  0  0  0  0  0  0  0  0  0  0  0
    9.2861   -1.2743   25.3585 C   0  0  0  0  0  0  0  0  0  0  0  0
    1.8892  -10.3985   17.7511 N   0  0  0  0  0  0  0  0  0  0  0  0
    9.6210   -0.6952   24.0976 C   0  0  0  0  0  0  0  0  0  0  0  0
    7.0792   -9.0217   17.1429 C   0  0  0  0  0  0  0  0  0  0  0  0
    3.1713  -10.1816   17.6634 C   0  0  0  0  0  0  0  0  0  0  0  0
    2.7878   -8.3822   16.2137 C   0  0  0  0  0  0  0  0  0  0  0  0
    9.4601   -2.6590   25.6528 C   0  0  0  0  0  0  0  0  0  0  0  0
   10.1182   -1.5672   23.1165 C   0  0  0  0  0  0  0  0  0  0  0  0
    1.0552   -9.6360   17.0650 C   0  0  0  0  0  0  0  0  0  0  0  0
    3.6519   -9.1783   16.9039 C   0  0  0  0  0  0  0  0  0  0  0  0
    7.8675   -7.0096   15.9415 C   0  0  0  0  0  0  0  0  0  0  0  0
    5.9733   -9.6553   17.3832 N   0  0  0  0  0  0  0  0  0  0  0  0
   10.2411   -2.9363   23.4301 C   0  0  0  0  0  0  0  0  0  0  0  0
   10.7288   -3.8197   19.9525 C   0  0  0  0  0  0  0  0  0  0  0  0
   10.1189   -5.0054   19.6987 C   0  0  0  0  0  0  0  0  0  0  0  0
  1  3  4  0
  1  7  4  0
  2 21  4  0
  2 27  4  0
  3  9  4  0
  3 10  4  0
  4  8  4  0
  4 18  4  0
  4 25  1  0
  5  9  4  0
  5 12  4  0
  6 13  1  0
  6 27  1  0
  7 28  4  0
  8 11  4  0
  9 29  4  0
 10 12  4  0
 11 24  1  0
 11 26  4  0
 12 25  1  0
 13 28  1  0
 14 20  4  0
 14 23  4  0
 15 17  4  0
 15 21  4  0
 16 19  4  0
 16 23  4  0
 17 22  4  0
 18 26  4  0
 19 24  4  0
 20 24  4  0
 22 27  4  0
 28 29  4  0
M  END
$$$$

 Created by Python create_sdf_string function

 29 33  0  0  0  0  0  0  0  0999 V2000
   10.7215   -3.3326   17.6437 C   0  0  0  0  0  0  0  0  0  0  0  0
    9.9489   -3.4675   24.6487 N   0  0  0  0  0  0  0  0  0  0  0  0
   10.0172   -4.4740   17.4101 C   0  0  0  0  0  0  0  0  0  0  0  0
    6.9051   -7.9575   16.4222 C   0  0  0  0  0  0  0  0  0  0  0  0
    8.9969   -6.3552   17.9668 N   0  0  0  0  0  0  0  0  0  0  0  0
   10.6702   -3.9051   22.4070 C   0  0  0  0  0  0  0  0  0  0  0  0
   11.0625   -3.0028   18.8894 C   0  0  0  0  0  0  0  0  0  0  0  0
    5.6180   -7.9194   16.1754 O   0  0  0  0  0  0  0  0  0  0  0  0
    9.7259   -5.3080   18.4485 C   0  0  0  0  0  0  0  0  0  0  0  0
    9.4578   -5.0200   16.3036 N   0  0  0  0  0  0  0  0  0  0  0  0
    5.0287   -8.9365   16.8223 C   0  0  0  0  0  0  0  0  0  0  0  0
    8.7742   -6.1498   16.6764 C   0  0  0  0  0  0  0  0  0  0  0  0
   10.9418   -3.4032   21.2053 O   0  0  0  0  0  0  0  0  0  0  0  0
    1.4797   -8.6258   16.2950 C   0  0  0  0  0  0  0  0  0  0  0  0
    9.2861   -1.2743   25.3585 C   0  0  0  0  0  0  0  0  0  0  0  0
    1.8892  -10.3985   17.7511 N   0  0  0  0  0  0  0  0  0  0  0  0
    9.6210   -0.6952   24.0976 C   0  0  0  0  0  0  0  0  0  0  0  0
    7.0792   -9.0217   17.1429 C   0  0  0  0  0  0  0  0  0  0  0  0
    3.1713  -10.1816   17.6634 C   0  0  0  0  0  0  0  0  0  0  0  0
    2.7878   -8.3822   16.2137 C   0  0  0  0  0  0  0  0  0  0  0  0
    9.4601   -2.6590   25.6528 C   0  0  0  0  0  0  0  0  0  0  0  0
   10.1182   -1.5672   23.1165 C   0  0  0  0  0  0  0  0  0  0  0  0
    1.0552   -9.6360   17.0650 C   0  0  0  0  0  0  0  0  0  0  0  0
    3.6519   -9.1783   16.9039 C   0  0  0  0  0  0  0  0  0  0  0  0
    7.8675   -7.0096   15.9415 C   0  0  0  0  0  0  0  0  0  0  0  0
    5.9733   -9.6553   17.3832 N   0  0  0  0  0  0  0  0  0  0  0  0
   10.2411   -2.9363   23.4301 C   0  0  0  0  0  0  0  0  0  0  0  0
   10.7288   -3.8197   19.9525 C   0  0  0  0  0  0  0  0  0  0  0  0
   10.1189   -5.0054   19.6987 C   0  0  0  0  0  0  0  0  0  0  0  0
  1  3  4  0
  1  7  4  0
  2 21  4  0
  2 27  4  0
  3  9  4  0
  3 10  4  0
  4  8  4  0
  4 18  4  0
  4 25  1  0
  5  9  4  0
  5 12  4  0
  6 13  1  0
  6 27  1  0
  7 28  4  0
  8 11  4  0
  9 29  4  0
 10 12  4  0
 11 24  1  0
 11 26  4  0
 12 25  1  0
 13 28  1  0
 14 20  4  0
 14 23  4  0
 15 17  4  0
 15 21  4  0
 16 19  4  0
 16 23  4  0
 17 22  4  0
 18 26  4  0
 19 24  4  0
 20 24  4  0
 22 27  4  0
 28 29  4  0
M  END
$$$$

 Created by Python create_sdf_string function

 29 33  0  0  0  0  0  0  0  0999 V2000
   10.7215   -3.3326   17.6437 C   0  0  0  0  0  0  0  0  0  0  0  0
    9.9489   -3.4675   24.6487 N   0  0  0  0  0  0  0  0  0  0  0  0
   10.0172   -4.4740   17.4101 C   0  0  0  0  0  0  0  0  0  0  0  0
    6.9051   -7.9575   16.4222 C   0  0  0  0  0  0  0  0  0  0  0  0
    8.9969   -6.3552   17.9668 N   0  0  0  0  0  0  0  0  0  0  0  0
   10.6702   -3.9051   22.4070 C   0  0  0  0  0  0  0  0  0  0  0  0
   11.0625   -3.0028   18.8894 C   0  0  0  0  0  0  0  0  0  0  0  0
    5.6180   -7.9194   16.1754 O   0  0  0  0  0  0  0  0  0  0  0  0
    9.7259   -5.3080   18.4485 C   0  0  0  0  0  0  0  0  0  0  0  0
    9.4578   -5.0200   16.3036 N   0  0  0  0  0  0  0  0  0  0  0  0
    5.0287   -8.9365   16.8223 C   0  0  0  0  0  0  0  0  0  0  0  0
    8.7742   -6.1498   16.6764 C   0  0  0  0  0  0  0  0  0  0  0  0
   10.9418   -3.4032   21.2053 O   0  0  0  0  0  0  0  0  0  0  0  0
    1.4797   -8.6258   16.2950 C   0  0  0  0  0  0  0  0  0  0  0  0
    9.2861   -1.2743   25.3585 C   0  0  0  0  0  0  0  0  0  0  0  0
    1.8892  -10.3985   17.7511 N   0  0  0  0  0  0  0  0  0  0  0  0
    9.6210   -0.6952   24.0976 C   0  0  0  0  0  0  0  0  0  0  0  0
    7.0792   -9.0217   17.1429 C   0  0  0  0  0  0  0  0  0  0  0  0
    3.1713  -10.1816   17.6634 C   0  0  0  0  0  0  0  0  0  0  0  0
    2.7878   -8.3822   16.2137 C   0  0  0  0  0  0  0  0  0  0  0  0
    9.4601   -2.6590   25.6528 C   0  0  0  0  0  0  0  0  0  0  0  0
   10.1182   -1.5672   23.1165 C   0  0  0  0  0  0  0  0  0  0  0  0
    1.0552   -9.6360   17.0650 C   0  0  0  0  0  0  0  0  0  0  0  0
    3.6519   -9.1783   16.9039 C   0  0  0  0  0  0  0  0  0  0  0  0
    7.8675   -7.0096   15.9415 C   0  0  0  0  0  0  0  0  0  0  0  0
    5.9733   -9.6553   17.3832 N   0  0  0  0  0  0  0  0  0  0  0  0
   10.2411   -2.9363   23.4301 C   0  0  0  0  0  0  0  0  0  0  0  0
   10.7288   -3.8197   19.9525 C   0  0  0  0  0  0  0  0  0  0  0  0
   10.1189   -5.0054   19.6987 C   0  0  0  0  0  0  0  0  0  0  0  0
  1  3  4  0
  1  7  4  0
  2 21  4  0
  2 27  4  0
  3  9  4  0
  3 10  4  0
  4  8  4  0
  4 18  4  0
  4 25  1  0
  5  9  4  0
  5 12  4  0
  6 13  1  0
  6 27  1  0
  7 28  4  0
  8 11  4  0
  9 29  4  0
 10 12  4  0
 11 24  1  0
 11 26  4  0
 12 25  1  0
 13 28  1  0
 14 20  4  0
 14 23  4  0
 15 17  4  0
 15 21  4  0
 16 19  4  0
 16 23  4  0
 17 22  4  0
 18 26  4  0
 19 24  4  0
 20 24  4  0
 22 27  4  0
 28 29  4  0
M  END
$$$$

 Created by Python create_sdf_string function

 29 33  0  0  0  0  0  0  0  0999 V2000
   10.7215   -3.3326   17.6437 C   0  0  0  0  0  0  0  0  0  0  0  0
    9.9489   -3.4675   24.6487 N   0  0  0  0  0  0  0  0  0  0  0  0
   10.0172   -4.4740   17.4101 C   0  0  0  0  0  0  0  0  0  0  0  0
    6.9051   -7.9575   16.4222 C   0  0  0  0  0  0  0  0  0  0  0  0
    8.9969   -6.3552   17.9668 N   0  0  0  0  0  0  0  0  0  0  0  0
   10.6702   -3.9051   22.4070 C   0  0  0  0  0  0  0  0  0  0  0  0
   11.0625   -3.0028   18.8894 C   0  0  0  0  0  0  0  0  0  0  0  0
    5.6180   -7.9194   16.1754 O   0  0  0  0  0  0  0  0  0  0  0  0
    9.7259   -5.3080   18.4485 C   0  0  0  0  0  0  0  0  0  0  0  0
    9.4578   -5.0200   16.3036 N   0  0  0  0  0  0  0  0  0  0  0  0
    5.0287   -8.9365   16.8223 C   0  0  0  0  0  0  0  0  0  0  0  0
    8.7742   -6.1498   16.6764 C   0  0  0  0  0  0  0  0  0  0  0  0
   10.9418   -3.4032   21.2053 O   0  0  0  0  0  0  0  0  0  0  0  0
    1.4797   -8.6258   16.2950 C   0  0  0  0  0  0  0  0  0  0  0  0
    9.2861   -1.2743   25.3585 C   0  0  0  0  0  0  0  0  0  0  0  0
    1.8892  -10.3985   17.7511 N   0  0  0  0  0  0  0  0  0  0  0  0
    9.6210   -0.6952   24.0976 C   0  0  0  0  0  0  0  0  0  0  0  0
    7.0792   -9.0217   17.1429 C   0  0  0  0  0  0  0  0  0  0  0  0
    3.1713  -10.1816   17.6634 C   0  0  0  0  0  0  0  0  0  0  0  0
    2.7878   -8.3822   16.2137 C   0  0  0  0  0  0  0  0  0  0  0  0
    9.4601   -2.6590   25.6528 C   0  0  0  0  0  0  0  0  0  0  0  0
   10.1182   -1.5672   23.1165 C   0  0  0  0  0  0  0  0  0  0  0  0
    1.0552   -9.6360   17.0650 C   0  0  0  0  0  0  0  0  0  0  0  0
    3.6519   -9.1783   16.9039 C   0  0  0  0  0  0  0  0  0  0  0  0
    7.8675   -7.0096   15.9415 C   0  0  0  0  0  0  0  0  0  0  0  0
    5.9733   -9.6553   17.3832 N   0  0  0  0  0  0  0  0  0  0  0  0
   10.2411   -2.9363   23.4301 C   0  0  0  0  0  0  0  0  0  0  0  0
   10.7288   -3.8197   19.9525 C   0  0  0  0  0  0  0  0  0  0  0  0
   10.1189   -5.0054   19.6987 C   0  0  0  0  0  0  0  0  0  0  0  0
  1  3  4  0
  1  7  4  0
  2 21  4  0
  2 27  4  0
  3  9  4  0
  3 10  4  0
  4  8  4  0
  4 18  4  0
  4 25  1  0
  5  9  4  0
  5 12  4  0
  6 13  1  0
  6 27  1  0
  7 28  4  0
  8 11  4  0
  9 29  4  0
 10 12  4  0
 11 24  1  0
 11 26  4  0
 12 25  1  0
 13 28  1  0
 14 20  4  0
 14 23  4  0
 15 17  4  0
 15 21  4  0
 16 19  4  0
 16 23  4  0
 17 22  4  0
 18 26  4  0
 19 24  4  0
 20 24  4  0
 22 27  4  0
 28 29  4  0
M  END
$$$$

 Created by Python create_sdf_string function

 29 33  0  0  0  0  0  0  0  0999 V2000
   10.7215   -3.3326   17.6437 C   0  0  0  0  0  0  0  0  0  0  0  0
    9.9489   -3.4675   24.6487 N   0  0  0  0  0  0  0  0  0  0  0  0
   10.0172   -4.4740   17.4101 C   0  0  0  0  0  0  0  0  0  0  0  0
    6.9051   -7.9575   16.4222 C   0  0  0  0  0  0  0  0  0  0  0  0
    8.9969   -6.3552   17.9668 N   0  0  0  0  0  0  0  0  0  0  0  0
   10.6702   -3.9051   22.4070 C   0  0  0  0  0  0  0  0  0  0  0  0
   11.0625   -3.0028   18.8894 C   0  0  0  0  0  0  0  0  0  0  0  0
    5.6180   -7.9194   16.1754 O   0  0  0  0  0  0  0  0  0  0  0  0
    9.7259   -5.3080   18.4485 C   0  0  0  0  0  0  0  0  0  0  0  0
    9.4578   -5.0200   16.3036 N   0  0  0  0  0  0  0  0  0  0  0  0
    5.0287   -8.9365   16.8223 C   0  0  0  0  0  0  0  0  0  0  0  0
    8.7742   -6.1498   16.6764 C   0  0  0  0  0  0  0  0  0  0  0  0
   10.9418   -3.4032   21.2053 O   0  0  0  0  0  0  0  0  0  0  0  0
    1.4797   -8.6258   16.2950 C   0  0  0  0  0  0  0  0  0  0  0  0
    9.2861   -1.2743   25.3585 C   0  0  0  0  0  0  0  0  0  0  0  0
    1.8892  -10.3985   17.7511 N   0  0  0  0  0  0  0  0  0  0  0  0
    9.6210   -0.6952   24.0976 C   0  0  0  0  0  0  0  0  0  0  0  0
    7.0792   -9.0217   17.1429 C   0  0  0  0  0  0  0  0  0  0  0  0
    3.1713  -10.1816   17.6634 C   0  0  0  0  0  0  0  0  0  0  0  0
    2.7878   -8.3822   16.2137 C   0  0  0  0  0  0  0  0  0  0  0  0
    9.4601   -2.6590   25.6528 C   0  0  0  0  0  0  0  0  0  0  0  0
   10.1182   -1.5672   23.1165 C   0  0  0  0  0  0  0  0  0  0  0  0
    1.0552   -9.6360   17.0650 C   0  0  0  0  0  0  0  0  0  0  0  0
    3.6519   -9.1783   16.9039 C   0  0  0  0  0  0  0  0  0  0  0  0
    7.8675   -7.0096   15.9415 C   0  0  0  0  0  0  0  0  0  0  0  0
    5.9733   -9.6553   17.3832 N   0  0  0  0  0  0  0  0  0  0  0  0
   10.2411   -2.9363   23.4301 C   0  0  0  0  0  0  0  0  0  0  0  0
   10.7288   -3.8197   19.9525 C   0  0  0  0  0  0  0  0  0  0  0  0
   10.1189   -5.0054   19.6987 C   0  0  0  0  0  0  0  0  0  0  0  0
  1  3  4  0
  1  7  4  0
  2 21  4  0
  2 27  4  0
  3  9  4  0
  3 10  4  0
  4  8  4  0
  4 18  4  0
  4 25  1  0
  5  9  4  0
  5 12  4  0
  6 13  1  0
  6 27  1  0
  7 28  4  0
  8 11  4  0
  9 29  4  0
 10 12  4  0
 11 24  1  0
 11 26  4  0
 12 25  1  0
 13 28  1  0
 14 20  4  0
 14 23  4  0
 15 17  4  0
 15 21  4  0
 16 19  4  0
 16 23  4  0
 17 22  4  0
 18 26  4  0
 19 24  4  0
 20 24  4  0
 22 27  4  0
 28 29  4  0
M  END
$$$$

 Created by Python create_sdf_string function

 29 33  0  0  0  0  0  0  0  0999 V2000
   10.7215   -3.3326   17.6437 C   0  0  0  0  0  0  0  0  0  0  0  0
    9.9489   -3.4675   24.6487 N   0  0  0  0  0  0  0  0  0  0  0  0
   10.0172   -4.4740   17.4101 C   0  0  0  0  0  0  0  0  0  0  0  0
    6.9051   -7.9575   16.4222 C   0  0  0  0  0  0  0  0  0  0  0  0
    8.9969   -6.3552   17.9668 N   0  0  0  0  0  0  0  0  0  0  0  0
   10.6702   -3.9051   22.4070 C   0  0  0  0  0  0  0  0  0  0  0  0
   11.0625   -3.0028   18.8894 C   0  0  0  0  0  0  0  0  0  0  0  0
    5.6180   -7.9194   16.1754 O   0  0  0  0  0  0  0  0  0  0  0  0
    9.7259   -5.3080   18.4485 C   0  0  0  0  0  0  0  0  0  0  0  0
    9.4578   -5.0200   16.3036 N   0  0  0  0  0  0  0  0  0  0  0  0
    5.0287   -8.9365   16.8223 C   0  0  0  0  0  0  0  0  0  0  0  0
    8.7742   -6.1498   16.6764 C   0  0  0  0  0  0  0  0  0  0  0  0
   10.9418   -3.4032   21.2053 O   0  0  0  0  0  0  0  0  0  0  0  0
    1.4797   -8.6258   16.2950 C   0  0  0  0  0  0  0  0  0  0  0  0
    9.2861   -1.2743   25.3585 C   0  0  0  0  0  0  0  0  0  0  0  0
    1.8892  -10.3985   17.7511 N   0  0  0  0  0  0  0  0  0  0  0  0
    9.6210   -0.6952   24.0976 C   0  0  0  0  0  0  0  0  0  0  0  0
    7.0792   -9.0217   17.1429 C   0  0  0  0  0  0  0  0  0  0  0  0
    3.1713  -10.1816   17.6634 C   0  0  0  0  0  0  0  0  0  0  0  0
    2.7878   -8.3822   16.2137 C   0  0  0  0  0  0  0  0  0  0  0  0
    9.4601   -2.6590   25.6528 C   0  0  0  0  0  0  0  0  0  0  0  0
   10.1182   -1.5672   23.1165 C   0  0  0  0  0  0  0  0  0  0  0  0
    1.0552   -9.6360   17.0650 C   0  0  0  0  0  0  0  0  0  0  0  0
    3.6519   -9.1783   16.9039 C   0  0  0  0  0  0  0  0  0  0  0  0
    7.8675   -7.0096   15.9415 C   0  0  0  0  0  0  0  0  0  0  0  0
    5.9733   -9.6553   17.3832 N   0  0  0  0  0  0  0  0  0  0  0  0
   10.2411   -2.9363   23.4301 C   0  0  0  0  0  0  0  0  0  0  0  0
   10.7288   -3.8197   19.9525 C   0  0  0  0  0  0  0  0  0  0  0  0
   10.1189   -5.0054   19.6987 C   0  0  0  0  0  0  0  0  0  0  0  0
  1  3  4  0
  1  7  4  0
  2 21  4  0
  2 27  4  0
  3  9  4  0
  3 10  4  0
  4  8  4  0
  4 18  4  0
  4 25  1  0
  5  9  4  0
  5 12  4  0
  6 13  1  0
  6 27  1  0
  7 28  4  0
  8 11  4  0
  9 29  4  0
 10 12  4  0
 11 24  1  0
 11 26  4  0
 12 25  1  0
 13 28  1  0
 14 20  4  0
 14 23  4  0
 15 17  4  0
 15 21  4  0
 16 19  4  0
 16 23  4  0
 17 22  4  0
 18 26  4  0
 19 24  4  0
 20 24  4  0
 22 27  4  0
 28 29  4  0
M  END
$$$$

 Created by Python create_sdf_string function

 29 33  0  0  0  0  0  0  0  0999 V2000
   10.7215   -3.3326   17.6437 C   0  0  0  0  0  0  0  0  0  0  0  0
    9.9489   -3.4675   24.6487 N   0  0  0  0  0  0  0  0  0  0  0  0
   10.0172   -4.4740   17.4101 C   0  0  0  0  0  0  0  0  0  0  0  0
    6.9051   -7.9575   16.4222 C   0  0  0  0  0  0  0  0  0  0  0  0
    8.9969   -6.3552   17.9668 N   0  0  0  0  0  0  0  0  0  0  0  0
   10.6702   -3.9051   22.4070 C   0  0  0  0  0  0  0  0  0  0  0  0
   11.0625   -3.0028   18.8894 C   0  0  0  0  0  0  0  0  0  0  0  0
    5.6180   -7.9194   16.1754 O   0  0  0  0  0  0  0  0  0  0  0  0
    9.7259   -5.3080   18.4485 C   0  0  0  0  0  0  0  0  0  0  0  0
    9.4578   -5.0200   16.3036 N   0  0  0  0  0  0  0  0  0  0  0  0
    5.0287   -8.9365   16.8223 C   0  0  0  0  0  0  0  0  0  0  0  0
    8.7742   -6.1498   16.6764 C   0  0  0  0  0  0  0  0  0  0  0  0
   10.9418   -3.4032   21.2053 O   0  0  0  0  0  0  0  0  0  0  0  0
    1.4797   -8.6258   16.2950 C   0  0  0  0  0  0  0  0  0  0  0  0
    9.2861   -1.2743   25.3585 C   0  0  0  0  0  0  0  0  0  0  0  0
    1.8892  -10.3985   17.7511 N   0  0  0  0  0  0  0  0  0  0  0  0
    9.6210   -0.6952   24.0976 C   0  0  0  0  0  0  0  0  0  0  0  0
    7.0792   -9.0217   17.1429 C   0  0  0  0  0  0  0  0  0  0  0  0
    3.1713  -10.1816   17.6634 C   0  0  0  0  0  0  0  0  0  0  0  0
    2.7878   -8.3822   16.2137 C   0  0  0  0  0  0  0  0  0  0  0  0
    9.4601   -2.6590   25.6528 C   0  0  0  0  0  0  0  0  0  0  0  0
   10.1182   -1.5672   23.1165 C   0  0  0  0  0  0  0  0  0  0  0  0
    1.0552   -9.6360   17.0650 C   0  0  0  0  0  0  0  0  0  0  0  0
    3.6519   -9.1783   16.9039 C   0  0  0  0  0  0  0  0  0  0  0  0
    7.8675   -7.0096   15.9415 C   0  0  0  0  0  0  0  0  0  0  0  0
    5.9733   -9.6553   17.3832 N   0  0  0  0  0  0  0  0  0  0  0  0
   10.2411   -2.9363   23.4301 C   0  0  0  0  0  0  0  0  0  0  0  0
   10.7288   -3.8197   19.9525 C   0  0  0  0  0  0  0  0  0  0  0  0
   10.1189   -5.0054   19.6987 C   0  0  0  0  0  0  0  0  0  0  0  0
  1  3  4  0
  1  7  4  0
  2 21  4  0
  2 27  4  0
  3  9  4  0
  3 10  4  0
  4  8  4  0
  4 18  4  0
  4 25  1  0
  5  9  4  0
  5 12  4  0
  6 13  1  0
  6 27  1  0
  7 28  4  0
  8 11  4  0
  9 29  4  0
 10 12  4  0
 11 24  1  0
 11 26  4  0
 12 25  1  0
 13 28  1  0
 14 20  4  0
 14 23  4  0
 15 17  4  0
 15 21  4  0
 16 19  4  0
 16 23  4  0
 17 22  4  0
 18 26  4  0
 19 24  4  0
 20 24  4  0
 22 27  4  0
 28 29  4  0
M  END
$$$$

 Created by Python create_sdf_string function

 29 33  0  0  0  0  0  0  0  0999 V2000
   10.7215   -3.3326   17.6437 C   0  0  0  0  0  0  0  0  0  0  0  0
    9.9489   -3.4675   24.6487 N   0  0  0  0  0  0  0  0  0  0  0  0
   10.0172   -4.4740   17.4101 C   0  0  0  0  0  0  0  0  0  0  0  0
    6.9051   -7.9575   16.4222 C   0  0  0  0  0  0  0  0  0  0  0  0
    8.9969   -6.3552   17.9668 N   0  0  0  0  0  0  0  0  0  0  0  0
   10.6702   -3.9051   22.4070 C   0  0  0  0  0  0  0  0  0  0  0  0
   11.0625   -3.0028   18.8894 C   0  0  0  0  0  0  0  0  0  0  0  0
    5.6180   -7.9194   16.1754 O   0  0  0  0  0  0  0  0  0  0  0  0
    9.7259   -5.3080   18.4485 C   0  0  0  0  0  0  0  0  0  0  0  0
    9.4578   -5.0200   16.3036 N   0  0  0  0  0  0  0  0  0  0  0  0
    5.0287   -8.9365   16.8223 C   0  0  0  0  0  0  0  0  0  0  0  0
    8.7742   -6.1498   16.6764 C   0  0  0  0  0  0  0  0  0  0  0  0
   10.9418   -3.4032   21.2053 O   0  0  0  0  0  0  0  0  0  0  0  0
    1.4797   -8.6258   16.2950 C   0  0  0  0  0  0  0  0  0  0  0  0
    9.2861   -1.2743   25.3585 C   0  0  0  0  0  0  0  0  0  0  0  0
    1.8892  -10.3985   17.7511 N   0  0  0  0  0  0  0  0  0  0  0  0
    9.6210   -0.6952   24.0976 C   0  0  0  0  0  0  0  0  0  0  0  0
    7.0792   -9.0217   17.1429 C   0  0  0  0  0  0  0  0  0  0  0  0
    3.1713  -10.1816   17.6634 C   0  0  0  0  0  0  0  0  0  0  0  0
    2.7878   -8.3822   16.2137 C   0  0  0  0  0  0  0  0  0  0  0  0
    9.4601   -2.6590   25.6528 C   0  0  0  0  0  0  0  0  0  0  0  0
   10.1182   -1.5672   23.1165 C   0  0  0  0  0  0  0  0  0  0  0  0
    1.0552   -9.6360   17.0650 C   0  0  0  0  0  0  0  0  0  0  0  0
    3.6519   -9.1783   16.9039 C   0  0  0  0  0  0  0  0  0  0  0  0
    7.8675   -7.0096   15.9415 C   0  0  0  0  0  0  0  0  0  0  0  0
    5.9733   -9.6553   17.3832 N   0  0  0  0  0  0  0  0  0  0  0  0
   10.2411   -2.9363   23.4301 C   0  0  0  0  0  0  0  0  0  0  0  0
   10.7288   -3.8197   19.9525 C   0  0  0  0  0  0  0  0  0  0  0  0
   10.1189   -5.0054   19.6987 C   0  0  0  0  0  0  0  0  0  0  0  0
  1  3  4  0
  1  7  4  0
  2 21  4  0
  2 27  4  0
  3  9  4  0
  3 10  4  0
  4  8  4  0
  4 18  4  0
  4 25  1  0
  5  9  4  0
  5 12  4  0
  6 13  1  0
  6 27  1  0
  7 28  4  0
  8 11  4  0
  9 29  4  0
 10 12  4  0
 11 24  1  0
 11 26  4  0
 12 25  1  0
 13 28  1  0
 14 20  4  0
 14 23  4  0
 15 17  4  0
 15 21  4  0
 16 19  4  0
 16 23  4  0
 17 22  4  0
 18 26  4  0
 19 24  4  0
 20 24  4  0
 22 27  4  0
 28 29  4  0
M  END
$$$$

 Created by Python create_sdf_string function

 29 33  0  0  0  0  0  0  0  0999 V2000
   10.7215   -3.3326   17.6437 C   0  0  0  0  0  0  0  0  0  0  0  0
    9.9489   -3.4675   24.6487 N   0  0  0  0  0  0  0  0  0  0  0  0
   10.0172   -4.4740   17.4101 C   0  0  0  0  0  0  0  0  0  0  0  0
    6.9051   -7.9575   16.4222 C   0  0  0  0  0  0  0  0  0  0  0  0
    8.9969   -6.3552   17.9668 N   0  0  0  0  0  0  0  0  0  0  0  0
   10.6702   -3.9051   22.4070 C   0  0  0  0  0  0  0  0  0  0  0  0
   11.0625   -3.0028   18.8894 C   0  0  0  0  0  0  0  0  0  0  0  0
    5.6180   -7.9194   16.1754 O   0  0  0  0  0  0  0  0  0  0  0  0
    9.7259   -5.3080   18.4485 C   0  0  0  0  0  0  0  0  0  0  0  0
    9.4578   -5.0200   16.3036 N   0  0  0  0  0  0  0  0  0  0  0  0
    5.0287   -8.9365   16.8223 C   0  0  0  0  0  0  0  0  0  0  0  0
    8.7742   -6.1498   16.6764 C   0  0  0  0  0  0  0  0  0  0  0  0
   10.9418   -3.4032   21.2053 O   0  0  0  0  0  0  0  0  0  0  0  0
    1.4797   -8.6258   16.2950 C   0  0  0  0  0  0  0  0  0  0  0  0
    9.2861   -1.2743   25.3585 C   0  0  0  0  0  0  0  0  0  0  0  0
    1.8892  -10.3985   17.7511 N   0  0  0  0  0  0  0  0  0  0  0  0
    9.6210   -0.6952   24.0976 C   0  0  0  0  0  0  0  0  0  0  0  0
    7.0792   -9.0217   17.1429 C   0  0  0  0  0  0  0  0  0  0  0  0
    3.1713  -10.1816   17.6634 C   0  0  0  0  0  0  0  0  0  0  0  0
    2.7878   -8.3822   16.2137 C   0  0  0  0  0  0  0  0  0  0  0  0
    9.4601   -2.6590   25.6528 C   0  0  0  0  0  0  0  0  0  0  0  0
   10.1182   -1.5672   23.1165 C   0  0  0  0  0  0  0  0  0  0  0  0
    1.0552   -9.6360   17.0650 C   0  0  0  0  0  0  0  0  0  0  0  0
    3.6519   -9.1783   16.9039 C   0  0  0  0  0  0  0  0  0  0  0  0
    7.8675   -7.0096   15.9415 C   0  0  0  0  0  0  0  0  0  0  0  0
    5.9733   -9.6553   17.3832 N   0  0  0  0  0  0  0  0  0  0  0  0
   10.2411   -2.9363   23.4301 C   0  0  0  0  0  0  0  0  0  0  0  0
   10.7288   -3.8197   19.9525 C   0  0  0  0  0  0  0  0  0  0  0  0
   10.1189   -5.0054   19.6987 C   0  0  0  0  0  0  0  0  0  0  0  0
  1  3  4  0
  1  7  4  0
  2 21  4  0
  2 27  4  0
  3  9  4  0
  3 10  4  0
  4  8  4  0
  4 18  4  0
  4 25  1  0
  5  9  4  0
  5 12  4  0
  6 13  1  0
  6 27  1  0
  7 28  4  0
  8 11  4  0
  9 29  4  0
 10 12  4  0
 11 24  1  0
 11 26  4  0
 12 25  1  0
 13 28  1  0
 14 20  4  0
 14 23  4  0
 15 17  4  0
 15 21  4  0
 16 19  4  0
 16 23  4  0
 17 22  4  0
 18 26  4  0
 19 24  4  0
 20 24  4  0
 22 27  4  0
 28 29  4  0
M  END
$$$$

 Created by Python create_sdf_string function

 29 33  0  0  0  0  0  0  0  0999 V2000
   10.7215   -3.3326   17.6437 C   0  0  0  0  0  0  0  0  0  0  0  0
    9.9489   -3.4675   24.6487 N   0  0  0  0  0  0  0  0  0  0  0  0
   10.0172   -4.4740   17.4101 C   0  0  0  0  0  0  0  0  0  0  0  0
    6.9051   -7.9575   16.4222 C   0  0  0  0  0  0  0  0  0  0  0  0
    8.9969   -6.3552   17.9668 N   0  0  0  0  0  0  0  0  0  0  0  0
   10.6702   -3.9051   22.4070 C   0  0  0  0  0  0  0  0  0  0  0  0
   11.0625   -3.0028   18.8894 C   0  0  0  0  0  0  0  0  0  0  0  0
    5.6180   -7.9194   16.1754 O   0  0  0  0  0  0  0  0  0  0  0  0
    9.7259   -5.3080   18.4485 C   0  0  0  0  0  0  0  0  0  0  0  0
    9.4578   -5.0200   16.3036 N   0  0  0  0  0  0  0  0  0  0  0  0
    5.0287   -8.9365   16.8223 C   0  0  0  0  0  0  0  0  0  0  0  0
    8.7742   -6.1498   16.6764 C   0  0  0  0  0  0  0  0  0  0  0  0
   10.9418   -3.4032   21.2053 O   0  0  0  0  0  0  0  0  0  0  0  0
    1.4797   -8.6258   16.2950 C   0  0  0  0  0  0  0  0  0  0  0  0
    9.2861   -1.2743   25.3585 C   0  0  0  0  0  0  0  0  0  0  0  0
    1.8892  -10.3985   17.7511 N   0  0  0  0  0  0  0  0  0  0  0  0
    9.6210   -0.6952   24.0976 C   0  0  0  0  0  0  0  0  0  0  0  0
    7.0792   -9.0217   17.1429 C   0  0  0  0  0  0  0  0  0  0  0  0
    3.1713  -10.1816   17.6634 C   0  0  0  0  0  0  0  0  0  0  0  0
    2.7878   -8.3822   16.2137 C   0  0  0  0  0  0  0  0  0  0  0  0
    9.4601   -2.6590   25.6528 C   0  0  0  0  0  0  0  0  0  0  0  0
   10.1182   -1.5672   23.1165 C   0  0  0  0  0  0  0  0  0  0  0  0
    1.0552   -9.6360   17.0650 C   0  0  0  0  0  0  0  0  0  0  0  0
    3.6519   -9.1783   16.9039 C   0  0  0  0  0  0  0  0  0  0  0  0
    7.8675   -7.0096   15.9415 C   0  0  0  0  0  0  0  0  0  0  0  0
    5.9733   -9.6553   17.3832 N   0  0  0  0  0  0  0  0  0  0  0  0
   10.2411   -2.9363   23.4301 C   0  0  0  0  0  0  0  0  0  0  0  0
   10.7288   -3.8197   19.9525 C   0  0  0  0  0  0  0  0  0  0  0  0
   10.1189   -5.0054   19.6987 C   0  0  0  0  0  0  0  0  0  0  0  0
  1  3  4  0
  1  7  4  0
  2 21  4  0
  2 27  4  0
  3  9  4  0
  3 10  4  0
  4  8  4  0
  4 18  4  0
  4 25  1  0
  5  9  4  0
  5 12  4  0
  6 13  1  0
  6 27  1  0
  7 28  4  0
  8 11  4  0
  9 29  4  0
 10 12  4  0
 11 24  1  0
 11 26  4  0
 12 25  1  0
 13 28  1  0
 14 20  4  0
 14 23  4  0
 15 17  4  0
 15 21  4  0
 16 19  4  0
 16 23  4  0
 17 22  4  0
 18 26  4  0
 19 24  4  0
 20 24  4  0
 22 27  4  0
 28 29  4  0
M  END
$$$$

 Created by Python create_sdf_string function

 29 33  0  0  0  0  0  0  0  0999 V2000
   10.7215   -3.3326   17.6437 C   0  0  0  0  0  0  0  0  0  0  0  0
    9.9489   -3.4675   24.6487 N   0  0  0  0  0  0  0  0  0  0  0  0
   10.0172   -4.4740   17.4101 C   0  0  0  0  0  0  0  0  0  0  0  0
    6.9051   -7.9575   16.4222 C   0  0  0  0  0  0  0  0  0  0  0  0
    8.9969   -6.3552   17.9668 N   0  0  0  0  0  0  0  0  0  0  0  0
   10.6702   -3.9051   22.4070 C   0  0  0  0  0  0  0  0  0  0  0  0
   11.0625   -3.0028   18.8894 C   0  0  0  0  0  0  0  0  0  0  0  0
    5.6180   -7.9194   16.1754 O   0  0  0  0  0  0  0  0  0  0  0  0
    9.7259   -5.3080   18.4485 C   0  0  0  0  0  0  0  0  0  0  0  0
    9.4578   -5.0200   16.3036 N   0  0  0  0  0  0  0  0  0  0  0  0
    5.0287   -8.9365   16.8223 C   0  0  0  0  0  0  0  0  0  0  0  0
    8.7742   -6.1498   16.6764 C   0  0  0  0  0  0  0  0  0  0  0  0
   10.9418   -3.4032   21.2053 O   0  0  0  0  0  0  0  0  0  0  0  0
    1.4797   -8.6258   16.2950 C   0  0  0  0  0  0  0  0  0  0  0  0
    9.2861   -1.2743   25.3585 C   0  0  0  0  0  0  0  0  0  0  0  0
    1.8892  -10.3985   17.7511 N   0  0  0  0  0  0  0  0  0  0  0  0
    9.6210   -0.6952   24.0976 C   0  0  0  0  0  0  0  0  0  0  0  0
    7.0792   -9.0217   17.1429 C   0  0  0  0  0  0  0  0  0  0  0  0
    3.1713  -10.1816   17.6634 C   0  0  0  0  0  0  0  0  0  0  0  0
    2.7878   -8.3822   16.2137 C   0  0  0  0  0  0  0  0  0  0  0  0
    9.4601   -2.6590   25.6528 C   0  0  0  0  0  0  0  0  0  0  0  0
   10.1182   -1.5672   23.1165 C   0  0  0  0  0  0  0  0  0  0  0  0
    1.0552   -9.6360   17.0650 C   0  0  0  0  0  0  0  0  0  0  0  0
    3.6519   -9.1783   16.9039 C   0  0  0  0  0  0  0  0  0  0  0  0
    7.8675   -7.0096   15.9415 C   0  0  0  0  0  0  0  0  0  0  0  0
    5.9733   -9.6553   17.3832 N   0  0  0  0  0  0  0  0  0  0  0  0
   10.2411   -2.9363   23.4301 C   0  0  0  0  0  0  0  0  0  0  0  0
   10.7288   -3.8197   19.9525 C   0  0  0  0  0  0  0  0  0  0  0  0
   10.1189   -5.0054   19.6987 C   0  0  0  0  0  0  0  0  0  0  0  0
  1  3  4  0
  1  7  4  0
  2 21  4  0
  2 27  4  0
  3  9  4  0
  3 10  4  0
  4  8  4  0
  4 18  4  0
  4 25  1  0
  5  9  4  0
  5 12  4  0
  6 13  1  0
  6 27  1  0
  7 28  4  0
  8 11  4  0
  9 29  4  0
 10 12  4  0
 11 24  1  0
 11 26  4  0
 12 25  1  0
 13 28  1  0
 14 20  4  0
 14 23  4  0
 15 17  4  0
 15 21  4  0
 16 19  4  0
 16 23  4  0
 17 22  4  0
 18 26  4  0
 19 24  4  0
 20 24  4  0
 22 27  4  0
 28 29  4  0
M  END
$$$$

 Created by Python create_sdf_string function

 29 33  0  0  0  0  0  0  0  0999 V2000
   10.7215   -3.3326   17.6437 C   0  0  0  0  0  0  0  0  0  0  0  0
    9.9489   -3.4675   24.6487 N   0  0  0  0  0  0  0  0  0  0  0  0
   10.0172   -4.4740   17.4101 C   0  0  0  0  0  0  0  0  0  0  0  0
    6.9051   -7.9575   16.4222 C   0  0  0  0  0  0  0  0  0  0  0  0
    8.9969   -6.3552   17.9668 N   0  0  0  0  0  0  0  0  0  0  0  0
   10.6702   -3.9051   22.4070 C   0  0  0  0  0  0  0  0  0  0  0  0
   11.0625   -3.0028   18.8894 C   0  0  0  0  0  0  0  0  0  0  0  0
    5.6180   -7.9194   16.1754 O   0  0  0  0  0  0  0  0  0  0  0  0
    9.7259   -5.3080   18.4485 C   0  0  0  0  0  0  0  0  0  0  0  0
    9.4578   -5.0200   16.3036 N   0  0  0  0  0  0  0  0  0  0  0  0
    5.0287   -8.9365   16.8223 C   0  0  0  0  0  0  0  0  0  0  0  0
    8.7742   -6.1498   16.6764 C   0  0  0  0  0  0  0  0  0  0  0  0
   10.9418   -3.4032   21.2053 O   0  0  0  0  0  0  0  0  0  0  0  0
    1.4797   -8.6258   16.2950 C   0  0  0  0  0  0  0  0  0  0  0  0
    9.2861   -1.2743   25.3585 C   0  0  0  0  0  0  0  0  0  0  0  0
    1.8892  -10.3985   17.7511 N   0  0  0  0  0  0  0  0  0  0  0  0
    9.6210   -0.6952   24.0976 C   0  0  0  0  0  0  0  0  0  0  0  0
    7.0792   -9.0217   17.1429 C   0  0  0  0  0  0  0  0  0  0  0  0
    3.1713  -10.1816   17.6634 C   0  0  0  0  0  0  0  0  0  0  0  0
    2.7878   -8.3822   16.2137 C   0  0  0  0  0  0  0  0  0  0  0  0
    9.4601   -2.6590   25.6528 C   0  0  0  0  0  0  0  0  0  0  0  0
   10.1182   -1.5672   23.1165 C   0  0  0  0  0  0  0  0  0  0  0  0
    1.0552   -9.6360   17.0650 C   0  0  0  0  0  0  0  0  0  0  0  0
    3.6519   -9.1783   16.9039 C   0  0  0  0  0  0  0  0  0  0  0  0
    7.8675   -7.0096   15.9415 C   0  0  0  0  0  0  0  0  0  0  0  0
    5.9733   -9.6553   17.3832 N   0  0  0  0  0  0  0  0  0  0  0  0
   10.2411   -2.9363   23.4301 C   0  0  0  0  0  0  0  0  0  0  0  0
   10.7288   -3.8197   19.9525 C   0  0  0  0  0  0  0  0  0  0  0  0
   10.1189   -5.0054   19.6987 C   0  0  0  0  0  0  0  0  0  0  0  0
  1  3  4  0
  1  7  4  0
  2 21  4  0
  2 27  4  0
  3  9  4  0
  3 10  4  0
  4  8  4  0
  4 18  4  0
  4 25  1  0
  5  9  4  0
  5 12  4  0
  6 13  1  0
  6 27  1  0
  7 28  4  0
  8 11  4  0
  9 29  4  0
 10 12  4  0
 11 24  1  0
 11 26  4  0
 12 25  1  0
 13 28  1  0
 14 20  4  0
 14 23  4  0
 15 17  4  0
 15 21  4  0
 16 19  4  0
 16 23  4  0
 17 22  4  0
 18 26  4  0
 19 24  4  0
 20 24  4  0
 22 27  4  0
 28 29  4  0
M  END
$$$$

 Created by Python create_sdf_string function

 29 33  0  0  0  0  0  0  0  0999 V2000
   10.7215   -3.3326   17.6437 C   0  0  0  0  0  0  0  0  0  0  0  0
    9.9489   -3.4675   24.6487 N   0  0  0  0  0  0  0  0  0  0  0  0
   10.0172   -4.4740   17.4101 C   0  0  0  0  0  0  0  0  0  0  0  0
    6.9051   -7.9575   16.4222 C   0  0  0  0  0  0  0  0  0  0  0  0
    8.9969   -6.3552   17.9668 N   0  0  0  0  0  0  0  0  0  0  0  0
   10.6702   -3.9051   22.4070 C   0  0  0  0  0  0  0  0  0  0  0  0
   11.0625   -3.0028   18.8894 C   0  0  0  0  0  0  0  0  0  0  0  0
    5.6180   -7.9194   16.1754 O   0  0  0  0  0  0  0  0  0  0  0  0
    9.7259   -5.3080   18.4485 C   0  0  0  0  0  0  0  0  0  0  0  0
    9.4578   -5.0200   16.3036 N   0  0  0  0  0  0  0  0  0  0  0  0
    5.0287   -8.9365   16.8223 C   0  0  0  0  0  0  0  0  0  0  0  0
    8.7742   -6.1498   16.6764 C   0  0  0  0  0  0  0  0  0  0  0  0
   10.9418   -3.4032   21.2053 O   0  0  0  0  0  0  0  0  0  0  0  0
    1.4797   -8.6258   16.2950 C   0  0  0  0  0  0  0  0  0  0  0  0
    9.2861   -1.2743   25.3585 C   0  0  0  0  0  0  0  0  0  0  0  0
    1.8892  -10.3985   17.7511 N   0  0  0  0  0  0  0  0  0  0  0  0
    9.6210   -0.6952   24.0976 C   0  0  0  0  0  0  0  0  0  0  0  0
    7.0792   -9.0217   17.1429 C   0  0  0  0  0  0  0  0  0  0  0  0
    3.1713  -10.1816   17.6634 C   0  0  0  0  0  0  0  0  0  0  0  0
    2.7878   -8.3822   16.2137 C   0  0  0  0  0  0  0  0  0  0  0  0
    9.4601   -2.6590   25.6528 C   0  0  0  0  0  0  0  0  0  0  0  0
   10.1182   -1.5672   23.1165 C   0  0  0  0  0  0  0  0  0  0  0  0
    1.0552   -9.6360   17.0650 C   0  0  0  0  0  0  0  0  0  0  0  0
    3.6519   -9.1783   16.9039 C   0  0  0  0  0  0  0  0  0  0  0  0
    7.8675   -7.0096   15.9415 C   0  0  0  0  0  0  0  0  0  0  0  0
    5.9733   -9.6553   17.3832 N   0  0  0  0  0  0  0  0  0  0  0  0
   10.2411   -2.9363   23.4301 C   0  0  0  0  0  0  0  0  0  0  0  0
   10.7288   -3.8197   19.9525 C   0  0  0  0  0  0  0  0  0  0  0  0
   10.1189   -5.0054   19.6987 C   0  0  0  0  0  0  0  0  0  0  0  0
  1  3  4  0
  1  7  4  0
  2 21  4  0
  2 27  4  0
  3  9  4  0
  3 10  4  0
  4  8  4  0
  4 18  4  0
  4 25  1  0
  5  9  4  0
  5 12  4  0
  6 13  1  0
  6 27  1  0
  7 28  4  0
  8 11  4  0
  9 29  4  0
 10 12  4  0
 11 24  1  0
 11 26  4  0
 12 25  1  0
 13 28  1  0
 14 20  4  0
 14 23  4  0
 15 17  4  0
 15 21  4  0
 16 19  4  0
 16 23  4  0
 17 22  4  0
 18 26  4  0
 19 24  4  0
 20 24  4  0
 22 27  4  0
 28 29  4  0
M  END
$$$$

 Created by Python create_sdf_string function

 29 33  0  0  0  0  0  0  0  0999 V2000
   10.7215   -3.3326   17.6437 C   0  0  0  0  0  0  0  0  0  0  0  0
    9.9489   -3.4675   24.6487 N   0  0  0  0  0  0  0  0  0  0  0  0
   10.0172   -4.4740   17.4101 C   0  0  0  0  0  0  0  0  0  0  0  0
    6.9051   -7.9575   16.4222 C   0  0  0  0  0  0  0  0  0  0  0  0
    8.9969   -6.3552   17.9668 N   0  0  0  0  0  0  0  0  0  0  0  0
   10.6702   -3.9051   22.4070 C   0  0  0  0  0  0  0  0  0  0  0  0
   11.0625   -3.0028   18.8894 C   0  0  0  0  0  0  0  0  0  0  0  0
    5.6180   -7.9194   16.1754 O   0  0  0  0  0  0  0  0  0  0  0  0
    9.7259   -5.3080   18.4485 C   0  0  0  0  0  0  0  0  0  0  0  0
    9.4578   -5.0200   16.3036 N   0  0  0  0  0  0  0  0  0  0  0  0
    5.0287   -8.9365   16.8223 C   0  0  0  0  0  0  0  0  0  0  0  0
    8.7742   -6.1498   16.6764 C   0  0  0  0  0  0  0  0  0  0  0  0
   10.9418   -3.4032   21.2053 O   0  0  0  0  0  0  0  0  0  0  0  0
    1.4797   -8.6258   16.2950 C   0  0  0  0  0  0  0  0  0  0  0  0
    9.2861   -1.2743   25.3585 C   0  0  0  0  0  0  0  0  0  0  0  0
    1.8892  -10.3985   17.7511 N   0  0  0  0  0  0  0  0  0  0  0  0
    9.6210   -0.6952   24.0976 C   0  0  0  0  0  0  0  0  0  0  0  0
    7.0792   -9.0217   17.1429 C   0  0  0  0  0  0  0  0  0  0  0  0
    3.1713  -10.1816   17.6634 C   0  0  0  0  0  0  0  0  0  0  0  0
    2.7878   -8.3822   16.2137 C   0  0  0  0  0  0  0  0  0  0  0  0
    9.4601   -2.6590   25.6528 C   0  0  0  0  0  0  0  0  0  0  0  0
   10.1182   -1.5672   23.1165 C   0  0  0  0  0  0  0  0  0  0  0  0
    1.0552   -9.6360   17.0650 C   0  0  0  0  0  0  0  0  0  0  0  0
    3.6519   -9.1783   16.9039 C   0  0  0  0  0  0  0  0  0  0  0  0
    7.8675   -7.0096   15.9415 C   0  0  0  0  0  0  0  0  0  0  0  0
    5.9733   -9.6553   17.3832 N   0  0  0  0  0  0  0  0  0  0  0  0
   10.2411   -2.9363   23.4301 C   0  0  0  0  0  0  0  0  0  0  0  0
   10.7288   -3.8197   19.9525 C   0  0  0  0  0  0  0  0  0  0  0  0
   10.1189   -5.0054   19.6987 C   0  0  0  0  0  0  0  0  0  0  0  0
  1  3  4  0
  1  7  4  0
  2 21  4  0
  2 27  4  0
  3  9  4  0
  3 10  4  0
  4  8  4  0
  4 18  4  0
  4 25  1  0
  5  9  4  0
  5 12  4  0
  6 13  1  0
  6 27  1  0
  7 28  4  0
  8 11  4  0
  9 29  4  0
 10 12  4  0
 11 24  1  0
 11 26  4  0
 12 25  1  0
 13 28  1  0
 14 20  4  0
 14 23  4  0
 15 17  4  0
 15 21  4  0
 16 19  4  0
 16 23  4  0
 17 22  4  0
 18 26  4  0
 19 24  4  0
 20 24  4  0
 22 27  4  0
 28 29  4  0
M  END
$$$$

 Created by Python create_sdf_string function

 29 33  0  0  0  0  0  0  0  0999 V2000
   10.7215   -3.3326   17.6437 C   0  0  0  0  0  0  0  0  0  0  0  0
    9.9489   -3.4675   24.6487 N   0  0  0  0  0  0  0  0  0  0  0  0
   10.0172   -4.4740   17.4101 C   0  0  0  0  0  0  0  0  0  0  0  0
    6.9051   -7.9575   16.4222 C   0  0  0  0  0  0  0  0  0  0  0  0
    8.9969   -6.3552   17.9668 N   0  0  0  0  0  0  0  0  0  0  0  0
   10.6702   -3.9051   22.4070 C   0  0  0  0  0  0  0  0  0  0  0  0
   11.0625   -3.0028   18.8894 C   0  0  0  0  0  0  0  0  0  0  0  0
    5.6180   -7.9194   16.1754 O   0  0  0  0  0  0  0  0  0  0  0  0
    9.7259   -5.3080   18.4485 C   0  0  0  0  0  0  0  0  0  0  0  0
    9.4578   -5.0200   16.3036 N   0  0  0  0  0  0  0  0  0  0  0  0
    5.0287   -8.9365   16.8223 C   0  0  0  0  0  0  0  0  0  0  0  0
    8.7742   -6.1498   16.6764 C   0  0  0  0  0  0  0  0  0  0  0  0
   10.9418   -3.4032   21.2053 O   0  0  0  0  0  0  0  0  0  0  0  0
    1.4797   -8.6258   16.2950 C   0  0  0  0  0  0  0  0  0  0  0  0
    9.2861   -1.2743   25.3585 C   0  0  0  0  0  0  0  0  0  0  0  0
    1.8892  -10.3985   17.7511 N   0  0  0  0  0  0  0  0  0  0  0  0
    9.6210   -0.6952   24.0976 C   0  0  0  0  0  0  0  0  0  0  0  0
    7.0792   -9.0217   17.1429 C   0  0  0  0  0  0  0  0  0  0  0  0
    3.1713  -10.1816   17.6634 C   0  0  0  0  0  0  0  0  0  0  0  0
    2.7878   -8.3822   16.2137 C   0  0  0  0  0  0  0  0  0  0  0  0
    9.4601   -2.6590   25.6528 C   0  0  0  0  0  0  0  0  0  0  0  0
   10.1182   -1.5672   23.1165 C   0  0  0  0  0  0  0  0  0  0  0  0
    1.0552   -9.6360   17.0650 C   0  0  0  0  0  0  0  0  0  0  0  0
    3.6519   -9.1783   16.9039 C   0  0  0  0  0  0  0  0  0  0  0  0
    7.8675   -7.0096   15.9415 C   0  0  0  0  0  0  0  0  0  0  0  0
    5.9733   -9.6553   17.3832 N   0  0  0  0  0  0  0  0  0  0  0  0
   10.2411   -2.9363   23.4301 C   0  0  0  0  0  0  0  0  0  0  0  0
   10.7288   -3.8197   19.9525 C   0  0  0  0  0  0  0  0  0  0  0  0
   10.1189   -5.0054   19.6987 C   0  0  0  0  0  0  0  0  0  0  0  0
  1  3  4  0
  1  7  4  0
  2 21  4  0
  2 27  4  0
  3  9  4  0
  3 10  4  0
  4  8  4  0
  4 18  4  0
  4 25  1  0
  5  9  4  0
  5 12  4  0
  6 13  1  0
  6 27  1  0
  7 28  4  0
  8 11  4  0
  9 29  4  0
 10 12  4  0
 11 24  1  0
 11 26  4  0
 12 25  1  0
 13 28  1  0
 14 20  4  0
 14 23  4  0
 15 17  4  0
 15 21  4  0
 16 19  4  0
 16 23  4  0
 17 22  4  0
 18 26  4  0
 19 24  4  0
 20 24  4  0
 22 27  4  0
 28 29  4  0
M  END
$$$$

 Created by Python create_sdf_string function

 29 33  0  0  0  0  0  0  0  0999 V2000
   10.7215   -3.3326   17.6437 C   0  0  0  0  0  0  0  0  0  0  0  0
    9.9489   -3.4675   24.6487 N   0  0  0  0  0  0  0  0  0  0  0  0
   10.0172   -4.4740   17.4101 C   0  0  0  0  0  0  0  0  0  0  0  0
    6.9051   -7.9575   16.4222 C   0  0  0  0  0  0  0  0  0  0  0  0
    8.9969   -6.3552   17.9668 N   0  0  0  0  0  0  0  0  0  0  0  0
   10.6702   -3.9051   22.4070 C   0  0  0  0  0  0  0  0  0  0  0  0
   11.0625   -3.0028   18.8894 C   0  0  0  0  0  0  0  0  0  0  0  0
    5.6180   -7.9194   16.1754 O   0  0  0  0  0  0  0  0  0  0  0  0
    9.7259   -5.3080   18.4485 C   0  0  0  0  0  0  0  0  0  0  0  0
    9.4578   -5.0200   16.3036 N   0  0  0  0  0  0  0  0  0  0  0  0
    5.0287   -8.9365   16.8223 C   0  0  0  0  0  0  0  0  0  0  0  0
    8.7742   -6.1498   16.6764 C   0  0  0  0  0  0  0  0  0  0  0  0
   10.9418   -3.4032   21.2053 O   0  0  0  0  0  0  0  0  0  0  0  0
    1.4797   -8.6258   16.2950 C   0  0  0  0  0  0  0  0  0  0  0  0
    9.2861   -1.2743   25.3585 C   0  0  0  0  0  0  0  0  0  0  0  0
    1.8892  -10.3985   17.7511 N   0  0  0  0  0  0  0  0  0  0  0  0
    9.6210   -0.6952   24.0976 C   0  0  0  0  0  0  0  0  0  0  0  0
    7.0792   -9.0217   17.1429 C   0  0  0  0  0  0  0  0  0  0  0  0
    3.1713  -10.1816   17.6634 C   0  0  0  0  0  0  0  0  0  0  0  0
    2.7878   -8.3822   16.2137 C   0  0  0  0  0  0  0  0  0  0  0  0
    9.4601   -2.6590   25.6528 C   0  0  0  0  0  0  0  0  0  0  0  0
   10.1182   -1.5672   23.1165 C   0  0  0  0  0  0  0  0  0  0  0  0
    1.0552   -9.6360   17.0650 C   0  0  0  0  0  0  0  0  0  0  0  0
    3.6519   -9.1783   16.9039 C   0  0  0  0  0  0  0  0  0  0  0  0
    7.8675   -7.0096   15.9415 C   0  0  0  0  0  0  0  0  0  0  0  0
    5.9733   -9.6553   17.3832 N   0  0  0  0  0  0  0  0  0  0  0  0
   10.2411   -2.9363   23.4301 C   0  0  0  0  0  0  0  0  0  0  0  0
   10.7288   -3.8197   19.9525 C   0  0  0  0  0  0  0  0  0  0  0  0
   10.1189   -5.0054   19.6987 C   0  0  0  0  0  0  0  0  0  0  0  0
  1  3  4  0
  1  7  4  0
  2 21  4  0
  2 27  4  0
  3  9  4  0
  3 10  4  0
  4  8  4  0
  4 18  4  0
  4 25  1  0
  5  9  4  0
  5 12  4  0
  6 13  1  0
  6 27  1  0
  7 28  4  0
  8 11  4  0
  9 29  4  0
 10 12  4  0
 11 24  1  0
 11 26  4  0
 12 25  1  0
 13 28  1  0
 14 20  4  0
 14 23  4  0
 15 17  4  0
 15 21  4  0
 16 19  4  0
 16 23  4  0
 17 22  4  0
 18 26  4  0
 19 24  4  0
 20 24  4  0
 22 27  4  0
 28 29  4  0
M  END
$$$$

 Created by Python create_sdf_string function

 29 33  0  0  0  0  0  0  0  0999 V2000
   10.7215   -3.3326   17.6437 C   0  0  0  0  0  0  0  0  0  0  0  0
    9.9489   -3.4675   24.6487 N   0  0  0  0  0  0  0  0  0  0  0  0
   10.0172   -4.4740   17.4101 C   0  0  0  0  0  0  0  0  0  0  0  0
    6.9051   -7.9575   16.4222 C   0  0  0  0  0  0  0  0  0  0  0  0
    8.9969   -6.3552   17.9668 N   0  0  0  0  0  0  0  0  0  0  0  0
   10.6702   -3.9051   22.4070 C   0  0  0  0  0  0  0  0  0  0  0  0
   11.0625   -3.0028   18.8894 C   0  0  0  0  0  0  0  0  0  0  0  0
    5.6180   -7.9194   16.1754 O   0  0  0  0  0  0  0  0  0  0  0  0
    9.7259   -5.3080   18.4485 C   0  0  0  0  0  0  0  0  0  0  0  0
    9.4578   -5.0200   16.3036 N   0  0  0  0  0  0  0  0  0  0  0  0
    5.0287   -8.9365   16.8223 C   0  0  0  0  0  0  0  0  0  0  0  0
    8.7742   -6.1498   16.6764 C   0  0  0  0  0  0  0  0  0  0  0  0
   10.9418   -3.4032   21.2053 O   0  0  0  0  0  0  0  0  0  0  0  0
    1.4797   -8.6258   16.2950 C   0  0  0  0  0  0  0  0  0  0  0  0
    9.2861   -1.2743   25.3585 C   0  0  0  0  0  0  0  0  0  0  0  0
    1.8892  -10.3985   17.7511 N   0  0  0  0  0  0  0  0  0  0  0  0
    9.6210   -0.6952   24.0976 C   0  0  0  0  0  0  0  0  0  0  0  0
    7.0792   -9.0217   17.1429 C   0  0  0  0  0  0  0  0  0  0  0  0
    3.1713  -10.1816   17.6634 C   0  0  0  0  0  0  0  0  0  0  0  0
    2.7878   -8.3822   16.2137 C   0  0  0  0  0  0  0  0  0  0  0  0
    9.4601   -2.6590   25.6528 C   0  0  0  0  0  0  0  0  0  0  0  0
   10.1182   -1.5672   23.1165 C   0  0  0  0  0  0  0  0  0  0  0  0
    1.0552   -9.6360   17.0650 C   0  0  0  0  0  0  0  0  0  0  0  0
    3.6519   -9.1783   16.9039 C   0  0  0  0  0  0  0  0  0  0  0  0
    7.8675   -7.0096   15.9415 C   0  0  0  0  0  0  0  0  0  0  0  0
    5.9733   -9.6553   17.3832 N   0  0  0  0  0  0  0  0  0  0  0  0
   10.2411   -2.9363   23.4301 C   0  0  0  0  0  0  0  0  0  0  0  0
   10.7288   -3.8197   19.9525 C   0  0  0  0  0  0  0  0  0  0  0  0
   10.1189   -5.0054   19.6987 C   0  0  0  0  0  0  0  0  0  0  0  0
  1  3  4  0
  1  7  4  0
  2 21  4  0
  2 27  4  0
  3  9  4  0
  3 10  4  0
  4  8  4  0
  4 18  4  0
  4 25  1  0
  5  9  4  0
  5 12  4  0
  6 13  1  0
  6 27  1  0
  7 28  4  0
  8 11  4  0
  9 29  4  0
 10 12  4  0
 11 24  1  0
 11 26  4  0
 12 25  1  0
 13 28  1  0
 14 20  4  0
 14 23  4  0
 15 17  4  0
 15 21  4  0
 16 19  4  0
 16 23  4  0
 17 22  4  0
 18 26  4  0
 19 24  4  0
 20 24  4  0
 22 27  4  0
 28 29  4  0
M  END
$$$$

 Created by Python create_sdf_string function

 29 33  0  0  0  0  0  0  0  0999 V2000
   10.7215   -3.3326   17.6437 C   0  0  0  0  0  0  0  0  0  0  0  0
    9.9489   -3.4675   24.6487 N   0  0  0  0  0  0  0  0  0  0  0  0
   10.0172   -4.4740   17.4101 C   0  0  0  0  0  0  0  0  0  0  0  0
    6.9051   -7.9575   16.4222 C   0  0  0  0  0  0  0  0  0  0  0  0
    8.9969   -6.3552   17.9668 N   0  0  0  0  0  0  0  0  0  0  0  0
   10.6702   -3.9051   22.4070 C   0  0  0  0  0  0  0  0  0  0  0  0
   11.0625   -3.0028   18.8894 C   0  0  0  0  0  0  0  0  0  0  0  0
    5.6180   -7.9194   16.1754 O   0  0  0  0  0  0  0  0  0  0  0  0
    9.7259   -5.3080   18.4485 C   0  0  0  0  0  0  0  0  0  0  0  0
    9.4578   -5.0200   16.3036 N   0  0  0  0  0  0  0  0  0  0  0  0
    5.0287   -8.9365   16.8223 C   0  0  0  0  0  0  0  0  0  0  0  0
    8.7742   -6.1498   16.6764 C   0  0  0  0  0  0  0  0  0  0  0  0
   10.9418   -3.4032   21.2053 O   0  0  0  0  0  0  0  0  0  0  0  0
    1.4797   -8.6258   16.2950 C   0  0  0  0  0  0  0  0  0  0  0  0
    9.2861   -1.2743   25.3585 C   0  0  0  0  0  0  0  0  0  0  0  0
    1.8892  -10.3985   17.7511 N   0  0  0  0  0  0  0  0  0  0  0  0
    9.6210   -0.6952   24.0976 C   0  0  0  0  0  0  0  0  0  0  0  0
    7.0792   -9.0217   17.1429 C   0  0  0  0  0  0  0  0  0  0  0  0
    3.1713  -10.1816   17.6634 C   0  0  0  0  0  0  0  0  0  0  0  0
    2.7878   -8.3822   16.2137 C   0  0  0  0  0  0  0  0  0  0  0  0
    9.4601   -2.6590   25.6528 C   0  0  0  0  0  0  0  0  0  0  0  0
   10.1182   -1.5672   23.1165 C   0  0  0  0  0  0  0  0  0  0  0  0
    1.0552   -9.6360   17.0650 C   0  0  0  0  0  0  0  0  0  0  0  0
    3.6519   -9.1783   16.9039 C   0  0  0  0  0  0  0  0  0  0  0  0
    7.8675   -7.0096   15.9415 C   0  0  0  0  0  0  0  0  0  0  0  0
    5.9733   -9.6553   17.3832 N   0  0  0  0  0  0  0  0  0  0  0  0
   10.2411   -2.9363   23.4301 C   0  0  0  0  0  0  0  0  0  0  0  0
   10.7288   -3.8197   19.9525 C   0  0  0  0  0  0  0  0  0  0  0  0
   10.1189   -5.0054   19.6987 C   0  0  0  0  0  0  0  0  0  0  0  0
  1  3  4  0
  1  7  4  0
  2 21  4  0
  2 27  4  0
  3  9  4  0
  3 10  4  0
  4  8  4  0
  4 18  4  0
  4 25  1  0
  5  9  4  0
  5 12  4  0
  6 13  1  0
  6 27  1  0
  7 28  4  0
  8 11  4  0
  9 29  4  0
 10 12  4  0
 11 24  1  0
 11 26  4  0
 12 25  1  0
 13 28  1  0
 14 20  4  0
 14 23  4  0
 15 17  4  0
 15 21  4  0
 16 19  4  0
 16 23  4  0
 17 22  4  0
 18 26  4  0
 19 24  4  0
 20 24  4  0
 22 27  4  0
 28 29  4  0
M  END
$$$$

 Created by Python create_sdf_string function

 29 33  0  0  0  0  0  0  0  0999 V2000
   10.7215   -3.3326   17.6437 C   0  0  0  0  0  0  0  0  0  0  0  0
    9.9489   -3.4675   24.6487 N   0  0  0  0  0  0  0  0  0  0  0  0
   10.0172   -4.4740   17.4101 C   0  0  0  0  0  0  0  0  0  0  0  0
    6.9051   -7.9575   16.4222 C   0  0  0  0  0  0  0  0  0  0  0  0
    8.9969   -6.3552   17.9668 N   0  0  0  0  0  0  0  0  0  0  0  0
   10.6702   -3.9051   22.4070 C   0  0  0  0  0  0  0  0  0  0  0  0
   11.0625   -3.0028   18.8894 C   0  0  0  0  0  0  0  0  0  0  0  0
    5.6180   -7.9194   16.1754 O   0  0  0  0  0  0  0  0  0  0  0  0
    9.7259   -5.3080   18.4485 C   0  0  0  0  0  0  0  0  0  0  0  0
    9.4578   -5.0200   16.3036 N   0  0  0  0  0  0  0  0  0  0  0  0
    5.0287   -8.9365   16.8223 C   0  0  0  0  0  0  0  0  0  0  0  0
    8.7742   -6.1498   16.6764 C   0  0  0  0  0  0  0  0  0  0  0  0
   10.9418   -3.4032   21.2053 O   0  0  0  0  0  0  0  0  0  0  0  0
    1.4797   -8.6258   16.2950 C   0  0  0  0  0  0  0  0  0  0  0  0
    9.2861   -1.2743   25.3585 C   0  0  0  0  0  0  0  0  0  0  0  0
    1.8892  -10.3985   17.7511 N   0  0  0  0  0  0  0  0  0  0  0  0
    9.6210   -0.6952   24.0976 C   0  0  0  0  0  0  0  0  0  0  0  0
    7.0792   -9.0217   17.1429 C   0  0  0  0  0  0  0  0  0  0  0  0
    3.1713  -10.1816   17.6634 C   0  0  0  0  0  0  0  0  0  0  0  0
    2.7878   -8.3822   16.2137 C   0  0  0  0  0  0  0  0  0  0  0  0
    9.4601   -2.6590   25.6528 C   0  0  0  0  0  0  0  0  0  0  0  0
   10.1182   -1.5672   23.1165 C   0  0  0  0  0  0  0  0  0  0  0  0
    1.0552   -9.6360   17.0650 C   0  0  0  0  0  0  0  0  0  0  0  0
    3.6519   -9.1783   16.9039 C   0  0  0  0  0  0  0  0  0  0  0  0
    7.8675   -7.0096   15.9415 C   0  0  0  0  0  0  0  0  0  0  0  0
    5.9733   -9.6553   17.3832 N   0  0  0  0  0  0  0  0  0  0  0  0
   10.2411   -2.9363   23.4301 C   0  0  0  0  0  0  0  0  0  0  0  0
   10.7288   -3.8197   19.9525 C   0  0  0  0  0  0  0  0  0  0  0  0
   10.1189   -5.0054   19.6987 C   0  0  0  0  0  0  0  0  0  0  0  0
  1  3  4  0
  1  7  4  0
  2 21  4  0
  2 27  4  0
  3  9  4  0
  3 10  4  0
  4  8  4  0
  4 18  4  0
  4 25  1  0
  5  9  4  0
  5 12  4  0
  6 13  1  0
  6 27  1  0
  7 28  4  0
  8 11  4  0
  9 29  4  0
 10 12  4  0
 11 24  1  0
 11 26  4  0
 12 25  1  0
 13 28  1  0
 14 20  4  0
 14 23  4  0
 15 17  4  0
 15 21  4  0
 16 19  4  0
 16 23  4  0
 17 22  4  0
 18 26  4  0
 19 24  4  0
 20 24  4  0
 22 27  4  0
 28 29  4  0
M  END
$$$$

 Created by Python create_sdf_string function

 29 33  0  0  0  0  0  0  0  0999 V2000
   10.7215   -3.3326   17.6437 C   0  0  0  0  0  0  0  0  0  0  0  0
    9.9489   -3.4675   24.6487 N   0  0  0  0  0  0  0  0  0  0  0  0
   10.0172   -4.4740   17.4101 C   0  0  0  0  0  0  0  0  0  0  0  0
    6.9051   -7.9575   16.4222 C   0  0  0  0  0  0  0  0  0  0  0  0
    8.9969   -6.3552   17.9668 N   0  0  0  0  0  0  0  0  0  0  0  0
   10.6702   -3.9051   22.4070 C   0  0  0  0  0  0  0  0  0  0  0  0
   11.0625   -3.0028   18.8894 C   0  0  0  0  0  0  0  0  0  0  0  0
    5.6180   -7.9194   16.1754 O   0  0  0  0  0  0  0  0  0  0  0  0
    9.7259   -5.3080   18.4485 C   0  0  0  0  0  0  0  0  0  0  0  0
    9.4578   -5.0200   16.3036 N   0  0  0  0  0  0  0  0  0  0  0  0
    5.0287   -8.9365   16.8223 C   0  0  0  0  0  0  0  0  0  0  0  0
    8.7742   -6.1498   16.6764 C   0  0  0  0  0  0  0  0  0  0  0  0
   10.9418   -3.4032   21.2053 O   0  0  0  0  0  0  0  0  0  0  0  0
    1.4797   -8.6258   16.2950 C   0  0  0  0  0  0  0  0  0  0  0  0
    9.2861   -1.2743   25.3585 C   0  0  0  0  0  0  0  0  0  0  0  0
    1.8892  -10.3985   17.7511 N   0  0  0  0  0  0  0  0  0  0  0  0
    9.6210   -0.6952   24.0976 C   0  0  0  0  0  0  0  0  0  0  0  0
    7.0792   -9.0217   17.1429 C   0  0  0  0  0  0  0  0  0  0  0  0
    3.1713  -10.1816   17.6634 C   0  0  0  0  0  0  0  0  0  0  0  0
    2.7878   -8.3822   16.2137 C   0  0  0  0  0  0  0  0  0  0  0  0
    9.4601   -2.6590   25.6528 C   0  0  0  0  0  0  0  0  0  0  0  0
   10.1182   -1.5672   23.1165 C   0  0  0  0  0  0  0  0  0  0  0  0
    1.0552   -9.6360   17.0650 C   0  0  0  0  0  0  0  0  0  0  0  0
    3.6519   -9.1783   16.9039 C   0  0  0  0  0  0  0  0  0  0  0  0
    7.8675   -7.0096   15.9415 C   0  0  0  0  0  0  0  0  0  0  0  0
    5.9733   -9.6553   17.3832 N   0  0  0  0  0  0  0  0  0  0  0  0
   10.2411   -2.9363   23.4301 C   0  0  0  0  0  0  0  0  0  0  0  0
   10.7288   -3.8197   19.9525 C   0  0  0  0  0  0  0  0  0  0  0  0
   10.1189   -5.0054   19.6987 C   0  0  0  0  0  0  0  0  0  0  0  0
  1  3  4  0
  1  7  4  0
  2 21  4  0
  2 27  4  0
  3  9  4  0
  3 10  4  0
  4  8  4  0
  4 18  4  0
  4 25  1  0
  5  9  4  0
  5 12  4  0
  6 13  1  0
  6 27  1  0
  7 28  4  0
  8 11  4  0
  9 29  4  0
 10 12  4  0
 11 24  1  0
 11 26  4  0
 12 25  1  0
 13 28  1  0
 14 20  4  0
 14 23  4  0
 15 17  4  0
 15 21  4  0
 16 19  4  0
 16 23  4  0
 17 22  4  0
 18 26  4  0
 19 24  4  0
 20 24  4  0
 22 27  4  0
 28 29  4  0
M  END
$$$$

 Created by Python create_sdf_string function

 29 33  0  0  0  0  0  0  0  0999 V2000
   10.7215   -3.3326   17.6437 C   0  0  0  0  0  0  0  0  0  0  0  0
    9.9489   -3.4675   24.6487 N   0  0  0  0  0  0  0  0  0  0  0  0
   10.0172   -4.4740   17.4101 C   0  0  0  0  0  0  0  0  0  0  0  0
    6.9051   -7.9575   16.4222 C   0  0  0  0  0  0  0  0  0  0  0  0
    8.9969   -6.3552   17.9668 N   0  0  0  0  0  0  0  0  0  0  0  0
   10.6702   -3.9051   22.4070 C   0  0  0  0  0  0  0  0  0  0  0  0
   11.0625   -3.0028   18.8894 C   0  0  0  0  0  0  0  0  0  0  0  0
    5.6180   -7.9194   16.1754 O   0  0  0  0  0  0  0  0  0  0  0  0
    9.7259   -5.3080   18.4485 C   0  0  0  0  0  0  0  0  0  0  0  0
    9.4578   -5.0200   16.3036 N   0  0  0  0  0  0  0  0  0  0  0  0
    5.0287   -8.9365   16.8223 C   0  0  0  0  0  0  0  0  0  0  0  0
    8.7742   -6.1498   16.6764 C   0  0  0  0  0  0  0  0  0  0  0  0
   10.9418   -3.4032   21.2053 O   0  0  0  0  0  0  0  0  0  0  0  0
    1.4797   -8.6258   16.2950 C   0  0  0  0  0  0  0  0  0  0  0  0
    9.2861   -1.2743   25.3585 C   0  0  0  0  0  0  0  0  0  0  0  0
    1.8892  -10.3985   17.7511 N   0  0  0  0  0  0  0  0  0  0  0  0
    9.6210   -0.6952   24.0976 C   0  0  0  0  0  0  0  0  0  0  0  0
    7.0792   -9.0217   17.1429 C   0  0  0  0  0  0  0  0  0  0  0  0
    3.1713  -10.1816   17.6634 C   0  0  0  0  0  0  0  0  0  0  0  0
    2.7878   -8.3822   16.2137 C   0  0  0  0  0  0  0  0  0  0  0  0
    9.4601   -2.6590   25.6528 C   0  0  0  0  0  0  0  0  0  0  0  0
   10.1182   -1.5672   23.1165 C   0  0  0  0  0  0  0  0  0  0  0  0
    1.0552   -9.6360   17.0650 C   0  0  0  0  0  0  0  0  0  0  0  0
    3.6519   -9.1783   16.9039 C   0  0  0  0  0  0  0  0  0  0  0  0
    7.8675   -7.0096   15.9415 C   0  0  0  0  0  0  0  0  0  0  0  0
    5.9733   -9.6553   17.3832 N   0  0  0  0  0  0  0  0  0  0  0  0
   10.2411   -2.9363   23.4301 C   0  0  0  0  0  0  0  0  0  0  0  0
   10.7288   -3.8197   19.9525 C   0  0  0  0  0  0  0  0  0  0  0  0
   10.1189   -5.0054   19.6987 C   0  0  0  0  0  0  0  0  0  0  0  0
  1  3  4  0
  1  7  4  0
  2 21  4  0
  2 27  4  0
  3  9  4  0
  3 10  4  0
  4  8  4  0
  4 18  4  0
  4 25  1  0
  5  9  4  0
  5 12  4  0
  6 13  1  0
  6 27  1  0
  7 28  4  0
  8 11  4  0
  9 29  4  0
 10 12  4  0
 11 24  1  0
 11 26  4  0
 12 25  1  0
 13 28  1  0
 14 20  4  0
 14 23  4  0
 15 17  4  0
 15 21  4  0
 16 19  4  0
 16 23  4  0
 17 22  4  0
 18 26  4  0
 19 24  4  0
 20 24  4  0
 22 27  4  0
 28 29  4  0
M  END
$$$$

 Created by Python create_sdf_string function

 29 33  0  0  0  0  0  0  0  0999 V2000
   10.7215   -3.3326   17.6437 C   0  0  0  0  0  0  0  0  0  0  0  0
    9.9489   -3.4675   24.6487 N   0  0  0  0  0  0  0  0  0  0  0  0
   10.0172   -4.4740   17.4101 C   0  0  0  0  0  0  0  0  0  0  0  0
    6.9051   -7.9575   16.4222 C   0  0  0  0  0  0  0  0  0  0  0  0
    8.9969   -6.3552   17.9668 N   0  0  0  0  0  0  0  0  0  0  0  0
   10.6702   -3.9051   22.4070 C   0  0  0  0  0  0  0  0  0  0  0  0
   11.0625   -3.0028   18.8894 C   0  0  0  0  0  0  0  0  0  0  0  0
    5.6180   -7.9194   16.1754 O   0  0  0  0  0  0  0  0  0  0  0  0
    9.7259   -5.3080   18.4485 C   0  0  0  0  0  0  0  0  0  0  0  0
    9.4578   -5.0200   16.3036 N   0  0  0  0  0  0  0  0  0  0  0  0
    5.0287   -8.9365   16.8223 C   0  0  0  0  0  0  0  0  0  0  0  0
    8.7742   -6.1498   16.6764 C   0  0  0  0  0  0  0  0  0  0  0  0
   10.9418   -3.4032   21.2053 O   0  0  0  0  0  0  0  0  0  0  0  0
    1.4797   -8.6258   16.2950 C   0  0  0  0  0  0  0  0  0  0  0  0
    9.2861   -1.2743   25.3585 C   0  0  0  0  0  0  0  0  0  0  0  0
    1.8892  -10.3985   17.7511 N   0  0  0  0  0  0  0  0  0  0  0  0
    9.6210   -0.6952   24.0976 C   0  0  0  0  0  0  0  0  0  0  0  0
    7.0792   -9.0217   17.1429 C   0  0  0  0  0  0  0  0  0  0  0  0
    3.1713  -10.1816   17.6634 C   0  0  0  0  0  0  0  0  0  0  0  0
    2.7878   -8.3822   16.2137 C   0  0  0  0  0  0  0  0  0  0  0  0
    9.4601   -2.6590   25.6528 C   0  0  0  0  0  0  0  0  0  0  0  0
   10.1182   -1.5672   23.1165 C   0  0  0  0  0  0  0  0  0  0  0  0
    1.0552   -9.6360   17.0650 C   0  0  0  0  0  0  0  0  0  0  0  0
    3.6519   -9.1783   16.9039 C   0  0  0  0  0  0  0  0  0  0  0  0
    7.8675   -7.0096   15.9415 C   0  0  0  0  0  0  0  0  0  0  0  0
    5.9733   -9.6553   17.3832 N   0  0  0  0  0  0  0  0  0  0  0  0
   10.2411   -2.9363   23.4301 C   0  0  0  0  0  0  0  0  0  0  0  0
   10.7288   -3.8197   19.9525 C   0  0  0  0  0  0  0  0  0  0  0  0
   10.1189   -5.0054   19.6987 C   0  0  0  0  0  0  0  0  0  0  0  0
  1  3  4  0
  1  7  4  0
  2 21  4  0
  2 27  4  0
  3  9  4  0
  3 10  4  0
  4  8  4  0
  4 18  4  0
  4 25  1  0
  5  9  4  0
  5 12  4  0
  6 13  1  0
  6 27  1  0
  7 28  4  0
  8 11  4  0
  9 29  4  0
 10 12  4  0
 11 24  1  0
 11 26  4  0
 12 25  1  0
 13 28  1  0
 14 20  4  0
 14 23  4  0
 15 17  4  0
 15 21  4  0
 16 19  4  0
 16 23  4  0
 17 22  4  0
 18 26  4  0
 19 24  4  0
 20 24  4  0
 22 27  4  0
 28 29  4  0
M  END
$$$$

 Created by Python create_sdf_string function

 29 33  0  0  0  0  0  0  0  0999 V2000
   10.7215   -3.3326   17.6437 C   0  0  0  0  0  0  0  0  0  0  0  0
    9.9489   -3.4675   24.6487 N   0  0  0  0  0  0  0  0  0  0  0  0
   10.0172   -4.4740   17.4101 C   0  0  0  0  0  0  0  0  0  0  0  0
    6.9051   -7.9575   16.4222 C   0  0  0  0  0  0  0  0  0  0  0  0
    8.9969   -6.3552   17.9668 N   0  0  0  0  0  0  0  0  0  0  0  0
   10.6702   -3.9051   22.4070 C   0  0  0  0  0  0  0  0  0  0  0  0
   11.0625   -3.0028   18.8894 C   0  0  0  0  0  0  0  0  0  0  0  0
    5.6180   -7.9194   16.1754 O   0  0  0  0  0  0  0  0  0  0  0  0
    9.7259   -5.3080   18.4485 C   0  0  0  0  0  0  0  0  0  0  0  0
    9.4578   -5.0200   16.3036 N   0  0  0  0  0  0  0  0  0  0  0  0
    5.0287   -8.9365   16.8223 C   0  0  0  0  0  0  0  0  0  0  0  0
    8.7742   -6.1498   16.6764 C   0  0  0  0  0  0  0  0  0  0  0  0
   10.9418   -3.4032   21.2053 O   0  0  0  0  0  0  0  0  0  0  0  0
    1.4797   -8.6258   16.2950 C   0  0  0  0  0  0  0  0  0  0  0  0
    9.2861   -1.2743   25.3585 C   0  0  0  0  0  0  0  0  0  0  0  0
    1.8892  -10.3985   17.7511 N   0  0  0  0  0  0  0  0  0  0  0  0
    9.6210   -0.6952   24.0976 C   0  0  0  0  0  0  0  0  0  0  0  0
    7.0792   -9.0217   17.1429 C   0  0  0  0  0  0  0  0  0  0  0  0
    3.1713  -10.1816   17.6634 C   0  0  0  0  0  0  0  0  0  0  0  0
    2.7878   -8.3822   16.2137 C   0  0  0  0  0  0  0  0  0  0  0  0
    9.4601   -2.6590   25.6528 C   0  0  0  0  0  0  0  0  0  0  0  0
   10.1182   -1.5672   23.1165 C   0  0  0  0  0  0  0  0  0  0  0  0
    1.0552   -9.6360   17.0650 C   0  0  0  0  0  0  0  0  0  0  0  0
    3.6519   -9.1783   16.9039 C   0  0  0  0  0  0  0  0  0  0  0  0
    7.8675   -7.0096   15.9415 C   0  0  0  0  0  0  0  0  0  0  0  0
    5.9733   -9.6553   17.3832 N   0  0  0  0  0  0  0  0  0  0  0  0
   10.2411   -2.9363   23.4301 C   0  0  0  0  0  0  0  0  0  0  0  0
   10.7288   -3.8197   19.9525 C   0  0  0  0  0  0  0  0  0  0  0  0
   10.1189   -5.0054   19.6987 C   0  0  0  0  0  0  0  0  0  0  0  0
  1  3  4  0
  1  7  4  0
  2 21  4  0
  2 27  4  0
  3  9  4  0
  3 10  4  0
  4  8  4  0
  4 18  4  0
  4 25  1  0
  5  9  4  0
  5 12  4  0
  6 13  1  0
  6 27  1  0
  7 28  4  0
  8 11  4  0
  9 29  4  0
 10 12  4  0
 11 24  1  0
 11 26  4  0
 12 25  1  0
 13 28  1  0
 14 20  4  0
 14 23  4  0
 15 17  4  0
 15 21  4  0
 16 19  4  0
 16 23  4  0
 17 22  4  0
 18 26  4  0
 19 24  4  0
 20 24  4  0
 22 27  4  0
 28 29  4  0
M  END
$$$$

 Created by Python create_sdf_string function

 29 33  0  0  0  0  0  0  0  0999 V2000
   10.7215   -3.3326   17.6437 C   0  0  0  0  0  0  0  0  0  0  0  0
    9.9489   -3.4675   24.6487 N   0  0  0  0  0  0  0  0  0  0  0  0
   10.0172   -4.4740   17.4101 C   0  0  0  0  0  0  0  0  0  0  0  0
    6.9051   -7.9575   16.4222 C   0  0  0  0  0  0  0  0  0  0  0  0
    8.9969   -6.3552   17.9668 N   0  0  0  0  0  0  0  0  0  0  0  0
   10.6702   -3.9051   22.4070 C   0  0  0  0  0  0  0  0  0  0  0  0
   11.0625   -3.0028   18.8894 C   0  0  0  0  0  0  0  0  0  0  0  0
    5.6180   -7.9194   16.1754 O   0  0  0  0  0  0  0  0  0  0  0  0
    9.7259   -5.3080   18.4485 C   0  0  0  0  0  0  0  0  0  0  0  0
    9.4578   -5.0200   16.3036 N   0  0  0  0  0  0  0  0  0  0  0  0
    5.0287   -8.9365   16.8223 C   0  0  0  0  0  0  0  0  0  0  0  0
    8.7742   -6.1498   16.6764 C   0  0  0  0  0  0  0  0  0  0  0  0
   10.9418   -3.4032   21.2053 O   0  0  0  0  0  0  0  0  0  0  0  0
    1.4797   -8.6258   16.2950 C   0  0  0  0  0  0  0  0  0  0  0  0
    9.2861   -1.2743   25.3585 C   0  0  0  0  0  0  0  0  0  0  0  0
    1.8892  -10.3985   17.7511 N   0  0  0  0  0  0  0  0  0  0  0  0
    9.6210   -0.6952   24.0976 C   0  0  0  0  0  0  0  0  0  0  0  0
    7.0792   -9.0217   17.1429 C   0  0  0  0  0  0  0  0  0  0  0  0
    3.1713  -10.1816   17.6634 C   0  0  0  0  0  0  0  0  0  0  0  0
    2.7878   -8.3822   16.2137 C   0  0  0  0  0  0  0  0  0  0  0  0
    9.4601   -2.6590   25.6528 C   0  0  0  0  0  0  0  0  0  0  0  0
   10.1182   -1.5672   23.1165 C   0  0  0  0  0  0  0  0  0  0  0  0
    1.0552   -9.6360   17.0650 C   0  0  0  0  0  0  0  0  0  0  0  0
    3.6519   -9.1783   16.9039 C   0  0  0  0  0  0  0  0  0  0  0  0
    7.8675   -7.0096   15.9415 C   0  0  0  0  0  0  0  0  0  0  0  0
    5.9733   -9.6553   17.3832 N   0  0  0  0  0  0  0  0  0  0  0  0
   10.2411   -2.9363   23.4301 C   0  0  0  0  0  0  0  0  0  0  0  0
   10.7288   -3.8197   19.9525 C   0  0  0  0  0  0  0  0  0  0  0  0
   10.1189   -5.0054   19.6987 C   0  0  0  0  0  0  0  0  0  0  0  0
  1  3  4  0
  1  7  4  0
  2 21  4  0
  2 27  4  0
  3  9  4  0
  3 10  4  0
  4  8  4  0
  4 18  4  0
  4 25  1  0
  5  9  4  0
  5 12  4  0
  6 13  1  0
  6 27  1  0
  7 28  4  0
  8 11  4  0
  9 29  4  0
 10 12  4  0
 11 24  1  0
 11 26  4  0
 12 25  1  0
 13 28  1  0
 14 20  4  0
 14 23  4  0
 15 17  4  0
 15 21  4  0
 16 19  4  0
 16 23  4  0
 17 22  4  0
 18 26  4  0
 19 24  4  0
 20 24  4  0
 22 27  4  0
 28 29  4  0
M  END
$$$$

 Created by Python create_sdf_string function

 29 33  0  0  0  0  0  0  0  0999 V2000
   10.7215   -3.3326   17.6437 C   0  0  0  0  0  0  0  0  0  0  0  0
    9.9489   -3.4675   24.6487 N   0  0  0  0  0  0  0  0  0  0  0  0
   10.0172   -4.4740   17.4101 C   0  0  0  0  0  0  0  0  0  0  0  0
    6.9051   -7.9575   16.4222 C   0  0  0  0  0  0  0  0  0  0  0  0
    8.9969   -6.3552   17.9668 N   0  0  0  0  0  0  0  0  0  0  0  0
   10.6702   -3.9051   22.4070 C   0  0  0  0  0  0  0  0  0  0  0  0
   11.0625   -3.0028   18.8894 C   0  0  0  0  0  0  0  0  0  0  0  0
    5.6180   -7.9194   16.1754 O   0  0  0  0  0  0  0  0  0  0  0  0
    9.7259   -5.3080   18.4485 C   0  0  0  0  0  0  0  0  0  0  0  0
    9.4578   -5.0200   16.3036 N   0  0  0  0  0  0  0  0  0  0  0  0
    5.0287   -8.9365   16.8223 C   0  0  0  0  0  0  0  0  0  0  0  0
    8.7742   -6.1498   16.6764 C   0  0  0  0  0  0  0  0  0  0  0  0
   10.9418   -3.4032   21.2053 O   0  0  0  0  0  0  0  0  0  0  0  0
    1.4797   -8.6258   16.2950 C   0  0  0  0  0  0  0  0  0  0  0  0
    9.2861   -1.2743   25.3585 C   0  0  0  0  0  0  0  0  0  0  0  0
    1.8892  -10.3985   17.7511 N   0  0  0  0  0  0  0  0  0  0  0  0
    9.6210   -0.6952   24.0976 C   0  0  0  0  0  0  0  0  0  0  0  0
    7.0792   -9.0217   17.1429 C   0  0  0  0  0  0  0  0  0  0  0  0
    3.1713  -10.1816   17.6634 C   0  0  0  0  0  0  0  0  0  0  0  0
    2.7878   -8.3822   16.2137 C   0  0  0  0  0  0  0  0  0  0  0  0
    9.4601   -2.6590   25.6528 C   0  0  0  0  0  0  0  0  0  0  0  0
   10.1182   -1.5672   23.1165 C   0  0  0  0  0  0  0  0  0  0  0  0
    1.0552   -9.6360   17.0650 C   0  0  0  0  0  0  0  0  0  0  0  0
    3.6519   -9.1783   16.9039 C   0  0  0  0  0  0  0  0  0  0  0  0
    7.8675   -7.0096   15.9415 C   0  0  0  0  0  0  0  0  0  0  0  0
    5.9733   -9.6553   17.3832 N   0  0  0  0  0  0  0  0  0  0  0  0
   10.2411   -2.9363   23.4301 C   0  0  0  0  0  0  0  0  0  0  0  0
   10.7288   -3.8197   19.9525 C   0  0  0  0  0  0  0  0  0  0  0  0
   10.1189   -5.0054   19.6987 C   0  0  0  0  0  0  0  0  0  0  0  0
  1  3  4  0
  1  7  4  0
  2 21  4  0
  2 27  4  0
  3  9  4  0
  3 10  4  0
  4  8  4  0
  4 18  4  0
  4 25  1  0
  5  9  4  0
  5 12  4  0
  6 13  1  0
  6 27  1  0
  7 28  4  0
  8 11  4  0
  9 29  4  0
 10 12  4  0
 11 24  1  0
 11 26  4  0
 12 25  1  0
 13 28  1  0
 14 20  4  0
 14 23  4  0
 15 17  4  0
 15 21  4  0
 16 19  4  0
 16 23  4  0
 17 22  4  0
 18 26  4  0
 19 24  4  0
 20 24  4  0
 22 27  4  0
 28 29  4  0
M  END
$$$$

 Created by Python create_sdf_string function

 29 33  0  0  0  0  0  0  0  0999 V2000
   10.7215   -3.3326   17.6437 C   0  0  0  0  0  0  0  0  0  0  0  0
    9.9489   -3.4675   24.6487 N   0  0  0  0  0  0  0  0  0  0  0  0
   10.0172   -4.4740   17.4101 C   0  0  0  0  0  0  0  0  0  0  0  0
    6.9051   -7.9575   16.4222 C   0  0  0  0  0  0  0  0  0  0  0  0
    8.9969   -6.3552   17.9668 N   0  0  0  0  0  0  0  0  0  0  0  0
   10.6702   -3.9051   22.4070 C   0  0  0  0  0  0  0  0  0  0  0  0
   11.0625   -3.0028   18.8894 C   0  0  0  0  0  0  0  0  0  0  0  0
    5.6180   -7.9194   16.1754 O   0  0  0  0  0  0  0  0  0  0  0  0
    9.7259   -5.3080   18.4485 C   0  0  0  0  0  0  0  0  0  0  0  0
    9.4578   -5.0200   16.3036 N   0  0  0  0  0  0  0  0  0  0  0  0
    5.0287   -8.9365   16.8223 C   0  0  0  0  0  0  0  0  0  0  0  0
    8.7742   -6.1498   16.6764 C   0  0  0  0  0  0  0  0  0  0  0  0
   10.9418   -3.4032   21.2053 O   0  0  0  0  0  0  0  0  0  0  0  0
    1.4797   -8.6258   16.2950 C   0  0  0  0  0  0  0  0  0  0  0  0
    9.2861   -1.2743   25.3585 C   0  0  0  0  0  0  0  0  0  0  0  0
    1.8892  -10.3985   17.7511 N   0  0  0  0  0  0  0  0  0  0  0  0
    9.6210   -0.6952   24.0976 C   0  0  0  0  0  0  0  0  0  0  0  0
    7.0792   -9.0217   17.1429 C   0  0  0  0  0  0  0  0  0  0  0  0
    3.1713  -10.1816   17.6634 C   0  0  0  0  0  0  0  0  0  0  0  0
    2.7878   -8.3822   16.2137 C   0  0  0  0  0  0  0  0  0  0  0  0
    9.4601   -2.6590   25.6528 C   0  0  0  0  0  0  0  0  0  0  0  0
   10.1182   -1.5672   23.1165 C   0  0  0  0  0  0  0  0  0  0  0  0
    1.0552   -9.6360   17.0650 C   0  0  0  0  0  0  0  0  0  0  0  0
    3.6519   -9.1783   16.9039 C   0  0  0  0  0  0  0  0  0  0  0  0
    7.8675   -7.0096   15.9415 C   0  0  0  0  0  0  0  0  0  0  0  0
    5.9733   -9.6553   17.3832 N   0  0  0  0  0  0  0  0  0  0  0  0
   10.2411   -2.9363   23.4301 C   0  0  0  0  0  0  0  0  0  0  0  0
   10.7288   -3.8197   19.9525 C   0  0  0  0  0  0  0  0  0  0  0  0
   10.1189   -5.0054   19.6987 C   0  0  0  0  0  0  0  0  0  0  0  0
  1  3  4  0
  1  7  4  0
  2 21  4  0
  2 27  4  0
  3  9  4  0
  3 10  4  0
  4  8  4  0
  4 18  4  0
  4 25  1  0
  5  9  4  0
  5 12  4  0
  6 13  1  0
  6 27  1  0
  7 28  4  0
  8 11  4  0
  9 29  4  0
 10 12  4  0
 11 24  1  0
 11 26  4  0
 12 25  1  0
 13 28  1  0
 14 20  4  0
 14 23  4  0
 15 17  4  0
 15 21  4  0
 16 19  4  0
 16 23  4  0
 17 22  4  0
 18 26  4  0
 19 24  4  0
 20 24  4  0
 22 27  4  0
 28 29  4  0
M  END
$$$$

 Created by Python create_sdf_string function

 29 33  0  0  0  0  0  0  0  0999 V2000
   10.7215   -3.3326   17.6437 C   0  0  0  0  0  0  0  0  0  0  0  0
    9.9489   -3.4675   24.6487 N   0  0  0  0  0  0  0  0  0  0  0  0
   10.0172   -4.4740   17.4101 C   0  0  0  0  0  0  0  0  0  0  0  0
    6.9051   -7.9575   16.4222 C   0  0  0  0  0  0  0  0  0  0  0  0
    8.9969   -6.3552   17.9668 N   0  0  0  0  0  0  0  0  0  0  0  0
   10.6702   -3.9051   22.4070 C   0  0  0  0  0  0  0  0  0  0  0  0
   11.0625   -3.0028   18.8894 C   0  0  0  0  0  0  0  0  0  0  0  0
    5.6180   -7.9194   16.1754 O   0  0  0  0  0  0  0  0  0  0  0  0
    9.7259   -5.3080   18.4485 C   0  0  0  0  0  0  0  0  0  0  0  0
    9.4578   -5.0200   16.3036 N   0  0  0  0  0  0  0  0  0  0  0  0
    5.0287   -8.9365   16.8223 C   0  0  0  0  0  0  0  0  0  0  0  0
    8.7742   -6.1498   16.6764 C   0  0  0  0  0  0  0  0  0  0  0  0
   10.9418   -3.4032   21.2053 O   0  0  0  0  0  0  0  0  0  0  0  0
    1.4797   -8.6258   16.2950 C   0  0  0  0  0  0  0  0  0  0  0  0
    9.2861   -1.2743   25.3585 C   0  0  0  0  0  0  0  0  0  0  0  0
    1.8892  -10.3985   17.7511 N   0  0  0  0  0  0  0  0  0  0  0  0
    9.6210   -0.6952   24.0976 C   0  0  0  0  0  0  0  0  0  0  0  0
    7.0792   -9.0217   17.1429 C   0  0  0  0  0  0  0  0  0  0  0  0
    3.1713  -10.1816   17.6634 C   0  0  0  0  0  0  0  0  0  0  0  0
    2.7878   -8.3822   16.2137 C   0  0  0  0  0  0  0  0  0  0  0  0
    9.4601   -2.6590   25.6528 C   0  0  0  0  0  0  0  0  0  0  0  0
   10.1182   -1.5672   23.1165 C   0  0  0  0  0  0  0  0  0  0  0  0
    1.0552   -9.6360   17.0650 C   0  0  0  0  0  0  0  0  0  0  0  0
    3.6519   -9.1783   16.9039 C   0  0  0  0  0  0  0  0  0  0  0  0
    7.8675   -7.0096   15.9415 C   0  0  0  0  0  0  0  0  0  0  0  0
    5.9733   -9.6553   17.3832 N   0  0  0  0  0  0  0  0  0  0  0  0
   10.2411   -2.9363   23.4301 C   0  0  0  0  0  0  0  0  0  0  0  0
   10.7288   -3.8197   19.9525 C   0  0  0  0  0  0  0  0  0  0  0  0
   10.1189   -5.0054   19.6987 C   0  0  0  0  0  0  0  0  0  0  0  0
  1  3  4  0
  1  7  4  0
  2 21  4  0
  2 27  4  0
  3  9  4  0
  3 10  4  0
  4  8  4  0
  4 18  4  0
  4 25  1  0
  5  9  4  0
  5 12  4  0
  6 13  1  0
  6 27  1  0
  7 28  4  0
  8 11  4  0
  9 29  4  0
 10 12  4  0
 11 24  1  0
 11 26  4  0
 12 25  1  0
 13 28  1  0
 14 20  4  0
 14 23  4  0
 15 17  4  0
 15 21  4  0
 16 19  4  0
 16 23  4  0
 17 22  4  0
 18 26  4  0
 19 24  4  0
 20 24  4  0
 22 27  4  0
 28 29  4  0
M  END
$$$$

 Created by Python create_sdf_string function

 29 33  0  0  0  0  0  0  0  0999 V2000
   10.7215   -3.3326   17.6437 C   0  0  0  0  0  0  0  0  0  0  0  0
    9.9489   -3.4675   24.6487 N   0  0  0  0  0  0  0  0  0  0  0  0
   10.0172   -4.4740   17.4101 C   0  0  0  0  0  0  0  0  0  0  0  0
    6.9051   -7.9575   16.4222 C   0  0  0  0  0  0  0  0  0  0  0  0
    8.9969   -6.3552   17.9668 N   0  0  0  0  0  0  0  0  0  0  0  0
   10.6702   -3.9051   22.4070 C   0  0  0  0  0  0  0  0  0  0  0  0
   11.0625   -3.0028   18.8894 C   0  0  0  0  0  0  0  0  0  0  0  0
    5.6180   -7.9194   16.1754 O   0  0  0  0  0  0  0  0  0  0  0  0
    9.7259   -5.3080   18.4485 C   0  0  0  0  0  0  0  0  0  0  0  0
    9.4578   -5.0200   16.3036 N   0  0  0  0  0  0  0  0  0  0  0  0
    5.0287   -8.9365   16.8223 C   0  0  0  0  0  0  0  0  0  0  0  0
    8.7742   -6.1498   16.6764 C   0  0  0  0  0  0  0  0  0  0  0  0
   10.9418   -3.4032   21.2053 O   0  0  0  0  0  0  0  0  0  0  0  0
    1.4797   -8.6258   16.2950 C   0  0  0  0  0  0  0  0  0  0  0  0
    9.2861   -1.2743   25.3585 C   0  0  0  0  0  0  0  0  0  0  0  0
    1.8892  -10.3985   17.7511 N   0  0  0  0  0  0  0  0  0  0  0  0
    9.6210   -0.6952   24.0976 C   0  0  0  0  0  0  0  0  0  0  0  0
    7.0792   -9.0217   17.1429 C   0  0  0  0  0  0  0  0  0  0  0  0
    3.1713  -10.1816   17.6634 C   0  0  0  0  0  0  0  0  0  0  0  0
    2.7878   -8.3822   16.2137 C   0  0  0  0  0  0  0  0  0  0  0  0
    9.4601   -2.6590   25.6528 C   0  0  0  0  0  0  0  0  0  0  0  0
   10.1182   -1.5672   23.1165 C   0  0  0  0  0  0  0  0  0  0  0  0
    1.0552   -9.6360   17.0650 C   0  0  0  0  0  0  0  0  0  0  0  0
    3.6519   -9.1783   16.9039 C   0  0  0  0  0  0  0  0  0  0  0  0
    7.8675   -7.0096   15.9415 C   0  0  0  0  0  0  0  0  0  0  0  0
    5.9733   -9.6553   17.3832 N   0  0  0  0  0  0  0  0  0  0  0  0
   10.2411   -2.9363   23.4301 C   0  0  0  0  0  0  0  0  0  0  0  0
   10.7288   -3.8197   19.9525 C   0  0  0  0  0  0  0  0  0  0  0  0
   10.1189   -5.0054   19.6987 C   0  0  0  0  0  0  0  0  0  0  0  0
  1  3  4  0
  1  7  4  0
  2 21  4  0
  2 27  4  0
  3  9  4  0
  3 10  4  0
  4  8  4  0
  4 18  4  0
  4 25  1  0
  5  9  4  0
  5 12  4  0
  6 13  1  0
  6 27  1  0
  7 28  4  0
  8 11  4  0
  9 29  4  0
 10 12  4  0
 11 24  1  0
 11 26  4  0
 12 25  1  0
 13 28  1  0
 14 20  4  0
 14 23  4  0
 15 17  4  0
 15 21  4  0
 16 19  4  0
 16 23  4  0
 17 22  4  0
 18 26  4  0
 19 24  4  0
 20 24  4  0
 22 27  4  0
 28 29  4  0
M  END
$$$$

 Created by Python create_sdf_string function

 29 33  0  0  0  0  0  0  0  0999 V2000
   10.7215   -3.3326   17.6437 C   0  0  0  0  0  0  0  0  0  0  0  0
    9.9489   -3.4675   24.6487 N   0  0  0  0  0  0  0  0  0  0  0  0
   10.0172   -4.4740   17.4101 C   0  0  0  0  0  0  0  0  0  0  0  0
    6.9051   -7.9575   16.4222 C   0  0  0  0  0  0  0  0  0  0  0  0
    8.9969   -6.3552   17.9668 N   0  0  0  0  0  0  0  0  0  0  0  0
   10.6702   -3.9051   22.4070 C   0  0  0  0  0  0  0  0  0  0  0  0
   11.0625   -3.0028   18.8894 C   0  0  0  0  0  0  0  0  0  0  0  0
    5.6180   -7.9194   16.1754 O   0  0  0  0  0  0  0  0  0  0  0  0
    9.7259   -5.3080   18.4485 C   0  0  0  0  0  0  0  0  0  0  0  0
    9.4578   -5.0200   16.3036 N   0  0  0  0  0  0  0  0  0  0  0  0
    5.0287   -8.9365   16.8223 C   0  0  0  0  0  0  0  0  0  0  0  0
    8.7742   -6.1498   16.6764 C   0  0  0  0  0  0  0  0  0  0  0  0
   10.9418   -3.4032   21.2053 O   0  0  0  0  0  0  0  0  0  0  0  0
    1.4797   -8.6258   16.2950 C   0  0  0  0  0  0  0  0  0  0  0  0
    9.2861   -1.2743   25.3585 C   0  0  0  0  0  0  0  0  0  0  0  0
    1.8892  -10.3985   17.7511 N   0  0  0  0  0  0  0  0  0  0  0  0
    9.6210   -0.6952   24.0976 C   0  0  0  0  0  0  0  0  0  0  0  0
    7.0792   -9.0217   17.1429 C   0  0  0  0  0  0  0  0  0  0  0  0
    3.1713  -10.1816   17.6634 C   0  0  0  0  0  0  0  0  0  0  0  0
    2.7878   -8.3822   16.2137 C   0  0  0  0  0  0  0  0  0  0  0  0
    9.4601   -2.6590   25.6528 C   0  0  0  0  0  0  0  0  0  0  0  0
   10.1182   -1.5672   23.1165 C   0  0  0  0  0  0  0  0  0  0  0  0
    1.0552   -9.6360   17.0650 C   0  0  0  0  0  0  0  0  0  0  0  0
    3.6519   -9.1783   16.9039 C   0  0  0  0  0  0  0  0  0  0  0  0
    7.8675   -7.0096   15.9415 C   0  0  0  0  0  0  0  0  0  0  0  0
    5.9733   -9.6553   17.3832 N   0  0  0  0  0  0  0  0  0  0  0  0
   10.2411   -2.9363   23.4301 C   0  0  0  0  0  0  0  0  0  0  0  0
   10.7288   -3.8197   19.9525 C   0  0  0  0  0  0  0  0  0  0  0  0
   10.1189   -5.0054   19.6987 C   0  0  0  0  0  0  0  0  0  0  0  0
  1  3  4  0
  1  7  4  0
  2 21  4  0
  2 27  4  0
  3  9  4  0
  3 10  4  0
  4  8  4  0
  4 18  4  0
  4 25  1  0
  5  9  4  0
  5 12  4  0
  6 13  1  0
  6 27  1  0
  7 28  4  0
  8 11  4  0
  9 29  4  0
 10 12  4  0
 11 24  1  0
 11 26  4  0
 12 25  1  0
 13 28  1  0
 14 20  4  0
 14 23  4  0
 15 17  4  0
 15 21  4  0
 16 19  4  0
 16 23  4  0
 17 22  4  0
 18 26  4  0
 19 24  4  0
 20 24  4  0
 22 27  4  0
 28 29  4  0
M  END
$$$$

 Created by Python create_sdf_string function

 29 33  0  0  0  0  0  0  0  0999 V2000
   10.7215   -3.3326   17.6437 C   0  0  0  0  0  0  0  0  0  0  0  0
    9.9489   -3.4675   24.6487 N   0  0  0  0  0  0  0  0  0  0  0  0
   10.0172   -4.4740   17.4101 C   0  0  0  0  0  0  0  0  0  0  0  0
    6.9051   -7.9575   16.4222 C   0  0  0  0  0  0  0  0  0  0  0  0
    8.9969   -6.3552   17.9668 N   0  0  0  0  0  0  0  0  0  0  0  0
   10.6702   -3.9051   22.4070 C   0  0  0  0  0  0  0  0  0  0  0  0
   11.0625   -3.0028   18.8894 C   0  0  0  0  0  0  0  0  0  0  0  0
    5.6180   -7.9194   16.1754 O   0  0  0  0  0  0  0  0  0  0  0  0
    9.7259   -5.3080   18.4485 C   0  0  0  0  0  0  0  0  0  0  0  0
    9.4578   -5.0200   16.3036 N   0  0  0  0  0  0  0  0  0  0  0  0
    5.0287   -8.9365   16.8223 C   0  0  0  0  0  0  0  0  0  0  0  0
    8.7742   -6.1498   16.6764 C   0  0  0  0  0  0  0  0  0  0  0  0
   10.9418   -3.4032   21.2053 O   0  0  0  0  0  0  0  0  0  0  0  0
    1.4797   -8.6258   16.2950 C   0  0  0  0  0  0  0  0  0  0  0  0
    9.2861   -1.2743   25.3585 C   0  0  0  0  0  0  0  0  0  0  0  0
    1.8892  -10.3985   17.7511 N   0  0  0  0  0  0  0  0  0  0  0  0
    9.6210   -0.6952   24.0976 C   0  0  0  0  0  0  0  0  0  0  0  0
    7.0792   -9.0217   17.1429 C   0  0  0  0  0  0  0  0  0  0  0  0
    3.1713  -10.1816   17.6634 C   0  0  0  0  0  0  0  0  0  0  0  0
    2.7878   -8.3822   16.2137 C   0  0  0  0  0  0  0  0  0  0  0  0
    9.4601   -2.6590   25.6528 C   0  0  0  0  0  0  0  0  0  0  0  0
   10.1182   -1.5672   23.1165 C   0  0  0  0  0  0  0  0  0  0  0  0
    1.0552   -9.6360   17.0650 C   0  0  0  0  0  0  0  0  0  0  0  0
    3.6519   -9.1783   16.9039 C   0  0  0  0  0  0  0  0  0  0  0  0
    7.8675   -7.0096   15.9415 C   0  0  0  0  0  0  0  0  0  0  0  0
    5.9733   -9.6553   17.3832 N   0  0  0  0  0  0  0  0  0  0  0  0
   10.2411   -2.9363   23.4301 C   0  0  0  0  0  0  0  0  0  0  0  0
   10.7288   -3.8197   19.9525 C   0  0  0  0  0  0  0  0  0  0  0  0
   10.1189   -5.0054   19.6987 C   0  0  0  0  0  0  0  0  0  0  0  0
  1  3  4  0
  1  7  4  0
  2 21  4  0
  2 27  4  0
  3  9  4  0
  3 10  4  0
  4  8  4  0
  4 18  4  0
  4 25  1  0
  5  9  4  0
  5 12  4  0
  6 13  1  0
  6 27  1  0
  7 28  4  0
  8 11  4  0
  9 29  4  0
 10 12  4  0
 11 24  1  0
 11 26  4  0
 12 25  1  0
 13 28  1  0
 14 20  4  0
 14 23  4  0
 15 17  4  0
 15 21  4  0
 16 19  4  0
 16 23  4  0
 17 22  4  0
 18 26  4  0
 19 24  4  0
 20 24  4  0
 22 27  4  0
 28 29  4  0
M  END
$$$$

 Created by Python create_sdf_string function

 29 33  0  0  0  0  0  0  0  0999 V2000
   10.7215   -3.3326   17.6437 C   0  0  0  0  0  0  0  0  0  0  0  0
    9.9489   -3.4675   24.6487 N   0  0  0  0  0  0  0  0  0  0  0  0
   10.0172   -4.4740   17.4101 C   0  0  0  0  0  0  0  0  0  0  0  0
    6.9051   -7.9575   16.4222 C   0  0  0  0  0  0  0  0  0  0  0  0
    8.9969   -6.3552   17.9668 N   0  0  0  0  0  0  0  0  0  0  0  0
   10.6702   -3.9051   22.4070 C   0  0  0  0  0  0  0  0  0  0  0  0
   11.0625   -3.0028   18.8894 C   0  0  0  0  0  0  0  0  0  0  0  0
    5.6180   -7.9194   16.1754 O   0  0  0  0  0  0  0  0  0  0  0  0
    9.7259   -5.3080   18.4485 C   0  0  0  0  0  0  0  0  0  0  0  0
    9.4578   -5.0200   16.3036 N   0  0  0  0  0  0  0  0  0  0  0  0
    5.0287   -8.9365   16.8223 C   0  0  0  0  0  0  0  0  0  0  0  0
    8.7742   -6.1498   16.6764 C   0  0  0  0  0  0  0  0  0  0  0  0
   10.9418   -3.4032   21.2053 O   0  0  0  0  0  0  0  0  0  0  0  0
    1.4797   -8.6258   16.2950 C   0  0  0  0  0  0  0  0  0  0  0  0
    9.2861   -1.2743   25.3585 C   0  0  0  0  0  0  0  0  0  0  0  0
    1.8892  -10.3985   17.7511 N   0  0  0  0  0  0  0  0  0  0  0  0
    9.6210   -0.6952   24.0976 C   0  0  0  0  0  0  0  0  0  0  0  0
    7.0792   -9.0217   17.1429 C   0  0  0  0  0  0  0  0  0  0  0  0
    3.1713  -10.1816   17.6634 C   0  0  0  0  0  0  0  0  0  0  0  0
    2.7878   -8.3822   16.2137 C   0  0  0  0  0  0  0  0  0  0  0  0
    9.4601   -2.6590   25.6528 C   0  0  0  0  0  0  0  0  0  0  0  0
   10.1182   -1.5672   23.1165 C   0  0  0  0  0  0  0  0  0  0  0  0
    1.0552   -9.6360   17.0650 C   0  0  0  0  0  0  0  0  0  0  0  0
    3.6519   -9.1783   16.9039 C   0  0  0  0  0  0  0  0  0  0  0  0
    7.8675   -7.0096   15.9415 C   0  0  0  0  0  0  0  0  0  0  0  0
    5.9733   -9.6553   17.3832 N   0  0  0  0  0  0  0  0  0  0  0  0
   10.2411   -2.9363   23.4301 C   0  0  0  0  0  0  0  0  0  0  0  0
   10.7288   -3.8197   19.9525 C   0  0  0  0  0  0  0  0  0  0  0  0
   10.1189   -5.0054   19.6987 C   0  0  0  0  0  0  0  0  0  0  0  0
  1  3  4  0
  1  7  4  0
  2 21  4  0
  2 27  4  0
  3  9  4  0
  3 10  4  0
  4  8  4  0
  4 18  4  0
  4 25  1  0
  5  9  4  0
  5 12  4  0
  6 13  1  0
  6 27  1  0
  7 28  4  0
  8 11  4  0
  9 29  4  0
 10 12  4  0
 11 24  1  0
 11 26  4  0
 12 25  1  0
 13 28  1  0
 14 20  4  0
 14 23  4  0
 15 17  4  0
 15 21  4  0
 16 19  4  0
 16 23  4  0
 17 22  4  0
 18 26  4  0
 19 24  4  0
 20 24  4  0
 22 27  4  0
 28 29  4  0
M  END
$$$$

 Created by Python create_sdf_string function

 29 33  0  0  0  0  0  0  0  0999 V2000
   10.7215   -3.3326   17.6437 C   0  0  0  0  0  0  0  0  0  0  0  0
    9.9489   -3.4675   24.6487 N   0  0  0  0  0  0  0  0  0  0  0  0
   10.0172   -4.4740   17.4101 C   0  0  0  0  0  0  0  0  0  0  0  0
    6.9051   -7.9575   16.4222 C   0  0  0  0  0  0  0  0  0  0  0  0
    8.9969   -6.3552   17.9668 N   0  0  0  0  0  0  0  0  0  0  0  0
   10.6702   -3.9051   22.4070 C   0  0  0  0  0  0  0  0  0  0  0  0
   11.0625   -3.0028   18.8894 C   0  0  0  0  0  0  0  0  0  0  0  0
    5.6180   -7.9194   16.1754 O   0  0  0  0  0  0  0  0  0  0  0  0
    9.7259   -5.3080   18.4485 C   0  0  0  0  0  0  0  0  0  0  0  0
    9.4578   -5.0200   16.3036 N   0  0  0  0  0  0  0  0  0  0  0  0
    5.0287   -8.9365   16.8223 C   0  0  0  0  0  0  0  0  0  0  0  0
    8.7742   -6.1498   16.6764 C   0  0  0  0  0  0  0  0  0  0  0  0
   10.9418   -3.4032   21.2053 O   0  0  0  0  0  0  0  0  0  0  0  0
    1.4797   -8.6258   16.2950 C   0  0  0  0  0  0  0  0  0  0  0  0
    9.2861   -1.2743   25.3585 C   0  0  0  0  0  0  0  0  0  0  0  0
    1.8892  -10.3985   17.7511 N   0  0  0  0  0  0  0  0  0  0  0  0
    9.6210   -0.6952   24.0976 C   0  0  0  0  0  0  0  0  0  0  0  0
    7.0792   -9.0217   17.1429 C   0  0  0  0  0  0  0  0  0  0  0  0
    3.1713  -10.1816   17.6634 C   0  0  0  0  0  0  0  0  0  0  0  0
    2.7878   -8.3822   16.2137 C   0  0  0  0  0  0  0  0  0  0  0  0
    9.4601   -2.6590   25.6528 C   0  0  0  0  0  0  0  0  0  0  0  0
   10.1182   -1.5672   23.1165 C   0  0  0  0  0  0  0  0  0  0  0  0
    1.0552   -9.6360   17.0650 C   0  0  0  0  0  0  0  0  0  0  0  0
    3.6519   -9.1783   16.9039 C   0  0  0  0  0  0  0  0  0  0  0  0
    7.8675   -7.0096   15.9415 C   0  0  0  0  0  0  0  0  0  0  0  0
    5.9733   -9.6553   17.3832 N   0  0  0  0  0  0  0  0  0  0  0  0
   10.2411   -2.9363   23.4301 C   0  0  0  0  0  0  0  0  0  0  0  0
   10.7288   -3.8197   19.9525 C   0  0  0  0  0  0  0  0  0  0  0  0
   10.1189   -5.0054   19.6987 C   0  0  0  0  0  0  0  0  0  0  0  0
  1  3  4  0
  1  7  4  0
  2 21  4  0
  2 27  4  0
  3  9  4  0
  3 10  4  0
  4  8  4  0
  4 18  4  0
  4 25  1  0
  5  9  4  0
  5 12  4  0
  6 13  1  0
  6 27  1  0
  7 28  4  0
  8 11  4  0
  9 29  4  0
 10 12  4  0
 11 24  1  0
 11 26  4  0
 12 25  1  0
 13 28  1  0
 14 20  4  0
 14 23  4  0
 15 17  4  0
 15 21  4  0
 16 19  4  0
 16 23  4  0
 17 22  4  0
 18 26  4  0
 19 24  4  0
 20 24  4  0
 22 27  4  0
 28 29  4  0
M  END
$$$$

 Created by Python create_sdf_string function

 29 33  0  0  0  0  0  0  0  0999 V2000
   10.7215   -3.3326   17.6437 C   0  0  0  0  0  0  0  0  0  0  0  0
    9.9489   -3.4675   24.6487 N   0  0  0  0  0  0  0  0  0  0  0  0
   10.0172   -4.4740   17.4101 C   0  0  0  0  0  0  0  0  0  0  0  0
    6.9051   -7.9575   16.4222 C   0  0  0  0  0  0  0  0  0  0  0  0
    8.9969   -6.3552   17.9668 N   0  0  0  0  0  0  0  0  0  0  0  0
   10.6702   -3.9051   22.4070 C   0  0  0  0  0  0  0  0  0  0  0  0
   11.0625   -3.0028   18.8894 C   0  0  0  0  0  0  0  0  0  0  0  0
    5.6180   -7.9194   16.1754 O   0  0  0  0  0  0  0  0  0  0  0  0
    9.7259   -5.3080   18.4485 C   0  0  0  0  0  0  0  0  0  0  0  0
    9.4578   -5.0200   16.3036 N   0  0  0  0  0  0  0  0  0  0  0  0
    5.0287   -8.9365   16.8223 C   0  0  0  0  0  0  0  0  0  0  0  0
    8.7742   -6.1498   16.6764 C   0  0  0  0  0  0  0  0  0  0  0  0
   10.9418   -3.4032   21.2053 O   0  0  0  0  0  0  0  0  0  0  0  0
    1.4797   -8.6258   16.2950 C   0  0  0  0  0  0  0  0  0  0  0  0
    9.2861   -1.2743   25.3585 C   0  0  0  0  0  0  0  0  0  0  0  0
    1.8892  -10.3985   17.7511 N   0  0  0  0  0  0  0  0  0  0  0  0
    9.6210   -0.6952   24.0976 C   0  0  0  0  0  0  0  0  0  0  0  0
    7.0792   -9.0217   17.1429 C   0  0  0  0  0  0  0  0  0  0  0  0
    3.1713  -10.1816   17.6634 C   0  0  0  0  0  0  0  0  0  0  0  0
    2.7878   -8.3822   16.2137 C   0  0  0  0  0  0  0  0  0  0  0  0
    9.4601   -2.6590   25.6528 C   0  0  0  0  0  0  0  0  0  0  0  0
   10.1182   -1.5672   23.1165 C   0  0  0  0  0  0  0  0  0  0  0  0
    1.0552   -9.6360   17.0650 C   0  0  0  0  0  0  0  0  0  0  0  0
    3.6519   -9.1783   16.9039 C   0  0  0  0  0  0  0  0  0  0  0  0
    7.8675   -7.0096   15.9415 C   0  0  0  0  0  0  0  0  0  0  0  0
    5.9733   -9.6553   17.3832 N   0  0  0  0  0  0  0  0  0  0  0  0
   10.2411   -2.9363   23.4301 C   0  0  0  0  0  0  0  0  0  0  0  0
   10.7288   -3.8197   19.9525 C   0  0  0  0  0  0  0  0  0  0  0  0
   10.1189   -5.0054   19.6987 C   0  0  0  0  0  0  0  0  0  0  0  0
  1  3  4  0
  1  7  4  0
  2 21  4  0
  2 27  4  0
  3  9  4  0
  3 10  4  0
  4  8  4  0
  4 18  4  0
  4 25  1  0
  5  9  4  0
  5 12  4  0
  6 13  1  0
  6 27  1  0
  7 28  4  0
  8 11  4  0
  9 29  4  0
 10 12  4  0
 11 24  1  0
 11 26  4  0
 12 25  1  0
 13 28  1  0
 14 20  4  0
 14 23  4  0
 15 17  4  0
 15 21  4  0
 16 19  4  0
 16 23  4  0
 17 22  4  0
 18 26  4  0
 19 24  4  0
 20 24  4  0
 22 27  4  0
 28 29  4  0
M  END
$$$$

 Created by Python create_sdf_string function

 29 33  0  0  0  0  0  0  0  0999 V2000
   10.7215   -3.3326   17.6437 C   0  0  0  0  0  0  0  0  0  0  0  0
    9.9489   -3.4675   24.6487 N   0  0  0  0  0  0  0  0  0  0  0  0
   10.0172   -4.4740   17.4101 C   0  0  0  0  0  0  0  0  0  0  0  0
    6.9051   -7.9575   16.4222 C   0  0  0  0  0  0  0  0  0  0  0  0
    8.9969   -6.3552   17.9668 N   0  0  0  0  0  0  0  0  0  0  0  0
   10.6702   -3.9051   22.4070 C   0  0  0  0  0  0  0  0  0  0  0  0
   11.0625   -3.0028   18.8894 C   0  0  0  0  0  0  0  0  0  0  0  0
    5.6180   -7.9194   16.1754 O   0  0  0  0  0  0  0  0  0  0  0  0
    9.7259   -5.3080   18.4485 C   0  0  0  0  0  0  0  0  0  0  0  0
    9.4578   -5.0200   16.3036 N   0  0  0  0  0  0  0  0  0  0  0  0
    5.0287   -8.9365   16.8223 C   0  0  0  0  0  0  0  0  0  0  0  0
    8.7742   -6.1498   16.6764 C   0  0  0  0  0  0  0  0  0  0  0  0
   10.9418   -3.4032   21.2053 O   0  0  0  0  0  0  0  0  0  0  0  0
    1.4797   -8.6258   16.2950 C   0  0  0  0  0  0  0  0  0  0  0  0
    9.2861   -1.2743   25.3585 C   0  0  0  0  0  0  0  0  0  0  0  0
    1.8892  -10.3985   17.7511 N   0  0  0  0  0  0  0  0  0  0  0  0
    9.6210   -0.6952   24.0976 C   0  0  0  0  0  0  0  0  0  0  0  0
    7.0792   -9.0217   17.1429 C   0  0  0  0  0  0  0  0  0  0  0  0
    3.1713  -10.1816   17.6634 C   0  0  0  0  0  0  0  0  0  0  0  0
    2.7878   -8.3822   16.2137 C   0  0  0  0  0  0  0  0  0  0  0  0
    9.4601   -2.6590   25.6528 C   0  0  0  0  0  0  0  0  0  0  0  0
   10.1182   -1.5672   23.1165 C   0  0  0  0  0  0  0  0  0  0  0  0
    1.0552   -9.6360   17.0650 C   0  0  0  0  0  0  0  0  0  0  0  0
    3.6519   -9.1783   16.9039 C   0  0  0  0  0  0  0  0  0  0  0  0
    7.8675   -7.0096   15.9415 C   0  0  0  0  0  0  0  0  0  0  0  0
    5.9733   -9.6553   17.3832 N   0  0  0  0  0  0  0  0  0  0  0  0
   10.2411   -2.9363   23.4301 C   0  0  0  0  0  0  0  0  0  0  0  0
   10.7288   -3.8197   19.9525 C   0  0  0  0  0  0  0  0  0  0  0  0
   10.1189   -5.0054   19.6987 C   0  0  0  0  0  0  0  0  0  0  0  0
  1  3  4  0
  1  7  4  0
  2 21  4  0
  2 27  4  0
  3  9  4  0
  3 10  4  0
  4  8  4  0
  4 18  4  0
  4 25  1  0
  5  9  4  0
  5 12  4  0
  6 13  1  0
  6 27  1  0
  7 28  4  0
  8 11  4  0
  9 29  4  0
 10 12  4  0
 11 24  1  0
 11 26  4  0
 12 25  1  0
 13 28  1  0
 14 20  4  0
 14 23  4  0
 15 17  4  0
 15 21  4  0
 16 19  4  0
 16 23  4  0
 17 22  4  0
 18 26  4  0
 19 24  4  0
 20 24  4  0
 22 27  4  0
 28 29  4  0
M  END
$$$$

 Created by Python create_sdf_string function

 29 33  0  0  0  0  0  0  0  0999 V2000
   10.7215   -3.3326   17.6437 C   0  0  0  0  0  0  0  0  0  0  0  0
    9.9489   -3.4675   24.6487 N   0  0  0  0  0  0  0  0  0  0  0  0
   10.0172   -4.4740   17.4101 C   0  0  0  0  0  0  0  0  0  0  0  0
    6.9051   -7.9575   16.4222 C   0  0  0  0  0  0  0  0  0  0  0  0
    8.9969   -6.3552   17.9668 N   0  0  0  0  0  0  0  0  0  0  0  0
   10.6702   -3.9051   22.4070 C   0  0  0  0  0  0  0  0  0  0  0  0
   11.0625   -3.0028   18.8894 C   0  0  0  0  0  0  0  0  0  0  0  0
    5.6180   -7.9194   16.1754 O   0  0  0  0  0  0  0  0  0  0  0  0
    9.7259   -5.3080   18.4485 C   0  0  0  0  0  0  0  0  0  0  0  0
    9.4578   -5.0200   16.3036 N   0  0  0  0  0  0  0  0  0  0  0  0
    5.0287   -8.9365   16.8223 C   0  0  0  0  0  0  0  0  0  0  0  0
    8.7742   -6.1498   16.6764 C   0  0  0  0  0  0  0  0  0  0  0  0
   10.9418   -3.4032   21.2053 O   0  0  0  0  0  0  0  0  0  0  0  0
    1.4797   -8.6258   16.2950 C   0  0  0  0  0  0  0  0  0  0  0  0
    9.2861   -1.2743   25.3585 C   0  0  0  0  0  0  0  0  0  0  0  0
    1.8892  -10.3985   17.7511 N   0  0  0  0  0  0  0  0  0  0  0  0
    9.6210   -0.6952   24.0976 C   0  0  0  0  0  0  0  0  0  0  0  0
    7.0792   -9.0217   17.1429 C   0  0  0  0  0  0  0  0  0  0  0  0
    3.1713  -10.1816   17.6634 C   0  0  0  0  0  0  0  0  0  0  0  0
    2.7878   -8.3822   16.2137 C   0  0  0  0  0  0  0  0  0  0  0  0
    9.4601   -2.6590   25.6528 C   0  0  0  0  0  0  0  0  0  0  0  0
   10.1182   -1.5672   23.1165 C   0  0  0  0  0  0  0  0  0  0  0  0
    1.0552   -9.6360   17.0650 C   0  0  0  0  0  0  0  0  0  0  0  0
    3.6519   -9.1783   16.9039 C   0  0  0  0  0  0  0  0  0  0  0  0
    7.8675   -7.0096   15.9415 C   0  0  0  0  0  0  0  0  0  0  0  0
    5.9733   -9.6553   17.3832 N   0  0  0  0  0  0  0  0  0  0  0  0
   10.2411   -2.9363   23.4301 C   0  0  0  0  0  0  0  0  0  0  0  0
   10.7288   -3.8197   19.9525 C   0  0  0  0  0  0  0  0  0  0  0  0
   10.1189   -5.0054   19.6987 C   0  0  0  0  0  0  0  0  0  0  0  0
  1  3  4  0
  1  7  4  0
  2 21  4  0
  2 27  4  0
  3  9  4  0
  3 10  4  0
  4  8  4  0
  4 18  4  0
  4 25  1  0
  5  9  4  0
  5 12  4  0
  6 13  1  0
  6 27  1  0
  7 28  4  0
  8 11  4  0
  9 29  4  0
 10 12  4  0
 11 24  1  0
 11 26  4  0
 12 25  1  0
 13 28  1  0
 14 20  4  0
 14 23  4  0
 15 17  4  0
 15 21  4  0
 16 19  4  0
 16 23  4  0
 17 22  4  0
 18 26  4  0
 19 24  4  0
 20 24  4  0
 22 27  4  0
 28 29  4  0
M  END
$$$$

 Created by Python create_sdf_string function

 29 33  0  0  0  0  0  0  0  0999 V2000
   10.7215   -3.3326   17.6437 C   0  0  0  0  0  0  0  0  0  0  0  0
    9.9489   -3.4675   24.6487 N   0  0  0  0  0  0  0  0  0  0  0  0
   10.0172   -4.4740   17.4101 C   0  0  0  0  0  0  0  0  0  0  0  0
    6.9051   -7.9575   16.4222 C   0  0  0  0  0  0  0  0  0  0  0  0
    8.9969   -6.3552   17.9668 N   0  0  0  0  0  0  0  0  0  0  0  0
   10.6702   -3.9051   22.4070 C   0  0  0  0  0  0  0  0  0  0  0  0
   11.0625   -3.0028   18.8894 C   0  0  0  0  0  0  0  0  0  0  0  0
    5.6180   -7.9194   16.1754 O   0  0  0  0  0  0  0  0  0  0  0  0
    9.7259   -5.3080   18.4485 C   0  0  0  0  0  0  0  0  0  0  0  0
    9.4578   -5.0200   16.3036 N   0  0  0  0  0  0  0  0  0  0  0  0
    5.0287   -8.9365   16.8223 C   0  0  0  0  0  0  0  0  0  0  0  0
    8.7742   -6.1498   16.6764 C   0  0  0  0  0  0  0  0  0  0  0  0
   10.9418   -3.4032   21.2053 O   0  0  0  0  0  0  0  0  0  0  0  0
    1.4797   -8.6258   16.2950 C   0  0  0  0  0  0  0  0  0  0  0  0
    9.2861   -1.2743   25.3585 C   0  0  0  0  0  0  0  0  0  0  0  0
    1.8892  -10.3985   17.7511 N   0  0  0  0  0  0  0  0  0  0  0  0
    9.6210   -0.6952   24.0976 C   0  0  0  0  0  0  0  0  0  0  0  0
    7.0792   -9.0217   17.1429 C   0  0  0  0  0  0  0  0  0  0  0  0
    3.1713  -10.1816   17.6634 C   0  0  0  0  0  0  0  0  0  0  0  0
    2.7878   -8.3822   16.2137 C   0  0  0  0  0  0  0  0  0  0  0  0
    9.4601   -2.6590   25.6528 C   0  0  0  0  0  0  0  0  0  0  0  0
   10.1182   -1.5672   23.1165 C   0  0  0  0  0  0  0  0  0  0  0  0
    1.0552   -9.6360   17.0650 C   0  0  0  0  0  0  0  0  0  0  0  0
    3.6519   -9.1783   16.9039 C   0  0  0  0  0  0  0  0  0  0  0  0
    7.8675   -7.0096   15.9415 C   0  0  0  0  0  0  0  0  0  0  0  0
    5.9733   -9.6553   17.3832 N   0  0  0  0  0  0  0  0  0  0  0  0
   10.2411   -2.9363   23.4301 C   0  0  0  0  0  0  0  0  0  0  0  0
   10.7288   -3.8197   19.9525 C   0  0  0  0  0  0  0  0  0  0  0  0
   10.1189   -5.0054   19.6987 C   0  0  0  0  0  0  0  0  0  0  0  0
  1  3  4  0
  1  7  4  0
  2 21  4  0
  2 27  4  0
  3  9  4  0
  3 10  4  0
  4  8  4  0
  4 18  4  0
  4 25  1  0
  5  9  4  0
  5 12  4  0
  6 13  1  0
  6 27  1  0
  7 28  4  0
  8 11  4  0
  9 29  4  0
 10 12  4  0
 11 24  1  0
 11 26  4  0
 12 25  1  0
 13 28  1  0
 14 20  4  0
 14 23  4  0
 15 17  4  0
 15 21  4  0
 16 19  4  0
 16 23  4  0
 17 22  4  0
 18 26  4  0
 19 24  4  0
 20 24  4  0
 22 27  4  0
 28 29  4  0
M  END
$$$$

 Created by Python create_sdf_string function

 29 33  0  0  0  0  0  0  0  0999 V2000
   10.7215   -3.3326   17.6437 C   0  0  0  0  0  0  0  0  0  0  0  0
    9.9489   -3.4675   24.6487 N   0  0  0  0  0  0  0  0  0  0  0  0
   10.0172   -4.4740   17.4101 C   0  0  0  0  0  0  0  0  0  0  0  0
    6.9051   -7.9575   16.4222 C   0  0  0  0  0  0  0  0  0  0  0  0
    8.9969   -6.3552   17.9668 N   0  0  0  0  0  0  0  0  0  0  0  0
   10.6702   -3.9051   22.4070 C   0  0  0  0  0  0  0  0  0  0  0  0
   11.0625   -3.0028   18.8894 C   0  0  0  0  0  0  0  0  0  0  0  0
    5.6180   -7.9194   16.1754 O   0  0  0  0  0  0  0  0  0  0  0  0
    9.7259   -5.3080   18.4485 C   0  0  0  0  0  0  0  0  0  0  0  0
    9.4578   -5.0200   16.3036 N   0  0  0  0  0  0  0  0  0  0  0  0
    5.0287   -8.9365   16.8223 C   0  0  0  0  0  0  0  0  0  0  0  0
    8.7742   -6.1498   16.6764 C   0  0  0  0  0  0  0  0  0  0  0  0
   10.9418   -3.4032   21.2053 O   0  0  0  0  0  0  0  0  0  0  0  0
    1.4797   -8.6258   16.2950 C   0  0  0  0  0  0  0  0  0  0  0  0
    9.2861   -1.2743   25.3585 C   0  0  0  0  0  0  0  0  0  0  0  0
    1.8892  -10.3985   17.7511 N   0  0  0  0  0  0  0  0  0  0  0  0
    9.6210   -0.6952   24.0976 C   0  0  0  0  0  0  0  0  0  0  0  0
    7.0792   -9.0217   17.1429 C   0  0  0  0  0  0  0  0  0  0  0  0
    3.1713  -10.1816   17.6634 C   0  0  0  0  0  0  0  0  0  0  0  0
    2.7878   -8.3822   16.2137 C   0  0  0  0  0  0  0  0  0  0  0  0
    9.4601   -2.6590   25.6528 C   0  0  0  0  0  0  0  0  0  0  0  0
   10.1182   -1.5672   23.1165 C   0  0  0  0  0  0  0  0  0  0  0  0
    1.0552   -9.6360   17.0650 C   0  0  0  0  0  0  0  0  0  0  0  0
    3.6519   -9.1783   16.9039 C   0  0  0  0  0  0  0  0  0  0  0  0
    7.8675   -7.0096   15.9415 C   0  0  0  0  0  0  0  0  0  0  0  0
    5.9733   -9.6553   17.3832 N   0  0  0  0  0  0  0  0  0  0  0  0
   10.2411   -2.9363   23.4301 C   0  0  0  0  0  0  0  0  0  0  0  0
   10.7288   -3.8197   19.9525 C   0  0  0  0  0  0  0  0  0  0  0  0
   10.1189   -5.0054   19.6987 C   0  0  0  0  0  0  0  0  0  0  0  0
  1  3  4  0
  1  7  4  0
  2 21  4  0
  2 27  4  0
  3  9  4  0
  3 10  4  0
  4  8  4  0
  4 18  4  0
  4 25  1  0
  5  9  4  0
  5 12  4  0
  6 13  1  0
  6 27  1  0
  7 28  4  0
  8 11  4  0
  9 29  4  0
 10 12  4  0
 11 24  1  0
 11 26  4  0
 12 25  1  0
 13 28  1  0
 14 20  4  0
 14 23  4  0
 15 17  4  0
 15 21  4  0
 16 19  4  0
 16 23  4  0
 17 22  4  0
 18 26  4  0
 19 24  4  0
 20 24  4  0
 22 27  4  0
 28 29  4  0
M  END
$$$$

 Created by Python create_sdf_string function

 29 33  0  0  0  0  0  0  0  0999 V2000
   10.7215   -3.3326   17.6437 C   0  0  0  0  0  0  0  0  0  0  0  0
    9.9489   -3.4675   24.6487 N   0  0  0  0  0  0  0  0  0  0  0  0
   10.0172   -4.4740   17.4101 C   0  0  0  0  0  0  0  0  0  0  0  0
    6.9051   -7.9575   16.4222 C   0  0  0  0  0  0  0  0  0  0  0  0
    8.9969   -6.3552   17.9668 N   0  0  0  0  0  0  0  0  0  0  0  0
   10.6702   -3.9051   22.4070 C   0  0  0  0  0  0  0  0  0  0  0  0
   11.0625   -3.0028   18.8894 C   0  0  0  0  0  0  0  0  0  0  0  0
    5.6180   -7.9194   16.1754 O   0  0  0  0  0  0  0  0  0  0  0  0
    9.7259   -5.3080   18.4485 C   0  0  0  0  0  0  0  0  0  0  0  0
    9.4578   -5.0200   16.3036 N   0  0  0  0  0  0  0  0  0  0  0  0
    5.0287   -8.9365   16.8223 C   0  0  0  0  0  0  0  0  0  0  0  0
    8.7742   -6.1498   16.6764 C   0  0  0  0  0  0  0  0  0  0  0  0
   10.9418   -3.4032   21.2053 O   0  0  0  0  0  0  0  0  0  0  0  0
    1.4797   -8.6258   16.2950 C   0  0  0  0  0  0  0  0  0  0  0  0
    9.2861   -1.2743   25.3585 C   0  0  0  0  0  0  0  0  0  0  0  0
    1.8892  -10.3985   17.7511 N   0  0  0  0  0  0  0  0  0  0  0  0
    9.6210   -0.6952   24.0976 C   0  0  0  0  0  0  0  0  0  0  0  0
    7.0792   -9.0217   17.1429 C   0  0  0  0  0  0  0  0  0  0  0  0
    3.1713  -10.1816   17.6634 C   0  0  0  0  0  0  0  0  0  0  0  0
    2.7878   -8.3822   16.2137 C   0  0  0  0  0  0  0  0  0  0  0  0
    9.4601   -2.6590   25.6528 C   0  0  0  0  0  0  0  0  0  0  0  0
   10.1182   -1.5672   23.1165 C   0  0  0  0  0  0  0  0  0  0  0  0
    1.0552   -9.6360   17.0650 C   0  0  0  0  0  0  0  0  0  0  0  0
    3.6519   -9.1783   16.9039 C   0  0  0  0  0  0  0  0  0  0  0  0
    7.8675   -7.0096   15.9415 C   0  0  0  0  0  0  0  0  0  0  0  0
    5.9733   -9.6553   17.3832 N   0  0  0  0  0  0  0  0  0  0  0  0
   10.2411   -2.9363   23.4301 C   0  0  0  0  0  0  0  0  0  0  0  0
   10.7288   -3.8197   19.9525 C   0  0  0  0  0  0  0  0  0  0  0  0
   10.1189   -5.0054   19.6987 C   0  0  0  0  0  0  0  0  0  0  0  0
  1  3  4  0
  1  7  4  0
  2 21  4  0
  2 27  4  0
  3  9  4  0
  3 10  4  0
  4  8  4  0
  4 18  4  0
  4 25  1  0
  5  9  4  0
  5 12  4  0
  6 13  1  0
  6 27  1  0
  7 28  4  0
  8 11  4  0
  9 29  4  0
 10 12  4  0
 11 24  1  0
 11 26  4  0
 12 25  1  0
 13 28  1  0
 14 20  4  0
 14 23  4  0
 15 17  4  0
 15 21  4  0
 16 19  4  0
 16 23  4  0
 17 22  4  0
 18 26  4  0
 19 24  4  0
 20 24  4  0
 22 27  4  0
 28 29  4  0
M  END
$$$$

 Created by Python create_sdf_string function

 29 33  0  0  0  0  0  0  0  0999 V2000
   10.7215   -3.3326   17.6437 C   0  0  0  0  0  0  0  0  0  0  0  0
    9.9489   -3.4675   24.6487 N   0  0  0  0  0  0  0  0  0  0  0  0
   10.0172   -4.4740   17.4101 C   0  0  0  0  0  0  0  0  0  0  0  0
    6.9051   -7.9575   16.4222 C   0  0  0  0  0  0  0  0  0  0  0  0
    8.9969   -6.3552   17.9668 N   0  0  0  0  0  0  0  0  0  0  0  0
   10.6702   -3.9051   22.4070 C   0  0  0  0  0  0  0  0  0  0  0  0
   11.0625   -3.0028   18.8894 C   0  0  0  0  0  0  0  0  0  0  0  0
    5.6180   -7.9194   16.1754 O   0  0  0  0  0  0  0  0  0  0  0  0
    9.7259   -5.3080   18.4485 C   0  0  0  0  0  0  0  0  0  0  0  0
    9.4578   -5.0200   16.3036 N   0  0  0  0  0  0  0  0  0  0  0  0
    5.0287   -8.9365   16.8223 C   0  0  0  0  0  0  0  0  0  0  0  0
    8.7742   -6.1498   16.6764 C   0  0  0  0  0  0  0  0  0  0  0  0
   10.9418   -3.4032   21.2053 O   0  0  0  0  0  0  0  0  0  0  0  0
    1.4797   -8.6258   16.2950 C   0  0  0  0  0  0  0  0  0  0  0  0
    9.2861   -1.2743   25.3585 C   0  0  0  0  0  0  0  0  0  0  0  0
    1.8892  -10.3985   17.7511 N   0  0  0  0  0  0  0  0  0  0  0  0
    9.6210   -0.6952   24.0976 C   0  0  0  0  0  0  0  0  0  0  0  0
    7.0792   -9.0217   17.1429 C   0  0  0  0  0  0  0  0  0  0  0  0
    3.1713  -10.1816   17.6634 C   0  0  0  0  0  0  0  0  0  0  0  0
    2.7878   -8.3822   16.2137 C   0  0  0  0  0  0  0  0  0  0  0  0
    9.4601   -2.6590   25.6528 C   0  0  0  0  0  0  0  0  0  0  0  0
   10.1182   -1.5672   23.1165 C   0  0  0  0  0  0  0  0  0  0  0  0
    1.0552   -9.6360   17.0650 C   0  0  0  0  0  0  0  0  0  0  0  0
    3.6519   -9.1783   16.9039 C   0  0  0  0  0  0  0  0  0  0  0  0
    7.8675   -7.0096   15.9415 C   0  0  0  0  0  0  0  0  0  0  0  0
    5.9733   -9.6553   17.3832 N   0  0  0  0  0  0  0  0  0  0  0  0
   10.2411   -2.9363   23.4301 C   0  0  0  0  0  0  0  0  0  0  0  0
   10.7288   -3.8197   19.9525 C   0  0  0  0  0  0  0  0  0  0  0  0
   10.1189   -5.0054   19.6987 C   0  0  0  0  0  0  0  0  0  0  0  0
  1  3  4  0
  1  7  4  0
  2 21  4  0
  2 27  4  0
  3  9  4  0
  3 10  4  0
  4  8  4  0
  4 18  4  0
  4 25  1  0
  5  9  4  0
  5 12  4  0
  6 13  1  0
  6 27  1  0
  7 28  4  0
  8 11  4  0
  9 29  4  0
 10 12  4  0
 11 24  1  0
 11 26  4  0
 12 25  1  0
 13 28  1  0
 14 20  4  0
 14 23  4  0
 15 17  4  0
 15 21  4  0
 16 19  4  0
 16 23  4  0
 17 22  4  0
 18 26  4  0
 19 24  4  0
 20 24  4  0
 22 27  4  0
 28 29  4  0
M  END
$$$$

 Created by Python create_sdf_string function

 29 33  0  0  0  0  0  0  0  0999 V2000
   10.7215   -3.3326   17.6437 C   0  0  0  0  0  0  0  0  0  0  0  0
    9.9489   -3.4675   24.6487 N   0  0  0  0  0  0  0  0  0  0  0  0
   10.0172   -4.4740   17.4101 C   0  0  0  0  0  0  0  0  0  0  0  0
    6.9051   -7.9575   16.4222 C   0  0  0  0  0  0  0  0  0  0  0  0
    8.9969   -6.3552   17.9668 N   0  0  0  0  0  0  0  0  0  0  0  0
   10.6702   -3.9051   22.4070 C   0  0  0  0  0  0  0  0  0  0  0  0
   11.0625   -3.0028   18.8894 C   0  0  0  0  0  0  0  0  0  0  0  0
    5.6180   -7.9194   16.1754 O   0  0  0  0  0  0  0  0  0  0  0  0
    9.7259   -5.3080   18.4485 C   0  0  0  0  0  0  0  0  0  0  0  0
    9.4578   -5.0200   16.3036 N   0  0  0  0  0  0  0  0  0  0  0  0
    5.0287   -8.9365   16.8223 C   0  0  0  0  0  0  0  0  0  0  0  0
    8.7742   -6.1498   16.6764 C   0  0  0  0  0  0  0  0  0  0  0  0
   10.9418   -3.4032   21.2053 O   0  0  0  0  0  0  0  0  0  0  0  0
    1.4797   -8.6258   16.2950 C   0  0  0  0  0  0  0  0  0  0  0  0
    9.2861   -1.2743   25.3585 C   0  0  0  0  0  0  0  0  0  0  0  0
    1.8892  -10.3985   17.7511 N   0  0  0  0  0  0  0  0  0  0  0  0
    9.6210   -0.6952   24.0976 C   0  0  0  0  0  0  0  0  0  0  0  0
    7.0792   -9.0217   17.1429 C   0  0  0  0  0  0  0  0  0  0  0  0
    3.1713  -10.1816   17.6634 C   0  0  0  0  0  0  0  0  0  0  0  0
    2.7878   -8.3822   16.2137 C   0  0  0  0  0  0  0  0  0  0  0  0
    9.4601   -2.6590   25.6528 C   0  0  0  0  0  0  0  0  0  0  0  0
   10.1182   -1.5672   23.1165 C   0  0  0  0  0  0  0  0  0  0  0  0
    1.0552   -9.6360   17.0650 C   0  0  0  0  0  0  0  0  0  0  0  0
    3.6519   -9.1783   16.9039 C   0  0  0  0  0  0  0  0  0  0  0  0
    7.8675   -7.0096   15.9415 C   0  0  0  0  0  0  0  0  0  0  0  0
    5.9733   -9.6553   17.3832 N   0  0  0  0  0  0  0  0  0  0  0  0
   10.2411   -2.9363   23.4301 C   0  0  0  0  0  0  0  0  0  0  0  0
   10.7288   -3.8197   19.9525 C   0  0  0  0  0  0  0  0  0  0  0  0
   10.1189   -5.0054   19.6987 C   0  0  0  0  0  0  0  0  0  0  0  0
  1  3  4  0
  1  7  4  0
  2 21  4  0
  2 27  4  0
  3  9  4  0
  3 10  4  0
  4  8  4  0
  4 18  4  0
  4 25  1  0
  5  9  4  0
  5 12  4  0
  6 13  1  0
  6 27  1  0
  7 28  4  0
  8 11  4  0
  9 29  4  0
 10 12  4  0
 11 24  1  0
 11 26  4  0
 12 25  1  0
 13 28  1  0
 14 20  4  0
 14 23  4  0
 15 17  4  0
 15 21  4  0
 16 19  4  0
 16 23  4  0
 17 22  4  0
 18 26  4  0
 19 24  4  0
 20 24  4  0
 22 27  4  0
 28 29  4  0
M  END
$$$$

 Created by Python create_sdf_string function

 29 33  0  0  0  0  0  0  0  0999 V2000
   10.7215   -3.3326   17.6437 C   0  0  0  0  0  0  0  0  0  0  0  0
    9.9489   -3.4675   24.6487 N   0  0  0  0  0  0  0  0  0  0  0  0
   10.0172   -4.4740   17.4101 C   0  0  0  0  0  0  0  0  0  0  0  0
    6.9051   -7.9575   16.4222 C   0  0  0  0  0  0  0  0  0  0  0  0
    8.9969   -6.3552   17.9668 N   0  0  0  0  0  0  0  0  0  0  0  0
   10.6702   -3.9051   22.4070 C   0  0  0  0  0  0  0  0  0  0  0  0
   11.0625   -3.0028   18.8894 C   0  0  0  0  0  0  0  0  0  0  0  0
    5.6180   -7.9194   16.1754 O   0  0  0  0  0  0  0  0  0  0  0  0
    9.7259   -5.3080   18.4485 C   0  0  0  0  0  0  0  0  0  0  0  0
    9.4578   -5.0200   16.3036 N   0  0  0  0  0  0  0  0  0  0  0  0
    5.0287   -8.9365   16.8223 C   0  0  0  0  0  0  0  0  0  0  0  0
    8.7742   -6.1498   16.6764 C   0  0  0  0  0  0  0  0  0  0  0  0
   10.9418   -3.4032   21.2053 O   0  0  0  0  0  0  0  0  0  0  0  0
    1.4797   -8.6258   16.2950 C   0  0  0  0  0  0  0  0  0  0  0  0
    9.2861   -1.2743   25.3585 C   0  0  0  0  0  0  0  0  0  0  0  0
    1.8892  -10.3985   17.7511 N   0  0  0  0  0  0  0  0  0  0  0  0
    9.6210   -0.6952   24.0976 C   0  0  0  0  0  0  0  0  0  0  0  0
    7.0792   -9.0217   17.1429 C   0  0  0  0  0  0  0  0  0  0  0  0
    3.1713  -10.1816   17.6634 C   0  0  0  0  0  0  0  0  0  0  0  0
    2.7878   -8.3822   16.2137 C   0  0  0  0  0  0  0  0  0  0  0  0
    9.4601   -2.6590   25.6528 C   0  0  0  0  0  0  0  0  0  0  0  0
   10.1182   -1.5672   23.1165 C   0  0  0  0  0  0  0  0  0  0  0  0
    1.0552   -9.6360   17.0650 C   0  0  0  0  0  0  0  0  0  0  0  0
    3.6519   -9.1783   16.9039 C   0  0  0  0  0  0  0  0  0  0  0  0
    7.8675   -7.0096   15.9415 C   0  0  0  0  0  0  0  0  0  0  0  0
    5.9733   -9.6553   17.3832 N   0  0  0  0  0  0  0  0  0  0  0  0
   10.2411   -2.9363   23.4301 C   0  0  0  0  0  0  0  0  0  0  0  0
   10.7288   -3.8197   19.9525 C   0  0  0  0  0  0  0  0  0  0  0  0
   10.1189   -5.0054   19.6987 C   0  0  0  0  0  0  0  0  0  0  0  0
  1  3  4  0
  1  7  4  0
  2 21  4  0
  2 27  4  0
  3  9  4  0
  3 10  4  0
  4  8  4  0
  4 18  4  0
  4 25  1  0
  5  9  4  0
  5 12  4  0
  6 13  1  0
  6 27  1  0
  7 28  4  0
  8 11  4  0
  9 29  4  0
 10 12  4  0
 11 24  1  0
 11 26  4  0
 12 25  1  0
 13 28  1  0
 14 20  4  0
 14 23  4  0
 15 17  4  0
 15 21  4  0
 16 19  4  0
 16 23  4  0
 17 22  4  0
 18 26  4  0
 19 24  4  0
 20 24  4  0
 22 27  4  0
 28 29  4  0
M  END
$$$$

 Created by Python create_sdf_string function

 29 33  0  0  0  0  0  0  0  0999 V2000
   10.7215   -3.3326   17.6437 C   0  0  0  0  0  0  0  0  0  0  0  0
    9.9489   -3.4675   24.6487 N   0  0  0  0  0  0  0  0  0  0  0  0
   10.0172   -4.4740   17.4101 C   0  0  0  0  0  0  0  0  0  0  0  0
    6.9051   -7.9575   16.4222 C   0  0  0  0  0  0  0  0  0  0  0  0
    8.9969   -6.3552   17.9668 N   0  0  0  0  0  0  0  0  0  0  0  0
   10.6702   -3.9051   22.4070 C   0  0  0  0  0  0  0  0  0  0  0  0
   11.0625   -3.0028   18.8894 C   0  0  0  0  0  0  0  0  0  0  0  0
    5.6180   -7.9194   16.1754 O   0  0  0  0  0  0  0  0  0  0  0  0
    9.7259   -5.3080   18.4485 C   0  0  0  0  0  0  0  0  0  0  0  0
    9.4578   -5.0200   16.3036 N   0  0  0  0  0  0  0  0  0  0  0  0
    5.0287   -8.9365   16.8223 C   0  0  0  0  0  0  0  0  0  0  0  0
    8.7742   -6.1498   16.6764 C   0  0  0  0  0  0  0  0  0  0  0  0
   10.9418   -3.4032   21.2053 O   0  0  0  0  0  0  0  0  0  0  0  0
    1.4797   -8.6258   16.2950 C   0  0  0  0  0  0  0  0  0  0  0  0
    9.2861   -1.2743   25.3585 C   0  0  0  0  0  0  0  0  0  0  0  0
    1.8892  -10.3985   17.7511 N   0  0  0  0  0  0  0  0  0  0  0  0
    9.6210   -0.6952   24.0976 C   0  0  0  0  0  0  0  0  0  0  0  0
    7.0792   -9.0217   17.1429 C   0  0  0  0  0  0  0  0  0  0  0  0
    3.1713  -10.1816   17.6634 C   0  0  0  0  0  0  0  0  0  0  0  0
    2.7878   -8.3822   16.2137 C   0  0  0  0  0  0  0  0  0  0  0  0
    9.4601   -2.6590   25.6528 C   0  0  0  0  0  0  0  0  0  0  0  0
   10.1182   -1.5672   23.1165 C   0  0  0  0  0  0  0  0  0  0  0  0
    1.0552   -9.6360   17.0650 C   0  0  0  0  0  0  0  0  0  0  0  0
    3.6519   -9.1783   16.9039 C   0  0  0  0  0  0  0  0  0  0  0  0
    7.8675   -7.0096   15.9415 C   0  0  0  0  0  0  0  0  0  0  0  0
    5.9733   -9.6553   17.3832 N   0  0  0  0  0  0  0  0  0  0  0  0
   10.2411   -2.9363   23.4301 C   0  0  0  0  0  0  0  0  0  0  0  0
   10.7288   -3.8197   19.9525 C   0  0  0  0  0  0  0  0  0  0  0  0
   10.1189   -5.0054   19.6987 C   0  0  0  0  0  0  0  0  0  0  0  0
  1  3  4  0
  1  7  4  0
  2 21  4  0
  2 27  4  0
  3  9  4  0
  3 10  4  0
  4  8  4  0
  4 18  4  0
  4 25  1  0
  5  9  4  0
  5 12  4  0
  6 13  1  0
  6 27  1  0
  7 28  4  0
  8 11  4  0
  9 29  4  0
 10 12  4  0
 11 24  1  0
 11 26  4  0
 12 25  1  0
 13 28  1  0
 14 20  4  0
 14 23  4  0
 15 17  4  0
 15 21  4  0
 16 19  4  0
 16 23  4  0
 17 22  4  0
 18 26  4  0
 19 24  4  0
 20 24  4  0
 22 27  4  0
 28 29  4  0
M  END
$$$$

 Created by Python create_sdf_string function

 29 33  0  0  0  0  0  0  0  0999 V2000
   10.7215   -3.3326   17.6437 C   0  0  0  0  0  0  0  0  0  0  0  0
    9.9489   -3.4675   24.6487 N   0  0  0  0  0  0  0  0  0  0  0  0
   10.0172   -4.4740   17.4101 C   0  0  0  0  0  0  0  0  0  0  0  0
    6.9051   -7.9575   16.4222 C   0  0  0  0  0  0  0  0  0  0  0  0
    8.9969   -6.3552   17.9668 N   0  0  0  0  0  0  0  0  0  0  0  0
   10.6702   -3.9051   22.4070 C   0  0  0  0  0  0  0  0  0  0  0  0
   11.0625   -3.0028   18.8894 C   0  0  0  0  0  0  0  0  0  0  0  0
    5.6180   -7.9194   16.1754 O   0  0  0  0  0  0  0  0  0  0  0  0
    9.7259   -5.3080   18.4485 C   0  0  0  0  0  0  0  0  0  0  0  0
    9.4578   -5.0200   16.3036 N   0  0  0  0  0  0  0  0  0  0  0  0
    5.0287   -8.9365   16.8223 C   0  0  0  0  0  0  0  0  0  0  0  0
    8.7742   -6.1498   16.6764 C   0  0  0  0  0  0  0  0  0  0  0  0
   10.9418   -3.4032   21.2053 O   0  0  0  0  0  0  0  0  0  0  0  0
    1.4797   -8.6258   16.2950 C   0  0  0  0  0  0  0  0  0  0  0  0
    9.2861   -1.2743   25.3585 C   0  0  0  0  0  0  0  0  0  0  0  0
    1.8892  -10.3985   17.7511 N   0  0  0  0  0  0  0  0  0  0  0  0
    9.6210   -0.6952   24.0976 C   0  0  0  0  0  0  0  0  0  0  0  0
    7.0792   -9.0217   17.1429 C   0  0  0  0  0  0  0  0  0  0  0  0
    3.1713  -10.1816   17.6634 C   0  0  0  0  0  0  0  0  0  0  0  0
    2.7878   -8.3822   16.2137 C   0  0  0  0  0  0  0  0  0  0  0  0
    9.4601   -2.6590   25.6528 C   0  0  0  0  0  0  0  0  0  0  0  0
   10.1182   -1.5672   23.1165 C   0  0  0  0  0  0  0  0  0  0  0  0
    1.0552   -9.6360   17.0650 C   0  0  0  0  0  0  0  0  0  0  0  0
    3.6519   -9.1783   16.9039 C   0  0  0  0  0  0  0  0  0  0  0  0
    7.8675   -7.0096   15.9415 C   0  0  0  0  0  0  0  0  0  0  0  0
    5.9733   -9.6553   17.3832 N   0  0  0  0  0  0  0  0  0  0  0  0
   10.2411   -2.9363   23.4301 C   0  0  0  0  0  0  0  0  0  0  0  0
   10.7288   -3.8197   19.9525 C   0  0  0  0  0  0  0  0  0  0  0  0
   10.1189   -5.0054   19.6987 C   0  0  0  0  0  0  0  0  0  0  0  0
  1  3  4  0
  1  7  4  0
  2 21  4  0
  2 27  4  0
  3  9  4  0
  3 10  4  0
  4  8  4  0
  4 18  4  0
  4 25  1  0
  5  9  4  0
  5 12  4  0
  6 13  1  0
  6 27  1  0
  7 28  4  0
  8 11  4  0
  9 29  4  0
 10 12  4  0
 11 24  1  0
 11 26  4  0
 12 25  1  0
 13 28  1  0
 14 20  4  0
 14 23  4  0
 15 17  4  0
 15 21  4  0
 16 19  4  0
 16 23  4  0
 17 22  4  0
 18 26  4  0
 19 24  4  0
 20 24  4  0
 22 27  4  0
 28 29  4  0
M  END
$$$$

 Created by Python create_sdf_string function

 29 33  0  0  0  0  0  0  0  0999 V2000
   10.7215   -3.3326   17.6437 C   0  0  0  0  0  0  0  0  0  0  0  0
    9.9489   -3.4675   24.6487 N   0  0  0  0  0  0  0  0  0  0  0  0
   10.0172   -4.4740   17.4101 C   0  0  0  0  0  0  0  0  0  0  0  0
    6.9051   -7.9575   16.4222 C   0  0  0  0  0  0  0  0  0  0  0  0
    8.9969   -6.3552   17.9668 N   0  0  0  0  0  0  0  0  0  0  0  0
   10.6702   -3.9051   22.4070 C   0  0  0  0  0  0  0  0  0  0  0  0
   11.0625   -3.0028   18.8894 C   0  0  0  0  0  0  0  0  0  0  0  0
    5.6180   -7.9194   16.1754 O   0  0  0  0  0  0  0  0  0  0  0  0
    9.7259   -5.3080   18.4485 C   0  0  0  0  0  0  0  0  0  0  0  0
    9.4578   -5.0200   16.3036 N   0  0  0  0  0  0  0  0  0  0  0  0
    5.0287   -8.9365   16.8223 C   0  0  0  0  0  0  0  0  0  0  0  0
    8.7742   -6.1498   16.6764 C   0  0  0  0  0  0  0  0  0  0  0  0
   10.9418   -3.4032   21.2053 O   0  0  0  0  0  0  0  0  0  0  0  0
    1.4797   -8.6258   16.2950 C   0  0  0  0  0  0  0  0  0  0  0  0
    9.2861   -1.2743   25.3585 C   0  0  0  0  0  0  0  0  0  0  0  0
    1.8892  -10.3985   17.7511 N   0  0  0  0  0  0  0  0  0  0  0  0
    9.6210   -0.6952   24.0976 C   0  0  0  0  0  0  0  0  0  0  0  0
    7.0792   -9.0217   17.1429 C   0  0  0  0  0  0  0  0  0  0  0  0
    3.1713  -10.1816   17.6634 C   0  0  0  0  0  0  0  0  0  0  0  0
    2.7878   -8.3822   16.2137 C   0  0  0  0  0  0  0  0  0  0  0  0
    9.4601   -2.6590   25.6528 C   0  0  0  0  0  0  0  0  0  0  0  0
   10.1182   -1.5672   23.1165 C   0  0  0  0  0  0  0  0  0  0  0  0
    1.0552   -9.6360   17.0650 C   0  0  0  0  0  0  0  0  0  0  0  0
    3.6519   -9.1783   16.9039 C   0  0  0  0  0  0  0  0  0  0  0  0
    7.8675   -7.0096   15.9415 C   0  0  0  0  0  0  0  0  0  0  0  0
    5.9733   -9.6553   17.3832 N   0  0  0  0  0  0  0  0  0  0  0  0
   10.2411   -2.9363   23.4301 C   0  0  0  0  0  0  0  0  0  0  0  0
   10.7288   -3.8197   19.9525 C   0  0  0  0  0  0  0  0  0  0  0  0
   10.1189   -5.0054   19.6987 C   0  0  0  0  0  0  0  0  0  0  0  0
  1  3  4  0
  1  7  4  0
  2 21  4  0
  2 27  4  0
  3  9  4  0
  3 10  4  0
  4  8  4  0
  4 18  4  0
  4 25  1  0
  5  9  4  0
  5 12  4  0
  6 13  1  0
  6 27  1  0
  7 28  4  0
  8 11  4  0
  9 29  4  0
 10 12  4  0
 11 24  1  0
 11 26  4  0
 12 25  1  0
 13 28  1  0
 14 20  4  0
 14 23  4  0
 15 17  4  0
 15 21  4  0
 16 19  4  0
 16 23  4  0
 17 22  4  0
 18 26  4  0
 19 24  4  0
 20 24  4  0
 22 27  4  0
 28 29  4  0
M  END
$$$$

 Created by Python create_sdf_string function

 29 33  0  0  0  0  0  0  0  0999 V2000
   10.7215   -3.3326   17.6437 C   0  0  0  0  0  0  0  0  0  0  0  0
    9.9489   -3.4675   24.6487 N   0  0  0  0  0  0  0  0  0  0  0  0
   10.0172   -4.4740   17.4101 C   0  0  0  0  0  0  0  0  0  0  0  0
    6.9051   -7.9575   16.4222 C   0  0  0  0  0  0  0  0  0  0  0  0
    8.9969   -6.3552   17.9668 N   0  0  0  0  0  0  0  0  0  0  0  0
   10.6702   -3.9051   22.4070 C   0  0  0  0  0  0  0  0  0  0  0  0
   11.0625   -3.0028   18.8894 C   0  0  0  0  0  0  0  0  0  0  0  0
    5.6180   -7.9194   16.1754 O   0  0  0  0  0  0  0  0  0  0  0  0
    9.7259   -5.3080   18.4485 C   0  0  0  0  0  0  0  0  0  0  0  0
    9.4578   -5.0200   16.3036 N   0  0  0  0  0  0  0  0  0  0  0  0
    5.0287   -8.9365   16.8223 C   0  0  0  0  0  0  0  0  0  0  0  0
    8.7742   -6.1498   16.6764 C   0  0  0  0  0  0  0  0  0  0  0  0
   10.9418   -3.4032   21.2053 O   0  0  0  0  0  0  0  0  0  0  0  0
    1.4797   -8.6258   16.2950 C   0  0  0  0  0  0  0  0  0  0  0  0
    9.2861   -1.2743   25.3585 C   0  0  0  0  0  0  0  0  0  0  0  0
    1.8892  -10.3985   17.7511 N   0  0  0  0  0  0  0  0  0  0  0  0
    9.6210   -0.6952   24.0976 C   0  0  0  0  0  0  0  0  0  0  0  0
    7.0792   -9.0217   17.1429 C   0  0  0  0  0  0  0  0  0  0  0  0
    3.1713  -10.1816   17.6634 C   0  0  0  0  0  0  0  0  0  0  0  0
    2.7878   -8.3822   16.2137 C   0  0  0  0  0  0  0  0  0  0  0  0
    9.4601   -2.6590   25.6528 C   0  0  0  0  0  0  0  0  0  0  0  0
   10.1182   -1.5672   23.1165 C   0  0  0  0  0  0  0  0  0  0  0  0
    1.0552   -9.6360   17.0650 C   0  0  0  0  0  0  0  0  0  0  0  0
    3.6519   -9.1783   16.9039 C   0  0  0  0  0  0  0  0  0  0  0  0
    7.8675   -7.0096   15.9415 C   0  0  0  0  0  0  0  0  0  0  0  0
    5.9733   -9.6553   17.3832 N   0  0  0  0  0  0  0  0  0  0  0  0
   10.2411   -2.9363   23.4301 C   0  0  0  0  0  0  0  0  0  0  0  0
   10.7288   -3.8197   19.9525 C   0  0  0  0  0  0  0  0  0  0  0  0
   10.1189   -5.0054   19.6987 C   0  0  0  0  0  0  0  0  0  0  0  0
  1  3  4  0
  1  7  4  0
  2 21  4  0
  2 27  4  0
  3  9  4  0
  3 10  4  0
  4  8  4  0
  4 18  4  0
  4 25  1  0
  5  9  4  0
  5 12  4  0
  6 13  1  0
  6 27  1  0
  7 28  4  0
  8 11  4  0
  9 29  4  0
 10 12  4  0
 11 24  1  0
 11 26  4  0
 12 25  1  0
 13 28  1  0
 14 20  4  0
 14 23  4  0
 15 17  4  0
 15 21  4  0
 16 19  4  0
 16 23  4  0
 17 22  4  0
 18 26  4  0
 19 24  4  0
 20 24  4  0
 22 27  4  0
 28 29  4  0
M  END
$$$$

 Created by Python create_sdf_string function

 29 33  0  0  0  0  0  0  0  0999 V2000
   10.7215   -3.3326   17.6437 C   0  0  0  0  0  0  0  0  0  0  0  0
    9.9489   -3.4675   24.6487 N   0  0  0  0  0  0  0  0  0  0  0  0
   10.0172   -4.4740   17.4101 C   0  0  0  0  0  0  0  0  0  0  0  0
    6.9051   -7.9575   16.4222 C   0  0  0  0  0  0  0  0  0  0  0  0
    8.9969   -6.3552   17.9668 N   0  0  0  0  0  0  0  0  0  0  0  0
   10.6702   -3.9051   22.4070 C   0  0  0  0  0  0  0  0  0  0  0  0
   11.0625   -3.0028   18.8894 C   0  0  0  0  0  0  0  0  0  0  0  0
    5.6180   -7.9194   16.1754 O   0  0  0  0  0  0  0  0  0  0  0  0
    9.7259   -5.3080   18.4485 C   0  0  0  0  0  0  0  0  0  0  0  0
    9.4578   -5.0200   16.3036 N   0  0  0  0  0  0  0  0  0  0  0  0
    5.0287   -8.9365   16.8223 C   0  0  0  0  0  0  0  0  0  0  0  0
    8.7742   -6.1498   16.6764 C   0  0  0  0  0  0  0  0  0  0  0  0
   10.9418   -3.4032   21.2053 O   0  0  0  0  0  0  0  0  0  0  0  0
    1.4797   -8.6258   16.2950 C   0  0  0  0  0  0  0  0  0  0  0  0
    9.2861   -1.2743   25.3585 C   0  0  0  0  0  0  0  0  0  0  0  0
    1.8892  -10.3985   17.7511 N   0  0  0  0  0  0  0  0  0  0  0  0
    9.6210   -0.6952   24.0976 C   0  0  0  0  0  0  0  0  0  0  0  0
    7.0792   -9.0217   17.1429 C   0  0  0  0  0  0  0  0  0  0  0  0
    3.1713  -10.1816   17.6634 C   0  0  0  0  0  0  0  0  0  0  0  0
    2.7878   -8.3822   16.2137 C   0  0  0  0  0  0  0  0  0  0  0  0
    9.4601   -2.6590   25.6528 C   0  0  0  0  0  0  0  0  0  0  0  0
   10.1182   -1.5672   23.1165 C   0  0  0  0  0  0  0  0  0  0  0  0
    1.0552   -9.6360   17.0650 C   0  0  0  0  0  0  0  0  0  0  0  0
    3.6519   -9.1783   16.9039 C   0  0  0  0  0  0  0  0  0  0  0  0
    7.8675   -7.0096   15.9415 C   0  0  0  0  0  0  0  0  0  0  0  0
    5.9733   -9.6553   17.3832 N   0  0  0  0  0  0  0  0  0  0  0  0
   10.2411   -2.9363   23.4301 C   0  0  0  0  0  0  0  0  0  0  0  0
   10.7288   -3.8197   19.9525 C   0  0  0  0  0  0  0  0  0  0  0  0
   10.1189   -5.0054   19.6987 C   0  0  0  0  0  0  0  0  0  0  0  0
  1  3  4  0
  1  7  4  0
  2 21  4  0
  2 27  4  0
  3  9  4  0
  3 10  4  0
  4  8  4  0
  4 18  4  0
  4 25  1  0
  5  9  4  0
  5 12  4  0
  6 13  1  0
  6 27  1  0
  7 28  4  0
  8 11  4  0
  9 29  4  0
 10 12  4  0
 11 24  1  0
 11 26  4  0
 12 25  1  0
 13 28  1  0
 14 20  4  0
 14 23  4  0
 15 17  4  0
 15 21  4  0
 16 19  4  0
 16 23  4  0
 17 22  4  0
 18 26  4  0
 19 24  4  0
 20 24  4  0
 22 27  4  0
 28 29  4  0
M  END
$$$$

 Created by Python create_sdf_string function

 29 33  0  0  0  0  0  0  0  0999 V2000
   10.7215   -3.3326   17.6437 C   0  0  0  0  0  0  0  0  0  0  0  0
    9.9489   -3.4675   24.6487 N   0  0  0  0  0  0  0  0  0  0  0  0
   10.0172   -4.4740   17.4101 C   0  0  0  0  0  0  0  0  0  0  0  0
    6.9051   -7.9575   16.4222 C   0  0  0  0  0  0  0  0  0  0  0  0
    8.9969   -6.3552   17.9668 N   0  0  0  0  0  0  0  0  0  0  0  0
   10.6702   -3.9051   22.4070 C   0  0  0  0  0  0  0  0  0  0  0  0
   11.0625   -3.0028   18.8894 C   0  0  0  0  0  0  0  0  0  0  0  0
    5.6180   -7.9194   16.1754 O   0  0  0  0  0  0  0  0  0  0  0  0
    9.7259   -5.3080   18.4485 C   0  0  0  0  0  0  0  0  0  0  0  0
    9.4578   -5.0200   16.3036 N   0  0  0  0  0  0  0  0  0  0  0  0
    5.0287   -8.9365   16.8223 C   0  0  0  0  0  0  0  0  0  0  0  0
    8.7742   -6.1498   16.6764 C   0  0  0  0  0  0  0  0  0  0  0  0
   10.9418   -3.4032   21.2053 O   0  0  0  0  0  0  0  0  0  0  0  0
    1.4797   -8.6258   16.2950 C   0  0  0  0  0  0  0  0  0  0  0  0
    9.2861   -1.2743   25.3585 C   0  0  0  0  0  0  0  0  0  0  0  0
    1.8892  -10.3985   17.7511 N   0  0  0  0  0  0  0  0  0  0  0  0
    9.6210   -0.6952   24.0976 C   0  0  0  0  0  0  0  0  0  0  0  0
    7.0792   -9.0217   17.1429 C   0  0  0  0  0  0  0  0  0  0  0  0
    3.1713  -10.1816   17.6634 C   0  0  0  0  0  0  0  0  0  0  0  0
    2.7878   -8.3822   16.2137 C   0  0  0  0  0  0  0  0  0  0  0  0
    9.4601   -2.6590   25.6528 C   0  0  0  0  0  0  0  0  0  0  0  0
   10.1182   -1.5672   23.1165 C   0  0  0  0  0  0  0  0  0  0  0  0
    1.0552   -9.6360   17.0650 C   0  0  0  0  0  0  0  0  0  0  0  0
    3.6519   -9.1783   16.9039 C   0  0  0  0  0  0  0  0  0  0  0  0
    7.8675   -7.0096   15.9415 C   0  0  0  0  0  0  0  0  0  0  0  0
    5.9733   -9.6553   17.3832 N   0  0  0  0  0  0  0  0  0  0  0  0
   10.2411   -2.9363   23.4301 C   0  0  0  0  0  0  0  0  0  0  0  0
   10.7288   -3.8197   19.9525 C   0  0  0  0  0  0  0  0  0  0  0  0
   10.1189   -5.0054   19.6987 C   0  0  0  0  0  0  0  0  0  0  0  0
  1  3  4  0
  1  7  4  0
  2 21  4  0
  2 27  4  0
  3  9  4  0
  3 10  4  0
  4  8  4  0
  4 18  4  0
  4 25  1  0
  5  9  4  0
  5 12  4  0
  6 13  1  0
  6 27  1  0
  7 28  4  0
  8 11  4  0
  9 29  4  0
 10 12  4  0
 11 24  1  0
 11 26  4  0
 12 25  1  0
 13 28  1  0
 14 20  4  0
 14 23  4  0
 15 17  4  0
 15 21  4  0
 16 19  4  0
 16 23  4  0
 17 22  4  0
 18 26  4  0
 19 24  4  0
 20 24  4  0
 22 27  4  0
 28 29  4  0
M  END
$$$$

 Created by Python create_sdf_string function

 29 33  0  0  0  0  0  0  0  0999 V2000
   10.7215   -3.3326   17.6437 C   0  0  0  0  0  0  0  0  0  0  0  0
    9.9489   -3.4675   24.6487 N   0  0  0  0  0  0  0  0  0  0  0  0
   10.0172   -4.4740   17.4101 C   0  0  0  0  0  0  0  0  0  0  0  0
    6.9051   -7.9575   16.4222 C   0  0  0  0  0  0  0  0  0  0  0  0
    8.9969   -6.3552   17.9668 N   0  0  0  0  0  0  0  0  0  0  0  0
   10.6702   -3.9051   22.4070 C   0  0  0  0  0  0  0  0  0  0  0  0
   11.0625   -3.0028   18.8894 C   0  0  0  0  0  0  0  0  0  0  0  0
    5.6180   -7.9194   16.1754 O   0  0  0  0  0  0  0  0  0  0  0  0
    9.7259   -5.3080   18.4485 C   0  0  0  0  0  0  0  0  0  0  0  0
    9.4578   -5.0200   16.3036 N   0  0  0  0  0  0  0  0  0  0  0  0
    5.0287   -8.9365   16.8223 C   0  0  0  0  0  0  0  0  0  0  0  0
    8.7742   -6.1498   16.6764 C   0  0  0  0  0  0  0  0  0  0  0  0
   10.9418   -3.4032   21.2053 O   0  0  0  0  0  0  0  0  0  0  0  0
    1.4797   -8.6258   16.2950 C   0  0  0  0  0  0  0  0  0  0  0  0
    9.2861   -1.2743   25.3585 C   0  0  0  0  0  0  0  0  0  0  0  0
    1.8892  -10.3985   17.7511 N   0  0  0  0  0  0  0  0  0  0  0  0
    9.6210   -0.6952   24.0976 C   0  0  0  0  0  0  0  0  0  0  0  0
    7.0792   -9.0217   17.1429 C   0  0  0  0  0  0  0  0  0  0  0  0
    3.1713  -10.1816   17.6634 C   0  0  0  0  0  0  0  0  0  0  0  0
    2.7878   -8.3822   16.2137 C   0  0  0  0  0  0  0  0  0  0  0  0
    9.4601   -2.6590   25.6528 C   0  0  0  0  0  0  0  0  0  0  0  0
   10.1182   -1.5672   23.1165 C   0  0  0  0  0  0  0  0  0  0  0  0
    1.0552   -9.6360   17.0650 C   0  0  0  0  0  0  0  0  0  0  0  0
    3.6519   -9.1783   16.9039 C   0  0  0  0  0  0  0  0  0  0  0  0
    7.8675   -7.0096   15.9415 C   0  0  0  0  0  0  0  0  0  0  0  0
    5.9733   -9.6553   17.3832 N   0  0  0  0  0  0  0  0  0  0  0  0
   10.2411   -2.9363   23.4301 C   0  0  0  0  0  0  0  0  0  0  0  0
   10.7288   -3.8197   19.9525 C   0  0  0  0  0  0  0  0  0  0  0  0
   10.1189   -5.0054   19.6987 C   0  0  0  0  0  0  0  0  0  0  0  0
  1  3  4  0
  1  7  4  0
  2 21  4  0
  2 27  4  0
  3  9  4  0
  3 10  4  0
  4  8  4  0
  4 18  4  0
  4 25  1  0
  5  9  4  0
  5 12  4  0
  6 13  1  0
  6 27  1  0
  7 28  4  0
  8 11  4  0
  9 29  4  0
 10 12  4  0
 11 24  1  0
 11 26  4  0
 12 25  1  0
 13 28  1  0
 14 20  4  0
 14 23  4  0
 15 17  4  0
 15 21  4  0
 16 19  4  0
 16 23  4  0
 17 22  4  0
 18 26  4  0
 19 24  4  0
 20 24  4  0
 22 27  4  0
 28 29  4  0
M  END
$$$$

 Created by Python create_sdf_string function

 29 33  0  0  0  0  0  0  0  0999 V2000
   10.7215   -3.3326   17.6437 C   0  0  0  0  0  0  0  0  0  0  0  0
    9.9489   -3.4675   24.6487 N   0  0  0  0  0  0  0  0  0  0  0  0
   10.0172   -4.4740   17.4101 C   0  0  0  0  0  0  0  0  0  0  0  0
    6.9051   -7.9575   16.4222 C   0  0  0  0  0  0  0  0  0  0  0  0
    8.9969   -6.3552   17.9668 N   0  0  0  0  0  0  0  0  0  0  0  0
   10.6702   -3.9051   22.4070 C   0  0  0  0  0  0  0  0  0  0  0  0
   11.0625   -3.0028   18.8894 C   0  0  0  0  0  0  0  0  0  0  0  0
    5.6180   -7.9194   16.1754 O   0  0  0  0  0  0  0  0  0  0  0  0
    9.7259   -5.3080   18.4485 C   0  0  0  0  0  0  0  0  0  0  0  0
    9.4578   -5.0200   16.3036 N   0  0  0  0  0  0  0  0  0  0  0  0
    5.0287   -8.9365   16.8223 C   0  0  0  0  0  0  0  0  0  0  0  0
    8.7742   -6.1498   16.6764 C   0  0  0  0  0  0  0  0  0  0  0  0
   10.9418   -3.4032   21.2053 O   0  0  0  0  0  0  0  0  0  0  0  0
    1.4797   -8.6258   16.2950 C   0  0  0  0  0  0  0  0  0  0  0  0
    9.2861   -1.2743   25.3585 C   0  0  0  0  0  0  0  0  0  0  0  0
    1.8892  -10.3985   17.7511 N   0  0  0  0  0  0  0  0  0  0  0  0
    9.6210   -0.6952   24.0976 C   0  0  0  0  0  0  0  0  0  0  0  0
    7.0792   -9.0217   17.1429 C   0  0  0  0  0  0  0  0  0  0  0  0
    3.1713  -10.1816   17.6634 C   0  0  0  0  0  0  0  0  0  0  0  0
    2.7878   -8.3822   16.2137 C   0  0  0  0  0  0  0  0  0  0  0  0
    9.4601   -2.6590   25.6528 C   0  0  0  0  0  0  0  0  0  0  0  0
   10.1182   -1.5672   23.1165 C   0  0  0  0  0  0  0  0  0  0  0  0
    1.0552   -9.6360   17.0650 C   0  0  0  0  0  0  0  0  0  0  0  0
    3.6519   -9.1783   16.9039 C   0  0  0  0  0  0  0  0  0  0  0  0
    7.8675   -7.0096   15.9415 C   0  0  0  0  0  0  0  0  0  0  0  0
    5.9733   -9.6553   17.3832 N   0  0  0  0  0  0  0  0  0  0  0  0
   10.2411   -2.9363   23.4301 C   0  0  0  0  0  0  0  0  0  0  0  0
   10.7288   -3.8197   19.9525 C   0  0  0  0  0  0  0  0  0  0  0  0
   10.1189   -5.0054   19.6987 C   0  0  0  0  0  0  0  0  0  0  0  0
  1  3  4  0
  1  7  4  0
  2 21  4  0
  2 27  4  0
  3  9  4  0
  3 10  4  0
  4  8  4  0
  4 18  4  0
  4 25  1  0
  5  9  4  0
  5 12  4  0
  6 13  1  0
  6 27  1  0
  7 28  4  0
  8 11  4  0
  9 29  4  0
 10 12  4  0
 11 24  1  0
 11 26  4  0
 12 25  1  0
 13 28  1  0
 14 20  4  0
 14 23  4  0
 15 17  4  0
 15 21  4  0
 16 19  4  0
 16 23  4  0
 17 22  4  0
 18 26  4  0
 19 24  4  0
 20 24  4  0
 22 27  4  0
 28 29  4  0
M  END
$$$$

 Created by Python create_sdf_string function

 29 33  0  0  0  0  0  0  0  0999 V2000
   10.7215   -3.3326   17.6437 C   0  0  0  0  0  0  0  0  0  0  0  0
    9.9489   -3.4675   24.6487 N   0  0  0  0  0  0  0  0  0  0  0  0
   10.0172   -4.4740   17.4101 C   0  0  0  0  0  0  0  0  0  0  0  0
    6.9051   -7.9575   16.4222 C   0  0  0  0  0  0  0  0  0  0  0  0
    8.9969   -6.3552   17.9668 N   0  0  0  0  0  0  0  0  0  0  0  0
   10.6702   -3.9051   22.4070 C   0  0  0  0  0  0  0  0  0  0  0  0
   11.0625   -3.0028   18.8894 C   0  0  0  0  0  0  0  0  0  0  0  0
    5.6180   -7.9194   16.1754 O   0  0  0  0  0  0  0  0  0  0  0  0
    9.7259   -5.3080   18.4485 C   0  0  0  0  0  0  0  0  0  0  0  0
    9.4578   -5.0200   16.3036 N   0  0  0  0  0  0  0  0  0  0  0  0
    5.0287   -8.9365   16.8223 C   0  0  0  0  0  0  0  0  0  0  0  0
    8.7742   -6.1498   16.6764 C   0  0  0  0  0  0  0  0  0  0  0  0
   10.9418   -3.4032   21.2053 O   0  0  0  0  0  0  0  0  0  0  0  0
    1.4797   -8.6258   16.2950 C   0  0  0  0  0  0  0  0  0  0  0  0
    9.2861   -1.2743   25.3585 C   0  0  0  0  0  0  0  0  0  0  0  0
    1.8892  -10.3985   17.7511 N   0  0  0  0  0  0  0  0  0  0  0  0
    9.6210   -0.6952   24.0976 C   0  0  0  0  0  0  0  0  0  0  0  0
    7.0792   -9.0217   17.1429 C   0  0  0  0  0  0  0  0  0  0  0  0
    3.1713  -10.1816   17.6634 C   0  0  0  0  0  0  0  0  0  0  0  0
    2.7878   -8.3822   16.2137 C   0  0  0  0  0  0  0  0  0  0  0  0
    9.4601   -2.6590   25.6528 C   0  0  0  0  0  0  0  0  0  0  0  0
   10.1182   -1.5672   23.1165 C   0  0  0  0  0  0  0  0  0  0  0  0
    1.0552   -9.6360   17.0650 C   0  0  0  0  0  0  0  0  0  0  0  0
    3.6519   -9.1783   16.9039 C   0  0  0  0  0  0  0  0  0  0  0  0
    7.8675   -7.0096   15.9415 C   0  0  0  0  0  0  0  0  0  0  0  0
    5.9733   -9.6553   17.3832 N   0  0  0  0  0  0  0  0  0  0  0  0
   10.2411   -2.9363   23.4301 C   0  0  0  0  0  0  0  0  0  0  0  0
   10.7288   -3.8197   19.9525 C   0  0  0  0  0  0  0  0  0  0  0  0
   10.1189   -5.0054   19.6987 C   0  0  0  0  0  0  0  0  0  0  0  0
  1  3  4  0
  1  7  4  0
  2 21  4  0
  2 27  4  0
  3  9  4  0
  3 10  4  0
  4  8  4  0
  4 18  4  0
  4 25  1  0
  5  9  4  0
  5 12  4  0
  6 13  1  0
  6 27  1  0
  7 28  4  0
  8 11  4  0
  9 29  4  0
 10 12  4  0
 11 24  1  0
 11 26  4  0
 12 25  1  0
 13 28  1  0
 14 20  4  0
 14 23  4  0
 15 17  4  0
 15 21  4  0
 16 19  4  0
 16 23  4  0
 17 22  4  0
 18 26  4  0
 19 24  4  0
 20 24  4  0
 22 27  4  0
 28 29  4  0
M  END
$$$$

 Created by Python create_sdf_string function

 29 33  0  0  0  0  0  0  0  0999 V2000
   10.7215   -3.3326   17.6437 C   0  0  0  0  0  0  0  0  0  0  0  0
    9.9489   -3.4675   24.6487 N   0  0  0  0  0  0  0  0  0  0  0  0
   10.0172   -4.4740   17.4101 C   0  0  0  0  0  0  0  0  0  0  0  0
    6.9051   -7.9575   16.4222 C   0  0  0  0  0  0  0  0  0  0  0  0
    8.9969   -6.3552   17.9668 N   0  0  0  0  0  0  0  0  0  0  0  0
   10.6702   -3.9051   22.4070 C   0  0  0  0  0  0  0  0  0  0  0  0
   11.0625   -3.0028   18.8894 C   0  0  0  0  0  0  0  0  0  0  0  0
    5.6180   -7.9194   16.1754 O   0  0  0  0  0  0  0  0  0  0  0  0
    9.7259   -5.3080   18.4485 C   0  0  0  0  0  0  0  0  0  0  0  0
    9.4578   -5.0200   16.3036 N   0  0  0  0  0  0  0  0  0  0  0  0
    5.0287   -8.9365   16.8223 C   0  0  0  0  0  0  0  0  0  0  0  0
    8.7742   -6.1498   16.6764 C   0  0  0  0  0  0  0  0  0  0  0  0
   10.9418   -3.4032   21.2053 O   0  0  0  0  0  0  0  0  0  0  0  0
    1.4797   -8.6258   16.2950 C   0  0  0  0  0  0  0  0  0  0  0  0
    9.2861   -1.2743   25.3585 C   0  0  0  0  0  0  0  0  0  0  0  0
    1.8892  -10.3985   17.7511 N   0  0  0  0  0  0  0  0  0  0  0  0
    9.6210   -0.6952   24.0976 C   0  0  0  0  0  0  0  0  0  0  0  0
    7.0792   -9.0217   17.1429 C   0  0  0  0  0  0  0  0  0  0  0  0
    3.1713  -10.1816   17.6634 C   0  0  0  0  0  0  0  0  0  0  0  0
    2.7878   -8.3822   16.2137 C   0  0  0  0  0  0  0  0  0  0  0  0
    9.4601   -2.6590   25.6528 C   0  0  0  0  0  0  0  0  0  0  0  0
   10.1182   -1.5672   23.1165 C   0  0  0  0  0  0  0  0  0  0  0  0
    1.0552   -9.6360   17.0650 C   0  0  0  0  0  0  0  0  0  0  0  0
    3.6519   -9.1783   16.9039 C   0  0  0  0  0  0  0  0  0  0  0  0
    7.8675   -7.0096   15.9415 C   0  0  0  0  0  0  0  0  0  0  0  0
    5.9733   -9.6553   17.3832 N   0  0  0  0  0  0  0  0  0  0  0  0
   10.2411   -2.9363   23.4301 C   0  0  0  0  0  0  0  0  0  0  0  0
   10.7288   -3.8197   19.9525 C   0  0  0  0  0  0  0  0  0  0  0  0
   10.1189   -5.0054   19.6987 C   0  0  0  0  0  0  0  0  0  0  0  0
  1  3  4  0
  1  7  4  0
  2 21  4  0
  2 27  4  0
  3  9  4  0
  3 10  4  0
  4  8  4  0
  4 18  4  0
  4 25  1  0
  5  9  4  0
  5 12  4  0
  6 13  1  0
  6 27  1  0
  7 28  4  0
  8 11  4  0
  9 29  4  0
 10 12  4  0
 11 24  1  0
 11 26  4  0
 12 25  1  0
 13 28  1  0
 14 20  4  0
 14 23  4  0
 15 17  4  0
 15 21  4  0
 16 19  4  0
 16 23  4  0
 17 22  4  0
 18 26  4  0
 19 24  4  0
 20 24  4  0
 22 27  4  0
 28 29  4  0
M  END
$$$$

 Created by Python create_sdf_string function

 29 33  0  0  0  0  0  0  0  0999 V2000
   10.7215   -3.3326   17.6437 C   0  0  0  0  0  0  0  0  0  0  0  0
    9.9489   -3.4675   24.6487 N   0  0  0  0  0  0  0  0  0  0  0  0
   10.0172   -4.4740   17.4101 C   0  0  0  0  0  0  0  0  0  0  0  0
    6.9051   -7.9575   16.4222 C   0  0  0  0  0  0  0  0  0  0  0  0
    8.9969   -6.3552   17.9668 N   0  0  0  0  0  0  0  0  0  0  0  0
   10.6702   -3.9051   22.4070 C   0  0  0  0  0  0  0  0  0  0  0  0
   11.0625   -3.0028   18.8894 C   0  0  0  0  0  0  0  0  0  0  0  0
    5.6180   -7.9194   16.1754 O   0  0  0  0  0  0  0  0  0  0  0  0
    9.7259   -5.3080   18.4485 C   0  0  0  0  0  0  0  0  0  0  0  0
    9.4578   -5.0200   16.3036 N   0  0  0  0  0  0  0  0  0  0  0  0
    5.0287   -8.9365   16.8223 C   0  0  0  0  0  0  0  0  0  0  0  0
    8.7742   -6.1498   16.6764 C   0  0  0  0  0  0  0  0  0  0  0  0
   10.9418   -3.4032   21.2053 O   0  0  0  0  0  0  0  0  0  0  0  0
    1.4797   -8.6258   16.2950 C   0  0  0  0  0  0  0  0  0  0  0  0
    9.2861   -1.2743   25.3585 C   0  0  0  0  0  0  0  0  0  0  0  0
    1.8892  -10.3985   17.7511 N   0  0  0  0  0  0  0  0  0  0  0  0
    9.6210   -0.6952   24.0976 C   0  0  0  0  0  0  0  0  0  0  0  0
    7.0792   -9.0217   17.1429 C   0  0  0  0  0  0  0  0  0  0  0  0
    3.1713  -10.1816   17.6634 C   0  0  0  0  0  0  0  0  0  0  0  0
    2.7878   -8.3822   16.2137 C   0  0  0  0  0  0  0  0  0  0  0  0
    9.4601   -2.6590   25.6528 C   0  0  0  0  0  0  0  0  0  0  0  0
   10.1182   -1.5672   23.1165 C   0  0  0  0  0  0  0  0  0  0  0  0
    1.0552   -9.6360   17.0650 C   0  0  0  0  0  0  0  0  0  0  0  0
    3.6519   -9.1783   16.9039 C   0  0  0  0  0  0  0  0  0  0  0  0
    7.8675   -7.0096   15.9415 C   0  0  0  0  0  0  0  0  0  0  0  0
    5.9733   -9.6553   17.3832 N   0  0  0  0  0  0  0  0  0  0  0  0
   10.2411   -2.9363   23.4301 C   0  0  0  0  0  0  0  0  0  0  0  0
   10.7288   -3.8197   19.9525 C   0  0  0  0  0  0  0  0  0  0  0  0
   10.1189   -5.0054   19.6987 C   0  0  0  0  0  0  0  0  0  0  0  0
  1  3  4  0
  1  7  4  0
  2 21  4  0
  2 27  4  0
  3  9  4  0
  3 10  4  0
  4  8  4  0
  4 18  4  0
  4 25  1  0
  5  9  4  0
  5 12  4  0
  6 13  1  0
  6 27  1  0
  7 28  4  0
  8 11  4  0
  9 29  4  0
 10 12  4  0
 11 24  1  0
 11 26  4  0
 12 25  1  0
 13 28  1  0
 14 20  4  0
 14 23  4  0
 15 17  4  0
 15 21  4  0
 16 19  4  0
 16 23  4  0
 17 22  4  0
 18 26  4  0
 19 24  4  0
 20 24  4  0
 22 27  4  0
 28 29  4  0
M  END
$$$$

 Created by Python create_sdf_string function

 29 33  0  0  0  0  0  0  0  0999 V2000
   10.7215   -3.3326   17.6437 C   0  0  0  0  0  0  0  0  0  0  0  0
    9.9489   -3.4675   24.6487 N   0  0  0  0  0  0  0  0  0  0  0  0
   10.0172   -4.4740   17.4101 C   0  0  0  0  0  0  0  0  0  0  0  0
    6.9051   -7.9575   16.4222 C   0  0  0  0  0  0  0  0  0  0  0  0
    8.9969   -6.3552   17.9668 N   0  0  0  0  0  0  0  0  0  0  0  0
   10.6702   -3.9051   22.4070 C   0  0  0  0  0  0  0  0  0  0  0  0
   11.0625   -3.0028   18.8894 C   0  0  0  0  0  0  0  0  0  0  0  0
    5.6180   -7.9194   16.1754 O   0  0  0  0  0  0  0  0  0  0  0  0
    9.7259   -5.3080   18.4485 C   0  0  0  0  0  0  0  0  0  0  0  0
    9.4578   -5.0200   16.3036 N   0  0  0  0  0  0  0  0  0  0  0  0
    5.0287   -8.9365   16.8223 C   0  0  0  0  0  0  0  0  0  0  0  0
    8.7742   -6.1498   16.6764 C   0  0  0  0  0  0  0  0  0  0  0  0
   10.9418   -3.4032   21.2053 O   0  0  0  0  0  0  0  0  0  0  0  0
    1.4797   -8.6258   16.2950 C   0  0  0  0  0  0  0  0  0  0  0  0
    9.2861   -1.2743   25.3585 C   0  0  0  0  0  0  0  0  0  0  0  0
    1.8892  -10.3985   17.7511 N   0  0  0  0  0  0  0  0  0  0  0  0
    9.6210   -0.6952   24.0976 C   0  0  0  0  0  0  0  0  0  0  0  0
    7.0792   -9.0217   17.1429 C   0  0  0  0  0  0  0  0  0  0  0  0
    3.1713  -10.1816   17.6634 C   0  0  0  0  0  0  0  0  0  0  0  0
    2.7878   -8.3822   16.2137 C   0  0  0  0  0  0  0  0  0  0  0  0
    9.4601   -2.6590   25.6528 C   0  0  0  0  0  0  0  0  0  0  0  0
   10.1182   -1.5672   23.1165 C   0  0  0  0  0  0  0  0  0  0  0  0
    1.0552   -9.6360   17.0650 C   0  0  0  0  0  0  0  0  0  0  0  0
    3.6519   -9.1783   16.9039 C   0  0  0  0  0  0  0  0  0  0  0  0
    7.8675   -7.0096   15.9415 C   0  0  0  0  0  0  0  0  0  0  0  0
    5.9733   -9.6553   17.3832 N   0  0  0  0  0  0  0  0  0  0  0  0
   10.2411   -2.9363   23.4301 C   0  0  0  0  0  0  0  0  0  0  0  0
   10.7288   -3.8197   19.9525 C   0  0  0  0  0  0  0  0  0  0  0  0
   10.1189   -5.0054   19.6987 C   0  0  0  0  0  0  0  0  0  0  0  0
  1  3  4  0
  1  7  4  0
  2 21  4  0
  2 27  4  0
  3  9  4  0
  3 10  4  0
  4  8  4  0
  4 18  4  0
  4 25  1  0
  5  9  4  0
  5 12  4  0
  6 13  1  0
  6 27  1  0
  7 28  4  0
  8 11  4  0
  9 29  4  0
 10 12  4  0
 11 24  1  0
 11 26  4  0
 12 25  1  0
 13 28  1  0
 14 20  4  0
 14 23  4  0
 15 17  4  0
 15 21  4  0
 16 19  4  0
 16 23  4  0
 17 22  4  0
 18 26  4  0
 19 24  4  0
 20 24  4  0
 22 27  4  0
 28 29  4  0
M  END
$$$$

 Created by Python create_sdf_string function

 29 33  0  0  0  0  0  0  0  0999 V2000
   10.7215   -3.3326   17.6437 C   0  0  0  0  0  0  0  0  0  0  0  0
    9.9489   -3.4675   24.6487 N   0  0  0  0  0  0  0  0  0  0  0  0
   10.0172   -4.4740   17.4101 C   0  0  0  0  0  0  0  0  0  0  0  0
    6.9051   -7.9575   16.4222 C   0  0  0  0  0  0  0  0  0  0  0  0
    8.9969   -6.3552   17.9668 N   0  0  0  0  0  0  0  0  0  0  0  0
   10.6702   -3.9051   22.4070 C   0  0  0  0  0  0  0  0  0  0  0  0
   11.0625   -3.0028   18.8894 C   0  0  0  0  0  0  0  0  0  0  0  0
    5.6180   -7.9194   16.1754 O   0  0  0  0  0  0  0  0  0  0  0  0
    9.7259   -5.3080   18.4485 C   0  0  0  0  0  0  0  0  0  0  0  0
    9.4578   -5.0200   16.3036 N   0  0  0  0  0  0  0  0  0  0  0  0
    5.0287   -8.9365   16.8223 C   0  0  0  0  0  0  0  0  0  0  0  0
    8.7742   -6.1498   16.6764 C   0  0  0  0  0  0  0  0  0  0  0  0
   10.9418   -3.4032   21.2053 O   0  0  0  0  0  0  0  0  0  0  0  0
    1.4797   -8.6258   16.2950 C   0  0  0  0  0  0  0  0  0  0  0  0
    9.2861   -1.2743   25.3585 C   0  0  0  0  0  0  0  0  0  0  0  0
    1.8892  -10.3985   17.7511 N   0  0  0  0  0  0  0  0  0  0  0  0
    9.6210   -0.6952   24.0976 C   0  0  0  0  0  0  0  0  0  0  0  0
    7.0792   -9.0217   17.1429 C   0  0  0  0  0  0  0  0  0  0  0  0
    3.1713  -10.1816   17.6634 C   0  0  0  0  0  0  0  0  0  0  0  0
    2.7878   -8.3822   16.2137 C   0  0  0  0  0  0  0  0  0  0  0  0
    9.4601   -2.6590   25.6528 C   0  0  0  0  0  0  0  0  0  0  0  0
   10.1182   -1.5672   23.1165 C   0  0  0  0  0  0  0  0  0  0  0  0
    1.0552   -9.6360   17.0650 C   0  0  0  0  0  0  0  0  0  0  0  0
    3.6519   -9.1783   16.9039 C   0  0  0  0  0  0  0  0  0  0  0  0
    7.8675   -7.0096   15.9415 C   0  0  0  0  0  0  0  0  0  0  0  0
    5.9733   -9.6553   17.3832 N   0  0  0  0  0  0  0  0  0  0  0  0
   10.2411   -2.9363   23.4301 C   0  0  0  0  0  0  0  0  0  0  0  0
   10.7288   -3.8197   19.9525 C   0  0  0  0  0  0  0  0  0  0  0  0
   10.1189   -5.0054   19.6987 C   0  0  0  0  0  0  0  0  0  0  0  0
  1  3  4  0
  1  7  4  0
  2 21  4  0
  2 27  4  0
  3  9  4  0
  3 10  4  0
  4  8  4  0
  4 18  4  0
  4 25  1  0
  5  9  4  0
  5 12  4  0
  6 13  1  0
  6 27  1  0
  7 28  4  0
  8 11  4  0
  9 29  4  0
 10 12  4  0
 11 24  1  0
 11 26  4  0
 12 25  1  0
 13 28  1  0
 14 20  4  0
 14 23  4  0
 15 17  4  0
 15 21  4  0
 16 19  4  0
 16 23  4  0
 17 22  4  0
 18 26  4  0
 19 24  4  0
 20 24  4  0
 22 27  4  0
 28 29  4  0
M  END
$$$$

 Created by Python create_sdf_string function

 29 33  0  0  0  0  0  0  0  0999 V2000
   10.7215   -3.3326   17.6437 C   0  0  0  0  0  0  0  0  0  0  0  0
    9.9489   -3.4675   24.6487 N   0  0  0  0  0  0  0  0  0  0  0  0
   10.0172   -4.4740   17.4101 C   0  0  0  0  0  0  0  0  0  0  0  0
    6.9051   -7.9575   16.4222 C   0  0  0  0  0  0  0  0  0  0  0  0
    8.9969   -6.3552   17.9668 N   0  0  0  0  0  0  0  0  0  0  0  0
   10.6702   -3.9051   22.4070 C   0  0  0  0  0  0  0  0  0  0  0  0
   11.0625   -3.0028   18.8894 C   0  0  0  0  0  0  0  0  0  0  0  0
    5.6180   -7.9194   16.1754 O   0  0  0  0  0  0  0  0  0  0  0  0
    9.7259   -5.3080   18.4485 C   0  0  0  0  0  0  0  0  0  0  0  0
    9.4578   -5.0200   16.3036 N   0  0  0  0  0  0  0  0  0  0  0  0
    5.0287   -8.9365   16.8223 C   0  0  0  0  0  0  0  0  0  0  0  0
    8.7742   -6.1498   16.6764 C   0  0  0  0  0  0  0  0  0  0  0  0
   10.9418   -3.4032   21.2053 O   0  0  0  0  0  0  0  0  0  0  0  0
    1.4797   -8.6258   16.2950 C   0  0  0  0  0  0  0  0  0  0  0  0
    9.2861   -1.2743   25.3585 C   0  0  0  0  0  0  0  0  0  0  0  0
    1.8892  -10.3985   17.7511 N   0  0  0  0  0  0  0  0  0  0  0  0
    9.6210   -0.6952   24.0976 C   0  0  0  0  0  0  0  0  0  0  0  0
    7.0792   -9.0217   17.1429 C   0  0  0  0  0  0  0  0  0  0  0  0
    3.1713  -10.1816   17.6634 C   0  0  0  0  0  0  0  0  0  0  0  0
    2.7878   -8.3822   16.2137 C   0  0  0  0  0  0  0  0  0  0  0  0
    9.4601   -2.6590   25.6528 C   0  0  0  0  0  0  0  0  0  0  0  0
   10.1182   -1.5672   23.1165 C   0  0  0  0  0  0  0  0  0  0  0  0
    1.0552   -9.6360   17.0650 C   0  0  0  0  0  0  0  0  0  0  0  0
    3.6519   -9.1783   16.9039 C   0  0  0  0  0  0  0  0  0  0  0  0
    7.8675   -7.0096   15.9415 C   0  0  0  0  0  0  0  0  0  0  0  0
    5.9733   -9.6553   17.3832 N   0  0  0  0  0  0  0  0  0  0  0  0
   10.2411   -2.9363   23.4301 C   0  0  0  0  0  0  0  0  0  0  0  0
   10.7288   -3.8197   19.9525 C   0  0  0  0  0  0  0  0  0  0  0  0
   10.1189   -5.0054   19.6987 C   0  0  0  0  0  0  0  0  0  0  0  0
  1  3  4  0
  1  7  4  0
  2 21  4  0
  2 27  4  0
  3  9  4  0
  3 10  4  0
  4  8  4  0
  4 18  4  0
  4 25  1  0
  5  9  4  0
  5 12  4  0
  6 13  1  0
  6 27  1  0
  7 28  4  0
  8 11  4  0
  9 29  4  0
 10 12  4  0
 11 24  1  0
 11 26  4  0
 12 25  1  0
 13 28  1  0
 14 20  4  0
 14 23  4  0
 15 17  4  0
 15 21  4  0
 16 19  4  0
 16 23  4  0
 17 22  4  0
 18 26  4  0
 19 24  4  0
 20 24  4  0
 22 27  4  0
 28 29  4  0
M  END
$$$$

 Created by Python create_sdf_string function

 29 33  0  0  0  0  0  0  0  0999 V2000
   10.7215   -3.3326   17.6437 C   0  0  0  0  0  0  0  0  0  0  0  0
    9.9489   -3.4675   24.6487 N   0  0  0  0  0  0  0  0  0  0  0  0
   10.0172   -4.4740   17.4101 C   0  0  0  0  0  0  0  0  0  0  0  0
    6.9051   -7.9575   16.4222 C   0  0  0  0  0  0  0  0  0  0  0  0
    8.9969   -6.3552   17.9668 N   0  0  0  0  0  0  0  0  0  0  0  0
   10.6702   -3.9051   22.4070 C   0  0  0  0  0  0  0  0  0  0  0  0
   11.0625   -3.0028   18.8894 C   0  0  0  0  0  0  0  0  0  0  0  0
    5.6180   -7.9194   16.1754 O   0  0  0  0  0  0  0  0  0  0  0  0
    9.7259   -5.3080   18.4485 C   0  0  0  0  0  0  0  0  0  0  0  0
    9.4578   -5.0200   16.3036 N   0  0  0  0  0  0  0  0  0  0  0  0
    5.0287   -8.9365   16.8223 C   0  0  0  0  0  0  0  0  0  0  0  0
    8.7742   -6.1498   16.6764 C   0  0  0  0  0  0  0  0  0  0  0  0
   10.9418   -3.4032   21.2053 O   0  0  0  0  0  0  0  0  0  0  0  0
    1.4797   -8.6258   16.2950 C   0  0  0  0  0  0  0  0  0  0  0  0
    9.2861   -1.2743   25.3585 C   0  0  0  0  0  0  0  0  0  0  0  0
    1.8892  -10.3985   17.7511 N   0  0  0  0  0  0  0  0  0  0  0  0
    9.6210   -0.6952   24.0976 C   0  0  0  0  0  0  0  0  0  0  0  0
    7.0792   -9.0217   17.1429 C   0  0  0  0  0  0  0  0  0  0  0  0
    3.1713  -10.1816   17.6634 C   0  0  0  0  0  0  0  0  0  0  0  0
    2.7878   -8.3822   16.2137 C   0  0  0  0  0  0  0  0  0  0  0  0
    9.4601   -2.6590   25.6528 C   0  0  0  0  0  0  0  0  0  0  0  0
   10.1182   -1.5672   23.1165 C   0  0  0  0  0  0  0  0  0  0  0  0
    1.0552   -9.6360   17.0650 C   0  0  0  0  0  0  0  0  0  0  0  0
    3.6519   -9.1783   16.9039 C   0  0  0  0  0  0  0  0  0  0  0  0
    7.8675   -7.0096   15.9415 C   0  0  0  0  0  0  0  0  0  0  0  0
    5.9733   -9.6553   17.3832 N   0  0  0  0  0  0  0  0  0  0  0  0
   10.2411   -2.9363   23.4301 C   0  0  0  0  0  0  0  0  0  0  0  0
   10.7288   -3.8197   19.9525 C   0  0  0  0  0  0  0  0  0  0  0  0
   10.1189   -5.0054   19.6987 C   0  0  0  0  0  0  0  0  0  0  0  0
  1  3  4  0
  1  7  4  0
  2 21  4  0
  2 27  4  0
  3  9  4  0
  3 10  4  0
  4  8  4  0
  4 18  4  0
  4 25  1  0
  5  9  4  0
  5 12  4  0
  6 13  1  0
  6 27  1  0
  7 28  4  0
  8 11  4  0
  9 29  4  0
 10 12  4  0
 11 24  1  0
 11 26  4  0
 12 25  1  0
 13 28  1  0
 14 20  4  0
 14 23  4  0
 15 17  4  0
 15 21  4  0
 16 19  4  0
 16 23  4  0
 17 22  4  0
 18 26  4  0
 19 24  4  0
 20 24  4  0
 22 27  4  0
 28 29  4  0
M  END
$$$$

 Created by Python create_sdf_string function

 29 33  0  0  0  0  0  0  0  0999 V2000
   10.7215   -3.3326   17.6437 C   0  0  0  0  0  0  0  0  0  0  0  0
    9.9489   -3.4675   24.6487 N   0  0  0  0  0  0  0  0  0  0  0  0
   10.0172   -4.4740   17.4101 C   0  0  0  0  0  0  0  0  0  0  0  0
    6.9051   -7.9575   16.4222 C   0  0  0  0  0  0  0  0  0  0  0  0
    8.9969   -6.3552   17.9668 N   0  0  0  0  0  0  0  0  0  0  0  0
   10.6702   -3.9051   22.4070 C   0  0  0  0  0  0  0  0  0  0  0  0
   11.0625   -3.0028   18.8894 C   0  0  0  0  0  0  0  0  0  0  0  0
    5.6180   -7.9194   16.1754 O   0  0  0  0  0  0  0  0  0  0  0  0
    9.7259   -5.3080   18.4485 C   0  0  0  0  0  0  0  0  0  0  0  0
    9.4578   -5.0200   16.3036 N   0  0  0  0  0  0  0  0  0  0  0  0
    5.0287   -8.9365   16.8223 C   0  0  0  0  0  0  0  0  0  0  0  0
    8.7742   -6.1498   16.6764 C   0  0  0  0  0  0  0  0  0  0  0  0
   10.9418   -3.4032   21.2053 O   0  0  0  0  0  0  0  0  0  0  0  0
    1.4797   -8.6258   16.2950 C   0  0  0  0  0  0  0  0  0  0  0  0
    9.2861   -1.2743   25.3585 C   0  0  0  0  0  0  0  0  0  0  0  0
    1.8892  -10.3985   17.7511 N   0  0  0  0  0  0  0  0  0  0  0  0
    9.6210   -0.6952   24.0976 C   0  0  0  0  0  0  0  0  0  0  0  0
    7.0792   -9.0217   17.1429 C   0  0  0  0  0  0  0  0  0  0  0  0
    3.1713  -10.1816   17.6634 C   0  0  0  0  0  0  0  0  0  0  0  0
    2.7878   -8.3822   16.2137 C   0  0  0  0  0  0  0  0  0  0  0  0
    9.4601   -2.6590   25.6528 C   0  0  0  0  0  0  0  0  0  0  0  0
   10.1182   -1.5672   23.1165 C   0  0  0  0  0  0  0  0  0  0  0  0
    1.0552   -9.6360   17.0650 C   0  0  0  0  0  0  0  0  0  0  0  0
    3.6519   -9.1783   16.9039 C   0  0  0  0  0  0  0  0  0  0  0  0
    7.8675   -7.0096   15.9415 C   0  0  0  0  0  0  0  0  0  0  0  0
    5.9733   -9.6553   17.3832 N   0  0  0  0  0  0  0  0  0  0  0  0
   10.2411   -2.9363   23.4301 C   0  0  0  0  0  0  0  0  0  0  0  0
   10.7288   -3.8197   19.9525 C   0  0  0  0  0  0  0  0  0  0  0  0
   10.1189   -5.0054   19.6987 C   0  0  0  0  0  0  0  0  0  0  0  0
  1  3  4  0
  1  7  4  0
  2 21  4  0
  2 27  4  0
  3  9  4  0
  3 10  4  0
  4  8  4  0
  4 18  4  0
  4 25  1  0
  5  9  4  0
  5 12  4  0
  6 13  1  0
  6 27  1  0
  7 28  4  0
  8 11  4  0
  9 29  4  0
 10 12  4  0
 11 24  1  0
 11 26  4  0
 12 25  1  0
 13 28  1  0
 14 20  4  0
 14 23  4  0
 15 17  4  0
 15 21  4  0
 16 19  4  0
 16 23  4  0
 17 22  4  0
 18 26  4  0
 19 24  4  0
 20 24  4  0
 22 27  4  0
 28 29  4  0
M  END
$$$$

 Created by Python create_sdf_string function

 29 33  0  0  0  0  0  0  0  0999 V2000
   10.7215   -3.3326   17.6437 C   0  0  0  0  0  0  0  0  0  0  0  0
    9.9489   -3.4675   24.6487 N   0  0  0  0  0  0  0  0  0  0  0  0
   10.0172   -4.4740   17.4101 C   0  0  0  0  0  0  0  0  0  0  0  0
    6.9051   -7.9575   16.4222 C   0  0  0  0  0  0  0  0  0  0  0  0
    8.9969   -6.3552   17.9668 N   0  0  0  0  0  0  0  0  0  0  0  0
   10.6702   -3.9051   22.4070 C   0  0  0  0  0  0  0  0  0  0  0  0
   11.0625   -3.0028   18.8894 C   0  0  0  0  0  0  0  0  0  0  0  0
    5.6180   -7.9194   16.1754 O   0  0  0  0  0  0  0  0  0  0  0  0
    9.7259   -5.3080   18.4485 C   0  0  0  0  0  0  0  0  0  0  0  0
    9.4578   -5.0200   16.3036 N   0  0  0  0  0  0  0  0  0  0  0  0
    5.0287   -8.9365   16.8223 C   0  0  0  0  0  0  0  0  0  0  0  0
    8.7742   -6.1498   16.6764 C   0  0  0  0  0  0  0  0  0  0  0  0
   10.9418   -3.4032   21.2053 O   0  0  0  0  0  0  0  0  0  0  0  0
    1.4797   -8.6258   16.2950 C   0  0  0  0  0  0  0  0  0  0  0  0
    9.2861   -1.2743   25.3585 C   0  0  0  0  0  0  0  0  0  0  0  0
    1.8892  -10.3985   17.7511 N   0  0  0  0  0  0  0  0  0  0  0  0
    9.6210   -0.6952   24.0976 C   0  0  0  0  0  0  0  0  0  0  0  0
    7.0792   -9.0217   17.1429 C   0  0  0  0  0  0  0  0  0  0  0  0
    3.1713  -10.1816   17.6634 C   0  0  0  0  0  0  0  0  0  0  0  0
    2.7878   -8.3822   16.2137 C   0  0  0  0  0  0  0  0  0  0  0  0
    9.4601   -2.6590   25.6528 C   0  0  0  0  0  0  0  0  0  0  0  0
   10.1182   -1.5672   23.1165 C   0  0  0  0  0  0  0  0  0  0  0  0
    1.0552   -9.6360   17.0650 C   0  0  0  0  0  0  0  0  0  0  0  0
    3.6519   -9.1783   16.9039 C   0  0  0  0  0  0  0  0  0  0  0  0
    7.8675   -7.0096   15.9415 C   0  0  0  0  0  0  0  0  0  0  0  0
    5.9733   -9.6553   17.3832 N   0  0  0  0  0  0  0  0  0  0  0  0
   10.2411   -2.9363   23.4301 C   0  0  0  0  0  0  0  0  0  0  0  0
   10.7288   -3.8197   19.9525 C   0  0  0  0  0  0  0  0  0  0  0  0
   10.1189   -5.0054   19.6987 C   0  0  0  0  0  0  0  0  0  0  0  0
  1  3  4  0
  1  7  4  0
  2 21  4  0
  2 27  4  0
  3  9  4  0
  3 10  4  0
  4  8  4  0
  4 18  4  0
  4 25  1  0
  5  9  4  0
  5 12  4  0
  6 13  1  0
  6 27  1  0
  7 28  4  0
  8 11  4  0
  9 29  4  0
 10 12  4  0
 11 24  1  0
 11 26  4  0
 12 25  1  0
 13 28  1  0
 14 20  4  0
 14 23  4  0
 15 17  4  0
 15 21  4  0
 16 19  4  0
 16 23  4  0
 17 22  4  0
 18 26  4  0
 19 24  4  0
 20 24  4  0
 22 27  4  0
 28 29  4  0
M  END
$$$$

 Created by Python create_sdf_string function

 29 33  0  0  0  0  0  0  0  0999 V2000
   10.7215   -3.3326   17.6437 C   0  0  0  0  0  0  0  0  0  0  0  0
    9.9489   -3.4675   24.6487 N   0  0  0  0  0  0  0  0  0  0  0  0
   10.0172   -4.4740   17.4101 C   0  0  0  0  0  0  0  0  0  0  0  0
    6.9051   -7.9575   16.4222 C   0  0  0  0  0  0  0  0  0  0  0  0
    8.9969   -6.3552   17.9668 N   0  0  0  0  0  0  0  0  0  0  0  0
   10.6702   -3.9051   22.4070 C   0  0  0  0  0  0  0  0  0  0  0  0
   11.0625   -3.0028   18.8894 C   0  0  0  0  0  0  0  0  0  0  0  0
    5.6180   -7.9194   16.1754 O   0  0  0  0  0  0  0  0  0  0  0  0
    9.7259   -5.3080   18.4485 C   0  0  0  0  0  0  0  0  0  0  0  0
    9.4578   -5.0200   16.3036 N   0  0  0  0  0  0  0  0  0  0  0  0
    5.0287   -8.9365   16.8223 C   0  0  0  0  0  0  0  0  0  0  0  0
    8.7742   -6.1498   16.6764 C   0  0  0  0  0  0  0  0  0  0  0  0
   10.9418   -3.4032   21.2053 O   0  0  0  0  0  0  0  0  0  0  0  0
    1.4797   -8.6258   16.2950 C   0  0  0  0  0  0  0  0  0  0  0  0
    9.2861   -1.2743   25.3585 C   0  0  0  0  0  0  0  0  0  0  0  0
    1.8892  -10.3985   17.7511 N   0  0  0  0  0  0  0  0  0  0  0  0
    9.6210   -0.6952   24.0976 C   0  0  0  0  0  0  0  0  0  0  0  0
    7.0792   -9.0217   17.1429 C   0  0  0  0  0  0  0  0  0  0  0  0
    3.1713  -10.1816   17.6634 C   0  0  0  0  0  0  0  0  0  0  0  0
    2.7878   -8.3822   16.2137 C   0  0  0  0  0  0  0  0  0  0  0  0
    9.4601   -2.6590   25.6528 C   0  0  0  0  0  0  0  0  0  0  0  0
   10.1182   -1.5672   23.1165 C   0  0  0  0  0  0  0  0  0  0  0  0
    1.0552   -9.6360   17.0650 C   0  0  0  0  0  0  0  0  0  0  0  0
    3.6519   -9.1783   16.9039 C   0  0  0  0  0  0  0  0  0  0  0  0
    7.8675   -7.0096   15.9415 C   0  0  0  0  0  0  0  0  0  0  0  0
    5.9733   -9.6553   17.3832 N   0  0  0  0  0  0  0  0  0  0  0  0
   10.2411   -2.9363   23.4301 C   0  0  0  0  0  0  0  0  0  0  0  0
   10.7288   -3.8197   19.9525 C   0  0  0  0  0  0  0  0  0  0  0  0
   10.1189   -5.0054   19.6987 C   0  0  0  0  0  0  0  0  0  0  0  0
  1  3  4  0
  1  7  4  0
  2 21  4  0
  2 27  4  0
  3  9  4  0
  3 10  4  0
  4  8  4  0
  4 18  4  0
  4 25  1  0
  5  9  4  0
  5 12  4  0
  6 13  1  0
  6 27  1  0
  7 28  4  0
  8 11  4  0
  9 29  4  0
 10 12  4  0
 11 24  1  0
 11 26  4  0
 12 25  1  0
 13 28  1  0
 14 20  4  0
 14 23  4  0
 15 17  4  0
 15 21  4  0
 16 19  4  0
 16 23  4  0
 17 22  4  0
 18 26  4  0
 19 24  4  0
 20 24  4  0
 22 27  4  0
 28 29  4  0
M  END
$$$$

 Created by Python create_sdf_string function

 29 33  0  0  0  0  0  0  0  0999 V2000
   10.7215   -3.3326   17.6437 C   0  0  0  0  0  0  0  0  0  0  0  0
    9.9489   -3.4675   24.6487 N   0  0  0  0  0  0  0  0  0  0  0  0
   10.0172   -4.4740   17.4101 C   0  0  0  0  0  0  0  0  0  0  0  0
    6.9051   -7.9575   16.4222 C   0  0  0  0  0  0  0  0  0  0  0  0
    8.9969   -6.3552   17.9668 N   0  0  0  0  0  0  0  0  0  0  0  0
   10.6702   -3.9051   22.4070 C   0  0  0  0  0  0  0  0  0  0  0  0
   11.0625   -3.0028   18.8894 C   0  0  0  0  0  0  0  0  0  0  0  0
    5.6180   -7.9194   16.1754 O   0  0  0  0  0  0  0  0  0  0  0  0
    9.7259   -5.3080   18.4485 C   0  0  0  0  0  0  0  0  0  0  0  0
    9.4578   -5.0200   16.3036 N   0  0  0  0  0  0  0  0  0  0  0  0
    5.0287   -8.9365   16.8223 C   0  0  0  0  0  0  0  0  0  0  0  0
    8.7742   -6.1498   16.6764 C   0  0  0  0  0  0  0  0  0  0  0  0
   10.9418   -3.4032   21.2053 O   0  0  0  0  0  0  0  0  0  0  0  0
    1.4797   -8.6258   16.2950 C   0  0  0  0  0  0  0  0  0  0  0  0
    9.2861   -1.2743   25.3585 C   0  0  0  0  0  0  0  0  0  0  0  0
    1.8892  -10.3985   17.7511 N   0  0  0  0  0  0  0  0  0  0  0  0
    9.6210   -0.6952   24.0976 C   0  0  0  0  0  0  0  0  0  0  0  0
    7.0792   -9.0217   17.1429 C   0  0  0  0  0  0  0  0  0  0  0  0
    3.1713  -10.1816   17.6634 C   0  0  0  0  0  0  0  0  0  0  0  0
    2.7878   -8.3822   16.2137 C   0  0  0  0  0  0  0  0  0  0  0  0
    9.4601   -2.6590   25.6528 C   0  0  0  0  0  0  0  0  0  0  0  0
   10.1182   -1.5672   23.1165 C   0  0  0  0  0  0  0  0  0  0  0  0
    1.0552   -9.6360   17.0650 C   0  0  0  0  0  0  0  0  0  0  0  0
    3.6519   -9.1783   16.9039 C   0  0  0  0  0  0  0  0  0  0  0  0
    7.8675   -7.0096   15.9415 C   0  0  0  0  0  0  0  0  0  0  0  0
    5.9733   -9.6553   17.3832 N   0  0  0  0  0  0  0  0  0  0  0  0
   10.2411   -2.9363   23.4301 C   0  0  0  0  0  0  0  0  0  0  0  0
   10.7288   -3.8197   19.9525 C   0  0  0  0  0  0  0  0  0  0  0  0
   10.1189   -5.0054   19.6987 C   0  0  0  0  0  0  0  0  0  0  0  0
  1  3  4  0
  1  7  4  0
  2 21  4  0
  2 27  4  0
  3  9  4  0
  3 10  4  0
  4  8  4  0
  4 18  4  0
  4 25  1  0
  5  9  4  0
  5 12  4  0
  6 13  1  0
  6 27  1  0
  7 28  4  0
  8 11  4  0
  9 29  4  0
 10 12  4  0
 11 24  1  0
 11 26  4  0
 12 25  1  0
 13 28  1  0
 14 20  4  0
 14 23  4  0
 15 17  4  0
 15 21  4  0
 16 19  4  0
 16 23  4  0
 17 22  4  0
 18 26  4  0
 19 24  4  0
 20 24  4  0
 22 27  4  0
 28 29  4  0
M  END
$$$$

 Created by Python create_sdf_string function

 29 33  0  0  0  0  0  0  0  0999 V2000
   10.7215   -3.3326   17.6437 C   0  0  0  0  0  0  0  0  0  0  0  0
    9.9489   -3.4675   24.6487 N   0  0  0  0  0  0  0  0  0  0  0  0
   10.0172   -4.4740   17.4101 C   0  0  0  0  0  0  0  0  0  0  0  0
    6.9051   -7.9575   16.4222 C   0  0  0  0  0  0  0  0  0  0  0  0
    8.9969   -6.3552   17.9668 N   0  0  0  0  0  0  0  0  0  0  0  0
   10.6702   -3.9051   22.4070 C   0  0  0  0  0  0  0  0  0  0  0  0
   11.0625   -3.0028   18.8894 C   0  0  0  0  0  0  0  0  0  0  0  0
    5.6180   -7.9194   16.1754 O   0  0  0  0  0  0  0  0  0  0  0  0
    9.7259   -5.3080   18.4485 C   0  0  0  0  0  0  0  0  0  0  0  0
    9.4578   -5.0200   16.3036 N   0  0  0  0  0  0  0  0  0  0  0  0
    5.0287   -8.9365   16.8223 C   0  0  0  0  0  0  0  0  0  0  0  0
    8.7742   -6.1498   16.6764 C   0  0  0  0  0  0  0  0  0  0  0  0
   10.9418   -3.4032   21.2053 O   0  0  0  0  0  0  0  0  0  0  0  0
    1.4797   -8.6258   16.2950 C   0  0  0  0  0  0  0  0  0  0  0  0
    9.2861   -1.2743   25.3585 C   0  0  0  0  0  0  0  0  0  0  0  0
    1.8892  -10.3985   17.7511 N   0  0  0  0  0  0  0  0  0  0  0  0
    9.6210   -0.6952   24.0976 C   0  0  0  0  0  0  0  0  0  0  0  0
    7.0792   -9.0217   17.1429 C   0  0  0  0  0  0  0  0  0  0  0  0
    3.1713  -10.1816   17.6634 C   0  0  0  0  0  0  0  0  0  0  0  0
    2.7878   -8.3822   16.2137 C   0  0  0  0  0  0  0  0  0  0  0  0
    9.4601   -2.6590   25.6528 C   0  0  0  0  0  0  0  0  0  0  0  0
   10.1182   -1.5672   23.1165 C   0  0  0  0  0  0  0  0  0  0  0  0
    1.0552   -9.6360   17.0650 C   0  0  0  0  0  0  0  0  0  0  0  0
    3.6519   -9.1783   16.9039 C   0  0  0  0  0  0  0  0  0  0  0  0
    7.8675   -7.0096   15.9415 C   0  0  0  0  0  0  0  0  0  0  0  0
    5.9733   -9.6553   17.3832 N   0  0  0  0  0  0  0  0  0  0  0  0
   10.2411   -2.9363   23.4301 C   0  0  0  0  0  0  0  0  0  0  0  0
   10.7288   -3.8197   19.9525 C   0  0  0  0  0  0  0  0  0  0  0  0
   10.1189   -5.0054   19.6987 C   0  0  0  0  0  0  0  0  0  0  0  0
  1  3  4  0
  1  7  4  0
  2 21  4  0
  2 27  4  0
  3  9  4  0
  3 10  4  0
  4  8  4  0
  4 18  4  0
  4 25  1  0
  5  9  4  0
  5 12  4  0
  6 13  1  0
  6 27  1  0
  7 28  4  0
  8 11  4  0
  9 29  4  0
 10 12  4  0
 11 24  1  0
 11 26  4  0
 12 25  1  0
 13 28  1  0
 14 20  4  0
 14 23  4  0
 15 17  4  0
 15 21  4  0
 16 19  4  0
 16 23  4  0
 17 22  4  0
 18 26  4  0
 19 24  4  0
 20 24  4  0
 22 27  4  0
 28 29  4  0
M  END
$$$$

 Created by Python create_sdf_string function

 29 33  0  0  0  0  0  0  0  0999 V2000
   10.7215   -3.3326   17.6437 C   0  0  0  0  0  0  0  0  0  0  0  0
    9.9489   -3.4675   24.6487 N   0  0  0  0  0  0  0  0  0  0  0  0
   10.0172   -4.4740   17.4101 C   0  0  0  0  0  0  0  0  0  0  0  0
    6.9051   -7.9575   16.4222 C   0  0  0  0  0  0  0  0  0  0  0  0
    8.9969   -6.3552   17.9668 N   0  0  0  0  0  0  0  0  0  0  0  0
   10.6702   -3.9051   22.4070 C   0  0  0  0  0  0  0  0  0  0  0  0
   11.0625   -3.0028   18.8894 C   0  0  0  0  0  0  0  0  0  0  0  0
    5.6180   -7.9194   16.1754 O   0  0  0  0  0  0  0  0  0  0  0  0
    9.7259   -5.3080   18.4485 C   0  0  0  0  0  0  0  0  0  0  0  0
    9.4578   -5.0200   16.3036 N   0  0  0  0  0  0  0  0  0  0  0  0
    5.0287   -8.9365   16.8223 C   0  0  0  0  0  0  0  0  0  0  0  0
    8.7742   -6.1498   16.6764 C   0  0  0  0  0  0  0  0  0  0  0  0
   10.9418   -3.4032   21.2053 O   0  0  0  0  0  0  0  0  0  0  0  0
    1.4797   -8.6258   16.2950 C   0  0  0  0  0  0  0  0  0  0  0  0
    9.2861   -1.2743   25.3585 C   0  0  0  0  0  0  0  0  0  0  0  0
    1.8892  -10.3985   17.7511 N   0  0  0  0  0  0  0  0  0  0  0  0
    9.6210   -0.6952   24.0976 C   0  0  0  0  0  0  0  0  0  0  0  0
    7.0792   -9.0217   17.1429 C   0  0  0  0  0  0  0  0  0  0  0  0
    3.1713  -10.1816   17.6634 C   0  0  0  0  0  0  0  0  0  0  0  0
    2.7878   -8.3822   16.2137 C   0  0  0  0  0  0  0  0  0  0  0  0
    9.4601   -2.6590   25.6528 C   0  0  0  0  0  0  0  0  0  0  0  0
   10.1182   -1.5672   23.1165 C   0  0  0  0  0  0  0  0  0  0  0  0
    1.0552   -9.6360   17.0650 C   0  0  0  0  0  0  0  0  0  0  0  0
    3.6519   -9.1783   16.9039 C   0  0  0  0  0  0  0  0  0  0  0  0
    7.8675   -7.0096   15.9415 C   0  0  0  0  0  0  0  0  0  0  0  0
    5.9733   -9.6553   17.3832 N   0  0  0  0  0  0  0  0  0  0  0  0
   10.2411   -2.9363   23.4301 C   0  0  0  0  0  0  0  0  0  0  0  0
   10.7288   -3.8197   19.9525 C   0  0  0  0  0  0  0  0  0  0  0  0
   10.1189   -5.0054   19.6987 C   0  0  0  0  0  0  0  0  0  0  0  0
  1  3  4  0
  1  7  4  0
  2 21  4  0
  2 27  4  0
  3  9  4  0
  3 10  4  0
  4  8  4  0
  4 18  4  0
  4 25  1  0
  5  9  4  0
  5 12  4  0
  6 13  1  0
  6 27  1  0
  7 28  4  0
  8 11  4  0
  9 29  4  0
 10 12  4  0
 11 24  1  0
 11 26  4  0
 12 25  1  0
 13 28  1  0
 14 20  4  0
 14 23  4  0
 15 17  4  0
 15 21  4  0
 16 19  4  0
 16 23  4  0
 17 22  4  0
 18 26  4  0
 19 24  4  0
 20 24  4  0
 22 27  4  0
 28 29  4  0
M  END
$$$$

 Created by Python create_sdf_string function

 29 33  0  0  0  0  0  0  0  0999 V2000
   10.7215   -3.3326   17.6437 C   0  0  0  0  0  0  0  0  0  0  0  0
    9.9489   -3.4675   24.6487 N   0  0  0  0  0  0  0  0  0  0  0  0
   10.0172   -4.4740   17.4101 C   0  0  0  0  0  0  0  0  0  0  0  0
    6.9051   -7.9575   16.4222 C   0  0  0  0  0  0  0  0  0  0  0  0
    8.9969   -6.3552   17.9668 N   0  0  0  0  0  0  0  0  0  0  0  0
   10.6702   -3.9051   22.4070 C   0  0  0  0  0  0  0  0  0  0  0  0
   11.0625   -3.0028   18.8894 C   0  0  0  0  0  0  0  0  0  0  0  0
    5.6180   -7.9194   16.1754 O   0  0  0  0  0  0  0  0  0  0  0  0
    9.7259   -5.3080   18.4485 C   0  0  0  0  0  0  0  0  0  0  0  0
    9.4578   -5.0200   16.3036 N   0  0  0  0  0  0  0  0  0  0  0  0
    5.0287   -8.9365   16.8223 C   0  0  0  0  0  0  0  0  0  0  0  0
    8.7742   -6.1498   16.6764 C   0  0  0  0  0  0  0  0  0  0  0  0
   10.9418   -3.4032   21.2053 O   0  0  0  0  0  0  0  0  0  0  0  0
    1.4797   -8.6258   16.2950 C   0  0  0  0  0  0  0  0  0  0  0  0
    9.2861   -1.2743   25.3585 C   0  0  0  0  0  0  0  0  0  0  0  0
    1.8892  -10.3985   17.7511 N   0  0  0  0  0  0  0  0  0  0  0  0
    9.6210   -0.6952   24.0976 C   0  0  0  0  0  0  0  0  0  0  0  0
    7.0792   -9.0217   17.1429 C   0  0  0  0  0  0  0  0  0  0  0  0
    3.1713  -10.1816   17.6634 C   0  0  0  0  0  0  0  0  0  0  0  0
    2.7878   -8.3822   16.2137 C   0  0  0  0  0  0  0  0  0  0  0  0
    9.4601   -2.6590   25.6528 C   0  0  0  0  0  0  0  0  0  0  0  0
   10.1182   -1.5672   23.1165 C   0  0  0  0  0  0  0  0  0  0  0  0
    1.0552   -9.6360   17.0650 C   0  0  0  0  0  0  0  0  0  0  0  0
    3.6519   -9.1783   16.9039 C   0  0  0  0  0  0  0  0  0  0  0  0
    7.8675   -7.0096   15.9415 C   0  0  0  0  0  0  0  0  0  0  0  0
    5.9733   -9.6553   17.3832 N   0  0  0  0  0  0  0  0  0  0  0  0
   10.2411   -2.9363   23.4301 C   0  0  0  0  0  0  0  0  0  0  0  0
   10.7288   -3.8197   19.9525 C   0  0  0  0  0  0  0  0  0  0  0  0
   10.1189   -5.0054   19.6987 C   0  0  0  0  0  0  0  0  0  0  0  0
  1  3  4  0
  1  7  4  0
  2 21  4  0
  2 27  4  0
  3  9  4  0
  3 10  4  0
  4  8  4  0
  4 18  4  0
  4 25  1  0
  5  9  4  0
  5 12  4  0
  6 13  1  0
  6 27  1  0
  7 28  4  0
  8 11  4  0
  9 29  4  0
 10 12  4  0
 11 24  1  0
 11 26  4  0
 12 25  1  0
 13 28  1  0
 14 20  4  0
 14 23  4  0
 15 17  4  0
 15 21  4  0
 16 19  4  0
 16 23  4  0
 17 22  4  0
 18 26  4  0
 19 24  4  0
 20 24  4  0
 22 27  4  0
 28 29  4  0
M  END
$$$$

 Created by Python create_sdf_string function

 29 33  0  0  0  0  0  0  0  0999 V2000
   10.7215   -3.3326   17.6437 C   0  0  0  0  0  0  0  0  0  0  0  0
    9.9489   -3.4675   24.6487 N   0  0  0  0  0  0  0  0  0  0  0  0
   10.0172   -4.4740   17.4101 C   0  0  0  0  0  0  0  0  0  0  0  0
    6.9051   -7.9575   16.4222 C   0  0  0  0  0  0  0  0  0  0  0  0
    8.9969   -6.3552   17.9668 N   0  0  0  0  0  0  0  0  0  0  0  0
   10.6702   -3.9051   22.4070 C   0  0  0  0  0  0  0  0  0  0  0  0
   11.0625   -3.0028   18.8894 C   0  0  0  0  0  0  0  0  0  0  0  0
    5.6180   -7.9194   16.1754 O   0  0  0  0  0  0  0  0  0  0  0  0
    9.7259   -5.3080   18.4485 C   0  0  0  0  0  0  0  0  0  0  0  0
    9.4578   -5.0200   16.3036 N   0  0  0  0  0  0  0  0  0  0  0  0
    5.0287   -8.9365   16.8223 C   0  0  0  0  0  0  0  0  0  0  0  0
    8.7742   -6.1498   16.6764 C   0  0  0  0  0  0  0  0  0  0  0  0
   10.9418   -3.4032   21.2053 O   0  0  0  0  0  0  0  0  0  0  0  0
    1.4797   -8.6258   16.2950 C   0  0  0  0  0  0  0  0  0  0  0  0
    9.2861   -1.2743   25.3585 C   0  0  0  0  0  0  0  0  0  0  0  0
    1.8892  -10.3985   17.7511 N   0  0  0  0  0  0  0  0  0  0  0  0
    9.6210   -0.6952   24.0976 C   0  0  0  0  0  0  0  0  0  0  0  0
    7.0792   -9.0217   17.1429 C   0  0  0  0  0  0  0  0  0  0  0  0
    3.1713  -10.1816   17.6634 C   0  0  0  0  0  0  0  0  0  0  0  0
    2.7878   -8.3822   16.2137 C   0  0  0  0  0  0  0  0  0  0  0  0
    9.4601   -2.6590   25.6528 C   0  0  0  0  0  0  0  0  0  0  0  0
   10.1182   -1.5672   23.1165 C   0  0  0  0  0  0  0  0  0  0  0  0
    1.0552   -9.6360   17.0650 C   0  0  0  0  0  0  0  0  0  0  0  0
    3.6519   -9.1783   16.9039 C   0  0  0  0  0  0  0  0  0  0  0  0
    7.8675   -7.0096   15.9415 C   0  0  0  0  0  0  0  0  0  0  0  0
    5.9733   -9.6553   17.3832 N   0  0  0  0  0  0  0  0  0  0  0  0
   10.2411   -2.9363   23.4301 C   0  0  0  0  0  0  0  0  0  0  0  0
   10.7288   -3.8197   19.9525 C   0  0  0  0  0  0  0  0  0  0  0  0
   10.1189   -5.0054   19.6987 C   0  0  0  0  0  0  0  0  0  0  0  0
  1  3  4  0
  1  7  4  0
  2 21  4  0
  2 27  4  0
  3  9  4  0
  3 10  4  0
  4  8  4  0
  4 18  4  0
  4 25  1  0
  5  9  4  0
  5 12  4  0
  6 13  1  0
  6 27  1  0
  7 28  4  0
  8 11  4  0
  9 29  4  0
 10 12  4  0
 11 24  1  0
 11 26  4  0
 12 25  1  0
 13 28  1  0
 14 20  4  0
 14 23  4  0
 15 17  4  0
 15 21  4  0
 16 19  4  0
 16 23  4  0
 17 22  4  0
 18 26  4  0
 19 24  4  0
 20 24  4  0
 22 27  4  0
 28 29  4  0
M  END
$$$$

 Created by Python create_sdf_string function

 29 33  0  0  0  0  0  0  0  0999 V2000
   10.7215   -3.3326   17.6437 C   0  0  0  0  0  0  0  0  0  0  0  0
    9.9489   -3.4675   24.6487 N   0  0  0  0  0  0  0  0  0  0  0  0
   10.0172   -4.4740   17.4101 C   0  0  0  0  0  0  0  0  0  0  0  0
    6.9051   -7.9575   16.4222 C   0  0  0  0  0  0  0  0  0  0  0  0
    8.9969   -6.3552   17.9668 N   0  0  0  0  0  0  0  0  0  0  0  0
   10.6702   -3.9051   22.4070 C   0  0  0  0  0  0  0  0  0  0  0  0
   11.0625   -3.0028   18.8894 C   0  0  0  0  0  0  0  0  0  0  0  0
    5.6180   -7.9194   16.1754 O   0  0  0  0  0  0  0  0  0  0  0  0
    9.7259   -5.3080   18.4485 C   0  0  0  0  0  0  0  0  0  0  0  0
    9.4578   -5.0200   16.3036 N   0  0  0  0  0  0  0  0  0  0  0  0
    5.0287   -8.9365   16.8223 C   0  0  0  0  0  0  0  0  0  0  0  0
    8.7742   -6.1498   16.6764 C   0  0  0  0  0  0  0  0  0  0  0  0
   10.9418   -3.4032   21.2053 O   0  0  0  0  0  0  0  0  0  0  0  0
    1.4797   -8.6258   16.2950 C   0  0  0  0  0  0  0  0  0  0  0  0
    9.2861   -1.2743   25.3585 C   0  0  0  0  0  0  0  0  0  0  0  0
    1.8892  -10.3985   17.7511 N   0  0  0  0  0  0  0  0  0  0  0  0
    9.6210   -0.6952   24.0976 C   0  0  0  0  0  0  0  0  0  0  0  0
    7.0792   -9.0217   17.1429 C   0  0  0  0  0  0  0  0  0  0  0  0
    3.1713  -10.1816   17.6634 C   0  0  0  0  0  0  0  0  0  0  0  0
    2.7878   -8.3822   16.2137 C   0  0  0  0  0  0  0  0  0  0  0  0
    9.4601   -2.6590   25.6528 C   0  0  0  0  0  0  0  0  0  0  0  0
   10.1182   -1.5672   23.1165 C   0  0  0  0  0  0  0  0  0  0  0  0
    1.0552   -9.6360   17.0650 C   0  0  0  0  0  0  0  0  0  0  0  0
    3.6519   -9.1783   16.9039 C   0  0  0  0  0  0  0  0  0  0  0  0
    7.8675   -7.0096   15.9415 C   0  0  0  0  0  0  0  0  0  0  0  0
    5.9733   -9.6553   17.3832 N   0  0  0  0  0  0  0  0  0  0  0  0
   10.2411   -2.9363   23.4301 C   0  0  0  0  0  0  0  0  0  0  0  0
   10.7288   -3.8197   19.9525 C   0  0  0  0  0  0  0  0  0  0  0  0
   10.1189   -5.0054   19.6987 C   0  0  0  0  0  0  0  0  0  0  0  0
  1  3  4  0
  1  7  4  0
  2 21  4  0
  2 27  4  0
  3  9  4  0
  3 10  4  0
  4  8  4  0
  4 18  4  0
  4 25  1  0
  5  9  4  0
  5 12  4  0
  6 13  1  0
  6 27  1  0
  7 28  4  0
  8 11  4  0
  9 29  4  0
 10 12  4  0
 11 24  1  0
 11 26  4  0
 12 25  1  0
 13 28  1  0
 14 20  4  0
 14 23  4  0
 15 17  4  0
 15 21  4  0
 16 19  4  0
 16 23  4  0
 17 22  4  0
 18 26  4  0
 19 24  4  0
 20 24  4  0
 22 27  4  0
 28 29  4  0
M  END
$$$$

 Created by Python create_sdf_string function

 29 33  0  0  0  0  0  0  0  0999 V2000
   10.7215   -3.3326   17.6437 C   0  0  0  0  0  0  0  0  0  0  0  0
    9.9489   -3.4675   24.6487 N   0  0  0  0  0  0  0  0  0  0  0  0
   10.0172   -4.4740   17.4101 C   0  0  0  0  0  0  0  0  0  0  0  0
    6.9051   -7.9575   16.4222 C   0  0  0  0  0  0  0  0  0  0  0  0
    8.9969   -6.3552   17.9668 N   0  0  0  0  0  0  0  0  0  0  0  0
   10.6702   -3.9051   22.4070 C   0  0  0  0  0  0  0  0  0  0  0  0
   11.0625   -3.0028   18.8894 C   0  0  0  0  0  0  0  0  0  0  0  0
    5.6180   -7.9194   16.1754 O   0  0  0  0  0  0  0  0  0  0  0  0
    9.7259   -5.3080   18.4485 C   0  0  0  0  0  0  0  0  0  0  0  0
    9.4578   -5.0200   16.3036 N   0  0  0  0  0  0  0  0  0  0  0  0
    5.0287   -8.9365   16.8223 C   0  0  0  0  0  0  0  0  0  0  0  0
    8.7742   -6.1498   16.6764 C   0  0  0  0  0  0  0  0  0  0  0  0
   10.9418   -3.4032   21.2053 O   0  0  0  0  0  0  0  0  0  0  0  0
    1.4797   -8.6258   16.2950 C   0  0  0  0  0  0  0  0  0  0  0  0
    9.2861   -1.2743   25.3585 C   0  0  0  0  0  0  0  0  0  0  0  0
    1.8892  -10.3985   17.7511 N   0  0  0  0  0  0  0  0  0  0  0  0
    9.6210   -0.6952   24.0976 C   0  0  0  0  0  0  0  0  0  0  0  0
    7.0792   -9.0217   17.1429 C   0  0  0  0  0  0  0  0  0  0  0  0
    3.1713  -10.1816   17.6634 C   0  0  0  0  0  0  0  0  0  0  0  0
    2.7878   -8.3822   16.2137 C   0  0  0  0  0  0  0  0  0  0  0  0
    9.4601   -2.6590   25.6528 C   0  0  0  0  0  0  0  0  0  0  0  0
   10.1182   -1.5672   23.1165 C   0  0  0  0  0  0  0  0  0  0  0  0
    1.0552   -9.6360   17.0650 C   0  0  0  0  0  0  0  0  0  0  0  0
    3.6519   -9.1783   16.9039 C   0  0  0  0  0  0  0  0  0  0  0  0
    7.8675   -7.0096   15.9415 C   0  0  0  0  0  0  0  0  0  0  0  0
    5.9733   -9.6553   17.3832 N   0  0  0  0  0  0  0  0  0  0  0  0
   10.2411   -2.9363   23.4301 C   0  0  0  0  0  0  0  0  0  0  0  0
   10.7288   -3.8197   19.9525 C   0  0  0  0  0  0  0  0  0  0  0  0
   10.1189   -5.0054   19.6987 C   0  0  0  0  0  0  0  0  0  0  0  0
  1  3  4  0
  1  7  4  0
  2 21  4  0
  2 27  4  0
  3  9  4  0
  3 10  4  0
  4  8  4  0
  4 18  4  0
  4 25  1  0
  5  9  4  0
  5 12  4  0
  6 13  1  0
  6 27  1  0
  7 28  4  0
  8 11  4  0
  9 29  4  0
 10 12  4  0
 11 24  1  0
 11 26  4  0
 12 25  1  0
 13 28  1  0
 14 20  4  0
 14 23  4  0
 15 17  4  0
 15 21  4  0
 16 19  4  0
 16 23  4  0
 17 22  4  0
 18 26  4  0
 19 24  4  0
 20 24  4  0
 22 27  4  0
 28 29  4  0
M  END
$$$$

 Created by Python create_sdf_string function

 29 33  0  0  0  0  0  0  0  0999 V2000
   10.7215   -3.3326   17.6437 C   0  0  0  0  0  0  0  0  0  0  0  0
    9.9489   -3.4675   24.6487 N   0  0  0  0  0  0  0  0  0  0  0  0
   10.0172   -4.4740   17.4101 C   0  0  0  0  0  0  0  0  0  0  0  0
    6.9051   -7.9575   16.4222 C   0  0  0  0  0  0  0  0  0  0  0  0
    8.9969   -6.3552   17.9668 N   0  0  0  0  0  0  0  0  0  0  0  0
   10.6702   -3.9051   22.4070 C   0  0  0  0  0  0  0  0  0  0  0  0
   11.0625   -3.0028   18.8894 C   0  0  0  0  0  0  0  0  0  0  0  0
    5.6180   -7.9194   16.1754 O   0  0  0  0  0  0  0  0  0  0  0  0
    9.7259   -5.3080   18.4485 C   0  0  0  0  0  0  0  0  0  0  0  0
    9.4578   -5.0200   16.3036 N   0  0  0  0  0  0  0  0  0  0  0  0
    5.0287   -8.9365   16.8223 C   0  0  0  0  0  0  0  0  0  0  0  0
    8.7742   -6.1498   16.6764 C   0  0  0  0  0  0  0  0  0  0  0  0
   10.9418   -3.4032   21.2053 O   0  0  0  0  0  0  0  0  0  0  0  0
    1.4797   -8.6258   16.2950 C   0  0  0  0  0  0  0  0  0  0  0  0
    9.2861   -1.2743   25.3585 C   0  0  0  0  0  0  0  0  0  0  0  0
    1.8892  -10.3985   17.7511 N   0  0  0  0  0  0  0  0  0  0  0  0
    9.6210   -0.6952   24.0976 C   0  0  0  0  0  0  0  0  0  0  0  0
    7.0792   -9.0217   17.1429 C   0  0  0  0  0  0  0  0  0  0  0  0
    3.1713  -10.1816   17.6634 C   0  0  0  0  0  0  0  0  0  0  0  0
    2.7878   -8.3822   16.2137 C   0  0  0  0  0  0  0  0  0  0  0  0
    9.4601   -2.6590   25.6528 C   0  0  0  0  0  0  0  0  0  0  0  0
   10.1182   -1.5672   23.1165 C   0  0  0  0  0  0  0  0  0  0  0  0
    1.0552   -9.6360   17.0650 C   0  0  0  0  0  0  0  0  0  0  0  0
    3.6519   -9.1783   16.9039 C   0  0  0  0  0  0  0  0  0  0  0  0
    7.8675   -7.0096   15.9415 C   0  0  0  0  0  0  0  0  0  0  0  0
    5.9733   -9.6553   17.3832 N   0  0  0  0  0  0  0  0  0  0  0  0
   10.2411   -2.9363   23.4301 C   0  0  0  0  0  0  0  0  0  0  0  0
   10.7288   -3.8197   19.9525 C   0  0  0  0  0  0  0  0  0  0  0  0
   10.1189   -5.0054   19.6987 C   0  0  0  0  0  0  0  0  0  0  0  0
  1  3  4  0
  1  7  4  0
  2 21  4  0
  2 27  4  0
  3  9  4  0
  3 10  4  0
  4  8  4  0
  4 18  4  0
  4 25  1  0
  5  9  4  0
  5 12  4  0
  6 13  1  0
  6 27  1  0
  7 28  4  0
  8 11  4  0
  9 29  4  0
 10 12  4  0
 11 24  1  0
 11 26  4  0
 12 25  1  0
 13 28  1  0
 14 20  4  0
 14 23  4  0
 15 17  4  0
 15 21  4  0
 16 19  4  0
 16 23  4  0
 17 22  4  0
 18 26  4  0
 19 24  4  0
 20 24  4  0
 22 27  4  0
 28 29  4  0
M  END
$$$$

 Created by Python create_sdf_string function

 29 33  0  0  0  0  0  0  0  0999 V2000
   10.7215   -3.3326   17.6437 C   0  0  0  0  0  0  0  0  0  0  0  0
    9.9489   -3.4675   24.6487 N   0  0  0  0  0  0  0  0  0  0  0  0
   10.0172   -4.4740   17.4101 C   0  0  0  0  0  0  0  0  0  0  0  0
    6.9051   -7.9575   16.4222 C   0  0  0  0  0  0  0  0  0  0  0  0
    8.9969   -6.3552   17.9668 N   0  0  0  0  0  0  0  0  0  0  0  0
   10.6702   -3.9051   22.4070 C   0  0  0  0  0  0  0  0  0  0  0  0
   11.0625   -3.0028   18.8894 C   0  0  0  0  0  0  0  0  0  0  0  0
    5.6180   -7.9194   16.1754 O   0  0  0  0  0  0  0  0  0  0  0  0
    9.7259   -5.3080   18.4485 C   0  0  0  0  0  0  0  0  0  0  0  0
    9.4578   -5.0200   16.3036 N   0  0  0  0  0  0  0  0  0  0  0  0
    5.0287   -8.9365   16.8223 C   0  0  0  0  0  0  0  0  0  0  0  0
    8.7742   -6.1498   16.6764 C   0  0  0  0  0  0  0  0  0  0  0  0
   10.9418   -3.4032   21.2053 O   0  0  0  0  0  0  0  0  0  0  0  0
    1.4797   -8.6258   16.2950 C   0  0  0  0  0  0  0  0  0  0  0  0
    9.2861   -1.2743   25.3585 C   0  0  0  0  0  0  0  0  0  0  0  0
    1.8892  -10.3985   17.7511 N   0  0  0  0  0  0  0  0  0  0  0  0
    9.6210   -0.6952   24.0976 C   0  0  0  0  0  0  0  0  0  0  0  0
    7.0792   -9.0217   17.1429 C   0  0  0  0  0  0  0  0  0  0  0  0
    3.1713  -10.1816   17.6634 C   0  0  0  0  0  0  0  0  0  0  0  0
    2.7878   -8.3822   16.2137 C   0  0  0  0  0  0  0  0  0  0  0  0
    9.4601   -2.6590   25.6528 C   0  0  0  0  0  0  0  0  0  0  0  0
   10.1182   -1.5672   23.1165 C   0  0  0  0  0  0  0  0  0  0  0  0
    1.0552   -9.6360   17.0650 C   0  0  0  0  0  0  0  0  0  0  0  0
    3.6519   -9.1783   16.9039 C   0  0  0  0  0  0  0  0  0  0  0  0
    7.8675   -7.0096   15.9415 C   0  0  0  0  0  0  0  0  0  0  0  0
    5.9733   -9.6553   17.3832 N   0  0  0  0  0  0  0  0  0  0  0  0
   10.2411   -2.9363   23.4301 C   0  0  0  0  0  0  0  0  0  0  0  0
   10.7288   -3.8197   19.9525 C   0  0  0  0  0  0  0  0  0  0  0  0
   10.1189   -5.0054   19.6987 C   0  0  0  0  0  0  0  0  0  0  0  0
  1  3  4  0
  1  7  4  0
  2 21  4  0
  2 27  4  0
  3  9  4  0
  3 10  4  0
  4  8  4  0
  4 18  4  0
  4 25  1  0
  5  9  4  0
  5 12  4  0
  6 13  1  0
  6 27  1  0
  7 28  4  0
  8 11  4  0
  9 29  4  0
 10 12  4  0
 11 24  1  0
 11 26  4  0
 12 25  1  0
 13 28  1  0
 14 20  4  0
 14 23  4  0
 15 17  4  0
 15 21  4  0
 16 19  4  0
 16 23  4  0
 17 22  4  0
 18 26  4  0
 19 24  4  0
 20 24  4  0
 22 27  4  0
 28 29  4  0
M  END
$$$$

 Created by Python create_sdf_string function

 29 33  0  0  0  0  0  0  0  0999 V2000
   10.7215   -3.3326   17.6437 C   0  0  0  0  0  0  0  0  0  0  0  0
    9.9489   -3.4675   24.6487 N   0  0  0  0  0  0  0  0  0  0  0  0
   10.0172   -4.4740   17.4101 C   0  0  0  0  0  0  0  0  0  0  0  0
    6.9051   -7.9575   16.4222 C   0  0  0  0  0  0  0  0  0  0  0  0
    8.9969   -6.3552   17.9668 N   0  0  0  0  0  0  0  0  0  0  0  0
   10.6702   -3.9051   22.4070 C   0  0  0  0  0  0  0  0  0  0  0  0
   11.0625   -3.0028   18.8894 C   0  0  0  0  0  0  0  0  0  0  0  0
    5.6180   -7.9194   16.1754 O   0  0  0  0  0  0  0  0  0  0  0  0
    9.7259   -5.3080   18.4485 C   0  0  0  0  0  0  0  0  0  0  0  0
    9.4578   -5.0200   16.3036 N   0  0  0  0  0  0  0  0  0  0  0  0
    5.0287   -8.9365   16.8223 C   0  0  0  0  0  0  0  0  0  0  0  0
    8.7742   -6.1498   16.6764 C   0  0  0  0  0  0  0  0  0  0  0  0
   10.9418   -3.4032   21.2053 O   0  0  0  0  0  0  0  0  0  0  0  0
    1.4797   -8.6258   16.2950 C   0  0  0  0  0  0  0  0  0  0  0  0
    9.2861   -1.2743   25.3585 C   0  0  0  0  0  0  0  0  0  0  0  0
    1.8892  -10.3985   17.7511 N   0  0  0  0  0  0  0  0  0  0  0  0
    9.6210   -0.6952   24.0976 C   0  0  0  0  0  0  0  0  0  0  0  0
    7.0792   -9.0217   17.1429 C   0  0  0  0  0  0  0  0  0  0  0  0
    3.1713  -10.1816   17.6634 C   0  0  0  0  0  0  0  0  0  0  0  0
    2.7878   -8.3822   16.2137 C   0  0  0  0  0  0  0  0  0  0  0  0
    9.4601   -2.6590   25.6528 C   0  0  0  0  0  0  0  0  0  0  0  0
   10.1182   -1.5672   23.1165 C   0  0  0  0  0  0  0  0  0  0  0  0
    1.0552   -9.6360   17.0650 C   0  0  0  0  0  0  0  0  0  0  0  0
    3.6519   -9.1783   16.9039 C   0  0  0  0  0  0  0  0  0  0  0  0
    7.8675   -7.0096   15.9415 C   0  0  0  0  0  0  0  0  0  0  0  0
    5.9733   -9.6553   17.3832 N   0  0  0  0  0  0  0  0  0  0  0  0
   10.2411   -2.9363   23.4301 C   0  0  0  0  0  0  0  0  0  0  0  0
   10.7288   -3.8197   19.9525 C   0  0  0  0  0  0  0  0  0  0  0  0
   10.1189   -5.0054   19.6987 C   0  0  0  0  0  0  0  0  0  0  0  0
  1  3  4  0
  1  7  4  0
  2 21  4  0
  2 27  4  0
  3  9  4  0
  3 10  4  0
  4  8  4  0
  4 18  4  0
  4 25  1  0
  5  9  4  0
  5 12  4  0
  6 13  1  0
  6 27  1  0
  7 28  4  0
  8 11  4  0
  9 29  4  0
 10 12  4  0
 11 24  1  0
 11 26  4  0
 12 25  1  0
 13 28  1  0
 14 20  4  0
 14 23  4  0
 15 17  4  0
 15 21  4  0
 16 19  4  0
 16 23  4  0
 17 22  4  0
 18 26  4  0
 19 24  4  0
 20 24  4  0
 22 27  4  0
 28 29  4  0
M  END
$$$$

 Created by Python create_sdf_string function

 29 33  0  0  0  0  0  0  0  0999 V2000
   10.7215   -3.3326   17.6437 C   0  0  0  0  0  0  0  0  0  0  0  0
    9.9489   -3.4675   24.6487 N   0  0  0  0  0  0  0  0  0  0  0  0
   10.0172   -4.4740   17.4101 C   0  0  0  0  0  0  0  0  0  0  0  0
    6.9051   -7.9575   16.4222 C   0  0  0  0  0  0  0  0  0  0  0  0
    8.9969   -6.3552   17.9668 N   0  0  0  0  0  0  0  0  0  0  0  0
   10.6702   -3.9051   22.4070 C   0  0  0  0  0  0  0  0  0  0  0  0
   11.0625   -3.0028   18.8894 C   0  0  0  0  0  0  0  0  0  0  0  0
    5.6180   -7.9194   16.1754 O   0  0  0  0  0  0  0  0  0  0  0  0
    9.7259   -5.3080   18.4485 C   0  0  0  0  0  0  0  0  0  0  0  0
    9.4578   -5.0200   16.3036 N   0  0  0  0  0  0  0  0  0  0  0  0
    5.0287   -8.9365   16.8223 C   0  0  0  0  0  0  0  0  0  0  0  0
    8.7742   -6.1498   16.6764 C   0  0  0  0  0  0  0  0  0  0  0  0
   10.9418   -3.4032   21.2053 O   0  0  0  0  0  0  0  0  0  0  0  0
    1.4797   -8.6258   16.2950 C   0  0  0  0  0  0  0  0  0  0  0  0
    9.2861   -1.2743   25.3585 C   0  0  0  0  0  0  0  0  0  0  0  0
    1.8892  -10.3985   17.7511 N   0  0  0  0  0  0  0  0  0  0  0  0
    9.6210   -0.6952   24.0976 C   0  0  0  0  0  0  0  0  0  0  0  0
    7.0792   -9.0217   17.1429 C   0  0  0  0  0  0  0  0  0  0  0  0
    3.1713  -10.1816   17.6634 C   0  0  0  0  0  0  0  0  0  0  0  0
    2.7878   -8.3822   16.2137 C   0  0  0  0  0  0  0  0  0  0  0  0
    9.4601   -2.6590   25.6528 C   0  0  0  0  0  0  0  0  0  0  0  0
   10.1182   -1.5672   23.1165 C   0  0  0  0  0  0  0  0  0  0  0  0
    1.0552   -9.6360   17.0650 C   0  0  0  0  0  0  0  0  0  0  0  0
    3.6519   -9.1783   16.9039 C   0  0  0  0  0  0  0  0  0  0  0  0
    7.8675   -7.0096   15.9415 C   0  0  0  0  0  0  0  0  0  0  0  0
    5.9733   -9.6553   17.3832 N   0  0  0  0  0  0  0  0  0  0  0  0
   10.2411   -2.9363   23.4301 C   0  0  0  0  0  0  0  0  0  0  0  0
   10.7288   -3.8197   19.9525 C   0  0  0  0  0  0  0  0  0  0  0  0
   10.1189   -5.0054   19.6987 C   0  0  0  0  0  0  0  0  0  0  0  0
  1  3  4  0
  1  7  4  0
  2 21  4  0
  2 27  4  0
  3  9  4  0
  3 10  4  0
  4  8  4  0
  4 18  4  0
  4 25  1  0
  5  9  4  0
  5 12  4  0
  6 13  1  0
  6 27  1  0
  7 28  4  0
  8 11  4  0
  9 29  4  0
 10 12  4  0
 11 24  1  0
 11 26  4  0
 12 25  1  0
 13 28  1  0
 14 20  4  0
 14 23  4  0
 15 17  4  0
 15 21  4  0
 16 19  4  0
 16 23  4  0
 17 22  4  0
 18 26  4  0
 19 24  4  0
 20 24  4  0
 22 27  4  0
 28 29  4  0
M  END
$$$$

 Created by Python create_sdf_string function

 29 33  0  0  0  0  0  0  0  0999 V2000
   10.7215   -3.3326   17.6437 C   0  0  0  0  0  0  0  0  0  0  0  0
    9.9489   -3.4675   24.6487 N   0  0  0  0  0  0  0  0  0  0  0  0
   10.0172   -4.4740   17.4101 C   0  0  0  0  0  0  0  0  0  0  0  0
    6.9051   -7.9575   16.4222 C   0  0  0  0  0  0  0  0  0  0  0  0
    8.9969   -6.3552   17.9668 N   0  0  0  0  0  0  0  0  0  0  0  0
   10.6702   -3.9051   22.4070 C   0  0  0  0  0  0  0  0  0  0  0  0
   11.0625   -3.0028   18.8894 C   0  0  0  0  0  0  0  0  0  0  0  0
    5.6180   -7.9194   16.1754 O   0  0  0  0  0  0  0  0  0  0  0  0
    9.7259   -5.3080   18.4485 C   0  0  0  0  0  0  0  0  0  0  0  0
    9.4578   -5.0200   16.3036 N   0  0  0  0  0  0  0  0  0  0  0  0
    5.0287   -8.9365   16.8223 C   0  0  0  0  0  0  0  0  0  0  0  0
    8.7742   -6.1498   16.6764 C   0  0  0  0  0  0  0  0  0  0  0  0
   10.9418   -3.4032   21.2053 O   0  0  0  0  0  0  0  0  0  0  0  0
    1.4797   -8.6258   16.2950 C   0  0  0  0  0  0  0  0  0  0  0  0
    9.2861   -1.2743   25.3585 C   0  0  0  0  0  0  0  0  0  0  0  0
    1.8892  -10.3985   17.7511 N   0  0  0  0  0  0  0  0  0  0  0  0
    9.6210   -0.6952   24.0976 C   0  0  0  0  0  0  0  0  0  0  0  0
    7.0792   -9.0217   17.1429 C   0  0  0  0  0  0  0  0  0  0  0  0
    3.1713  -10.1816   17.6634 C   0  0  0  0  0  0  0  0  0  0  0  0
    2.7878   -8.3822   16.2137 C   0  0  0  0  0  0  0  0  0  0  0  0
    9.4601   -2.6590   25.6528 C   0  0  0  0  0  0  0  0  0  0  0  0
   10.1182   -1.5672   23.1165 C   0  0  0  0  0  0  0  0  0  0  0  0
    1.0552   -9.6360   17.0650 C   0  0  0  0  0  0  0  0  0  0  0  0
    3.6519   -9.1783   16.9039 C   0  0  0  0  0  0  0  0  0  0  0  0
    7.8675   -7.0096   15.9415 C   0  0  0  0  0  0  0  0  0  0  0  0
    5.9733   -9.6553   17.3832 N   0  0  0  0  0  0  0  0  0  0  0  0
   10.2411   -2.9363   23.4301 C   0  0  0  0  0  0  0  0  0  0  0  0
   10.7288   -3.8197   19.9525 C   0  0  0  0  0  0  0  0  0  0  0  0
   10.1189   -5.0054   19.6987 C   0  0  0  0  0  0  0  0  0  0  0  0
  1  3  4  0
  1  7  4  0
  2 21  4  0
  2 27  4  0
  3  9  4  0
  3 10  4  0
  4  8  4  0
  4 18  4  0
  4 25  1  0
  5  9  4  0
  5 12  4  0
  6 13  1  0
  6 27  1  0
  7 28  4  0
  8 11  4  0
  9 29  4  0
 10 12  4  0
 11 24  1  0
 11 26  4  0
 12 25  1  0
 13 28  1  0
 14 20  4  0
 14 23  4  0
 15 17  4  0
 15 21  4  0
 16 19  4  0
 16 23  4  0
 17 22  4  0
 18 26  4  0
 19 24  4  0
 20 24  4  0
 22 27  4  0
 28 29  4  0
M  END
$$$$

 Created by Python create_sdf_string function

 29 33  0  0  0  0  0  0  0  0999 V2000
   10.7215   -3.3326   17.6437 C   0  0  0  0  0  0  0  0  0  0  0  0
    9.9489   -3.4675   24.6487 N   0  0  0  0  0  0  0  0  0  0  0  0
   10.0172   -4.4740   17.4101 C   0  0  0  0  0  0  0  0  0  0  0  0
    6.9051   -7.9575   16.4222 C   0  0  0  0  0  0  0  0  0  0  0  0
    8.9969   -6.3552   17.9668 N   0  0  0  0  0  0  0  0  0  0  0  0
   10.6702   -3.9051   22.4070 C   0  0  0  0  0  0  0  0  0  0  0  0
   11.0625   -3.0028   18.8894 C   0  0  0  0  0  0  0  0  0  0  0  0
    5.6180   -7.9194   16.1754 O   0  0  0  0  0  0  0  0  0  0  0  0
    9.7259   -5.3080   18.4485 C   0  0  0  0  0  0  0  0  0  0  0  0
    9.4578   -5.0200   16.3036 N   0  0  0  0  0  0  0  0  0  0  0  0
    5.0287   -8.9365   16.8223 C   0  0  0  0  0  0  0  0  0  0  0  0
    8.7742   -6.1498   16.6764 C   0  0  0  0  0  0  0  0  0  0  0  0
   10.9418   -3.4032   21.2053 O   0  0  0  0  0  0  0  0  0  0  0  0
    1.4797   -8.6258   16.2950 C   0  0  0  0  0  0  0  0  0  0  0  0
    9.2861   -1.2743   25.3585 C   0  0  0  0  0  0  0  0  0  0  0  0
    1.8892  -10.3985   17.7511 N   0  0  0  0  0  0  0  0  0  0  0  0
    9.6210   -0.6952   24.0976 C   0  0  0  0  0  0  0  0  0  0  0  0
    7.0792   -9.0217   17.1429 C   0  0  0  0  0  0  0  0  0  0  0  0
    3.1713  -10.1816   17.6634 C   0  0  0  0  0  0  0  0  0  0  0  0
    2.7878   -8.3822   16.2137 C   0  0  0  0  0  0  0  0  0  0  0  0
    9.4601   -2.6590   25.6528 C   0  0  0  0  0  0  0  0  0  0  0  0
   10.1182   -1.5672   23.1165 C   0  0  0  0  0  0  0  0  0  0  0  0
    1.0552   -9.6360   17.0650 C   0  0  0  0  0  0  0  0  0  0  0  0
    3.6519   -9.1783   16.9039 C   0  0  0  0  0  0  0  0  0  0  0  0
    7.8675   -7.0096   15.9415 C   0  0  0  0  0  0  0  0  0  0  0  0
    5.9733   -9.6553   17.3832 N   0  0  0  0  0  0  0  0  0  0  0  0
   10.2411   -2.9363   23.4301 C   0  0  0  0  0  0  0  0  0  0  0  0
   10.7288   -3.8197   19.9525 C   0  0  0  0  0  0  0  0  0  0  0  0
   10.1189   -5.0054   19.6987 C   0  0  0  0  0  0  0  0  0  0  0  0
  1  3  4  0
  1  7  4  0
  2 21  4  0
  2 27  4  0
  3  9  4  0
  3 10  4  0
  4  8  4  0
  4 18  4  0
  4 25  1  0
  5  9  4  0
  5 12  4  0
  6 13  1  0
  6 27  1  0
  7 28  4  0
  8 11  4  0
  9 29  4  0
 10 12  4  0
 11 24  1  0
 11 26  4  0
 12 25  1  0
 13 28  1  0
 14 20  4  0
 14 23  4  0
 15 17  4  0
 15 21  4  0
 16 19  4  0
 16 23  4  0
 17 22  4  0
 18 26  4  0
 19 24  4  0
 20 24  4  0
 22 27  4  0
 28 29  4  0
M  END
$$$$

 Created by Python create_sdf_string function

 29 33  0  0  0  0  0  0  0  0999 V2000
   10.7215   -3.3326   17.6437 C   0  0  0  0  0  0  0  0  0  0  0  0
    9.9489   -3.4675   24.6487 N   0  0  0  0  0  0  0  0  0  0  0  0
   10.0172   -4.4740   17.4101 C   0  0  0  0  0  0  0  0  0  0  0  0
    6.9051   -7.9575   16.4222 C   0  0  0  0  0  0  0  0  0  0  0  0
    8.9969   -6.3552   17.9668 N   0  0  0  0  0  0  0  0  0  0  0  0
   10.6702   -3.9051   22.4070 C   0  0  0  0  0  0  0  0  0  0  0  0
   11.0625   -3.0028   18.8894 C   0  0  0  0  0  0  0  0  0  0  0  0
    5.6180   -7.9194   16.1754 O   0  0  0  0  0  0  0  0  0  0  0  0
    9.7259   -5.3080   18.4485 C   0  0  0  0  0  0  0  0  0  0  0  0
    9.4578   -5.0200   16.3036 N   0  0  0  0  0  0  0  0  0  0  0  0
    5.0287   -8.9365   16.8223 C   0  0  0  0  0  0  0  0  0  0  0  0
    8.7742   -6.1498   16.6764 C   0  0  0  0  0  0  0  0  0  0  0  0
   10.9418   -3.4032   21.2053 O   0  0  0  0  0  0  0  0  0  0  0  0
    1.4797   -8.6258   16.2950 C   0  0  0  0  0  0  0  0  0  0  0  0
    9.2861   -1.2743   25.3585 C   0  0  0  0  0  0  0  0  0  0  0  0
    1.8892  -10.3985   17.7511 N   0  0  0  0  0  0  0  0  0  0  0  0
    9.6210   -0.6952   24.0976 C   0  0  0  0  0  0  0  0  0  0  0  0
    7.0792   -9.0217   17.1429 C   0  0  0  0  0  0  0  0  0  0  0  0
    3.1713  -10.1816   17.6634 C   0  0  0  0  0  0  0  0  0  0  0  0
    2.7878   -8.3822   16.2137 C   0  0  0  0  0  0  0  0  0  0  0  0
    9.4601   -2.6590   25.6528 C   0  0  0  0  0  0  0  0  0  0  0  0
   10.1182   -1.5672   23.1165 C   0  0  0  0  0  0  0  0  0  0  0  0
    1.0552   -9.6360   17.0650 C   0  0  0  0  0  0  0  0  0  0  0  0
    3.6519   -9.1783   16.9039 C   0  0  0  0  0  0  0  0  0  0  0  0
    7.8675   -7.0096   15.9415 C   0  0  0  0  0  0  0  0  0  0  0  0
    5.9733   -9.6553   17.3832 N   0  0  0  0  0  0  0  0  0  0  0  0
   10.2411   -2.9363   23.4301 C   0  0  0  0  0  0  0  0  0  0  0  0
   10.7288   -3.8197   19.9525 C   0  0  0  0  0  0  0  0  0  0  0  0
   10.1189   -5.0054   19.6987 C   0  0  0  0  0  0  0  0  0  0  0  0
  1  3  4  0
  1  7  4  0
  2 21  4  0
  2 27  4  0
  3  9  4  0
  3 10  4  0
  4  8  4  0
  4 18  4  0
  4 25  1  0
  5  9  4  0
  5 12  4  0
  6 13  1  0
  6 27  1  0
  7 28  4  0
  8 11  4  0
  9 29  4  0
 10 12  4  0
 11 24  1  0
 11 26  4  0
 12 25  1  0
 13 28  1  0
 14 20  4  0
 14 23  4  0
 15 17  4  0
 15 21  4  0
 16 19  4  0
 16 23  4  0
 17 22  4  0
 18 26  4  0
 19 24  4  0
 20 24  4  0
 22 27  4  0
 28 29  4  0
M  END
$$$$

 Created by Python create_sdf_string function

 29 33  0  0  0  0  0  0  0  0999 V2000
   10.7215   -3.3326   17.6437 C   0  0  0  0  0  0  0  0  0  0  0  0
    9.9489   -3.4675   24.6487 N   0  0  0  0  0  0  0  0  0  0  0  0
   10.0172   -4.4740   17.4101 C   0  0  0  0  0  0  0  0  0  0  0  0
    6.9051   -7.9575   16.4222 C   0  0  0  0  0  0  0  0  0  0  0  0
    8.9969   -6.3552   17.9668 N   0  0  0  0  0  0  0  0  0  0  0  0
   10.6702   -3.9051   22.4070 C   0  0  0  0  0  0  0  0  0  0  0  0
   11.0625   -3.0028   18.8894 C   0  0  0  0  0  0  0  0  0  0  0  0
    5.6180   -7.9194   16.1754 O   0  0  0  0  0  0  0  0  0  0  0  0
    9.7259   -5.3080   18.4485 C   0  0  0  0  0  0  0  0  0  0  0  0
    9.4578   -5.0200   16.3036 N   0  0  0  0  0  0  0  0  0  0  0  0
    5.0287   -8.9365   16.8223 C   0  0  0  0  0  0  0  0  0  0  0  0
    8.7742   -6.1498   16.6764 C   0  0  0  0  0  0  0  0  0  0  0  0
   10.9418   -3.4032   21.2053 O   0  0  0  0  0  0  0  0  0  0  0  0
    1.4797   -8.6258   16.2950 C   0  0  0  0  0  0  0  0  0  0  0  0
    9.2861   -1.2743   25.3585 C   0  0  0  0  0  0  0  0  0  0  0  0
    1.8892  -10.3985   17.7511 N   0  0  0  0  0  0  0  0  0  0  0  0
    9.6210   -0.6952   24.0976 C   0  0  0  0  0  0  0  0  0  0  0  0
    7.0792   -9.0217   17.1429 C   0  0  0  0  0  0  0  0  0  0  0  0
    3.1713  -10.1816   17.6634 C   0  0  0  0  0  0  0  0  0  0  0  0
    2.7878   -8.3822   16.2137 C   0  0  0  0  0  0  0  0  0  0  0  0
    9.4601   -2.6590   25.6528 C   0  0  0  0  0  0  0  0  0  0  0  0
   10.1182   -1.5672   23.1165 C   0  0  0  0  0  0  0  0  0  0  0  0
    1.0552   -9.6360   17.0650 C   0  0  0  0  0  0  0  0  0  0  0  0
    3.6519   -9.1783   16.9039 C   0  0  0  0  0  0  0  0  0  0  0  0
    7.8675   -7.0096   15.9415 C   0  0  0  0  0  0  0  0  0  0  0  0
    5.9733   -9.6553   17.3832 N   0  0  0  0  0  0  0  0  0  0  0  0
   10.2411   -2.9363   23.4301 C   0  0  0  0  0  0  0  0  0  0  0  0
   10.7288   -3.8197   19.9525 C   0  0  0  0  0  0  0  0  0  0  0  0
   10.1189   -5.0054   19.6987 C   0  0  0  0  0  0  0  0  0  0  0  0
  1  3  4  0
  1  7  4  0
  2 21  4  0
  2 27  4  0
  3  9  4  0
  3 10  4  0
  4  8  4  0
  4 18  4  0
  4 25  1  0
  5  9  4  0
  5 12  4  0
  6 13  1  0
  6 27  1  0
  7 28  4  0
  8 11  4  0
  9 29  4  0
 10 12  4  0
 11 24  1  0
 11 26  4  0
 12 25  1  0
 13 28  1  0
 14 20  4  0
 14 23  4  0
 15 17  4  0
 15 21  4  0
 16 19  4  0
 16 23  4  0
 17 22  4  0
 18 26  4  0
 19 24  4  0
 20 24  4  0
 22 27  4  0
 28 29  4  0
M  END
$$$$

 Created by Python create_sdf_string function

 29 33  0  0  0  0  0  0  0  0999 V2000
   10.7215   -3.3326   17.6437 C   0  0  0  0  0  0  0  0  0  0  0  0
    9.9489   -3.4675   24.6487 N   0  0  0  0  0  0  0  0  0  0  0  0
   10.0172   -4.4740   17.4101 C   0  0  0  0  0  0  0  0  0  0  0  0
    6.9051   -7.9575   16.4222 C   0  0  0  0  0  0  0  0  0  0  0  0
    8.9969   -6.3552   17.9668 N   0  0  0  0  0  0  0  0  0  0  0  0
   10.6702   -3.9051   22.4070 C   0  0  0  0  0  0  0  0  0  0  0  0
   11.0625   -3.0028   18.8894 C   0  0  0  0  0  0  0  0  0  0  0  0
    5.6180   -7.9194   16.1754 O   0  0  0  0  0  0  0  0  0  0  0  0
    9.7259   -5.3080   18.4485 C   0  0  0  0  0  0  0  0  0  0  0  0
    9.4578   -5.0200   16.3036 N   0  0  0  0  0  0  0  0  0  0  0  0
    5.0287   -8.9365   16.8223 C   0  0  0  0  0  0  0  0  0  0  0  0
    8.7742   -6.1498   16.6764 C   0  0  0  0  0  0  0  0  0  0  0  0
   10.9418   -3.4032   21.2053 O   0  0  0  0  0  0  0  0  0  0  0  0
    1.4797   -8.6258   16.2950 C   0  0  0  0  0  0  0  0  0  0  0  0
    9.2861   -1.2743   25.3585 C   0  0  0  0  0  0  0  0  0  0  0  0
    1.8892  -10.3985   17.7511 N   0  0  0  0  0  0  0  0  0  0  0  0
    9.6210   -0.6952   24.0976 C   0  0  0  0  0  0  0  0  0  0  0  0
    7.0792   -9.0217   17.1429 C   0  0  0  0  0  0  0  0  0  0  0  0
    3.1713  -10.1816   17.6634 C   0  0  0  0  0  0  0  0  0  0  0  0
    2.7878   -8.3822   16.2137 C   0  0  0  0  0  0  0  0  0  0  0  0
    9.4601   -2.6590   25.6528 C   0  0  0  0  0  0  0  0  0  0  0  0
   10.1182   -1.5672   23.1165 C   0  0  0  0  0  0  0  0  0  0  0  0
    1.0552   -9.6360   17.0650 C   0  0  0  0  0  0  0  0  0  0  0  0
    3.6519   -9.1783   16.9039 C   0  0  0  0  0  0  0  0  0  0  0  0
    7.8675   -7.0096   15.9415 C   0  0  0  0  0  0  0  0  0  0  0  0
    5.9733   -9.6553   17.3832 N   0  0  0  0  0  0  0  0  0  0  0  0
   10.2411   -2.9363   23.4301 C   0  0  0  0  0  0  0  0  0  0  0  0
   10.7288   -3.8197   19.9525 C   0  0  0  0  0  0  0  0  0  0  0  0
   10.1189   -5.0054   19.6987 C   0  0  0  0  0  0  0  0  0  0  0  0
  1  3  4  0
  1  7  4  0
  2 21  4  0
  2 27  4  0
  3  9  4  0
  3 10  4  0
  4  8  4  0
  4 18  4  0
  4 25  1  0
  5  9  4  0
  5 12  4  0
  6 13  1  0
  6 27  1  0
  7 28  4  0
  8 11  4  0
  9 29  4  0
 10 12  4  0
 11 24  1  0
 11 26  4  0
 12 25  1  0
 13 28  1  0
 14 20  4  0
 14 23  4  0
 15 17  4  0
 15 21  4  0
 16 19  4  0
 16 23  4  0
 17 22  4  0
 18 26  4  0
 19 24  4  0
 20 24  4  0
 22 27  4  0
 28 29  4  0
M  END
$$$$

 Created by Python create_sdf_string function

 29 33  0  0  0  0  0  0  0  0999 V2000
   10.7215   -3.3326   17.6437 C   0  0  0  0  0  0  0  0  0  0  0  0
    9.9489   -3.4675   24.6487 N   0  0  0  0  0  0  0  0  0  0  0  0
   10.0172   -4.4740   17.4101 C   0  0  0  0  0  0  0  0  0  0  0  0
    6.9051   -7.9575   16.4222 C   0  0  0  0  0  0  0  0  0  0  0  0
    8.9969   -6.3552   17.9668 N   0  0  0  0  0  0  0  0  0  0  0  0
   10.6702   -3.9051   22.4070 C   0  0  0  0  0  0  0  0  0  0  0  0
   11.0625   -3.0028   18.8894 C   0  0  0  0  0  0  0  0  0  0  0  0
    5.6180   -7.9194   16.1754 O   0  0  0  0  0  0  0  0  0  0  0  0
    9.7259   -5.3080   18.4485 C   0  0  0  0  0  0  0  0  0  0  0  0
    9.4578   -5.0200   16.3036 N   0  0  0  0  0  0  0  0  0  0  0  0
    5.0287   -8.9365   16.8223 C   0  0  0  0  0  0  0  0  0  0  0  0
    8.7742   -6.1498   16.6764 C   0  0  0  0  0  0  0  0  0  0  0  0
   10.9418   -3.4032   21.2053 O   0  0  0  0  0  0  0  0  0  0  0  0
    1.4797   -8.6258   16.2950 C   0  0  0  0  0  0  0  0  0  0  0  0
    9.2861   -1.2743   25.3585 C   0  0  0  0  0  0  0  0  0  0  0  0
    1.8892  -10.3985   17.7511 N   0  0  0  0  0  0  0  0  0  0  0  0
    9.6210   -0.6952   24.0976 C   0  0  0  0  0  0  0  0  0  0  0  0
    7.0792   -9.0217   17.1429 C   0  0  0  0  0  0  0  0  0  0  0  0
    3.1713  -10.1816   17.6634 C   0  0  0  0  0  0  0  0  0  0  0  0
    2.7878   -8.3822   16.2137 C   0  0  0  0  0  0  0  0  0  0  0  0
    9.4601   -2.6590   25.6528 C   0  0  0  0  0  0  0  0  0  0  0  0
   10.1182   -1.5672   23.1165 C   0  0  0  0  0  0  0  0  0  0  0  0
    1.0552   -9.6360   17.0650 C   0  0  0  0  0  0  0  0  0  0  0  0
    3.6519   -9.1783   16.9039 C   0  0  0  0  0  0  0  0  0  0  0  0
    7.8675   -7.0096   15.9415 C   0  0  0  0  0  0  0  0  0  0  0  0
    5.9733   -9.6553   17.3832 N   0  0  0  0  0  0  0  0  0  0  0  0
   10.2411   -2.9363   23.4301 C   0  0  0  0  0  0  0  0  0  0  0  0
   10.7288   -3.8197   19.9525 C   0  0  0  0  0  0  0  0  0  0  0  0
   10.1189   -5.0054   19.6987 C   0  0  0  0  0  0  0  0  0  0  0  0
  1  3  4  0
  1  7  4  0
  2 21  4  0
  2 27  4  0
  3  9  4  0
  3 10  4  0
  4  8  4  0
  4 18  4  0
  4 25  1  0
  5  9  4  0
  5 12  4  0
  6 13  1  0
  6 27  1  0
  7 28  4  0
  8 11  4  0
  9 29  4  0
 10 12  4  0
 11 24  1  0
 11 26  4  0
 12 25  1  0
 13 28  1  0
 14 20  4  0
 14 23  4  0
 15 17  4  0
 15 21  4  0
 16 19  4  0
 16 23  4  0
 17 22  4  0
 18 26  4  0
 19 24  4  0
 20 24  4  0
 22 27  4  0
 28 29  4  0
M  END
$$$$

 Created by Python create_sdf_string function

 29 33  0  0  0  0  0  0  0  0999 V2000
   10.7215   -3.3326   17.6437 C   0  0  0  0  0  0  0  0  0  0  0  0
    9.9489   -3.4675   24.6487 N   0  0  0  0  0  0  0  0  0  0  0  0
   10.0172   -4.4740   17.4101 C   0  0  0  0  0  0  0  0  0  0  0  0
    6.9051   -7.9575   16.4222 C   0  0  0  0  0  0  0  0  0  0  0  0
    8.9969   -6.3552   17.9668 N   0  0  0  0  0  0  0  0  0  0  0  0
   10.6702   -3.9051   22.4070 C   0  0  0  0  0  0  0  0  0  0  0  0
   11.0625   -3.0028   18.8894 C   0  0  0  0  0  0  0  0  0  0  0  0
    5.6180   -7.9194   16.1754 O   0  0  0  0  0  0  0  0  0  0  0  0
    9.7259   -5.3080   18.4485 C   0  0  0  0  0  0  0  0  0  0  0  0
    9.4578   -5.0200   16.3036 N   0  0  0  0  0  0  0  0  0  0  0  0
    5.0287   -8.9365   16.8223 C   0  0  0  0  0  0  0  0  0  0  0  0
    8.7742   -6.1498   16.6764 C   0  0  0  0  0  0  0  0  0  0  0  0
   10.9418   -3.4032   21.2053 O   0  0  0  0  0  0  0  0  0  0  0  0
    1.4797   -8.6258   16.2950 C   0  0  0  0  0  0  0  0  0  0  0  0
    9.2861   -1.2743   25.3585 C   0  0  0  0  0  0  0  0  0  0  0  0
    1.8892  -10.3985   17.7511 N   0  0  0  0  0  0  0  0  0  0  0  0
    9.6210   -0.6952   24.0976 C   0  0  0  0  0  0  0  0  0  0  0  0
    7.0792   -9.0217   17.1429 C   0  0  0  0  0  0  0  0  0  0  0  0
    3.1713  -10.1816   17.6634 C   0  0  0  0  0  0  0  0  0  0  0  0
    2.7878   -8.3822   16.2137 C   0  0  0  0  0  0  0  0  0  0  0  0
    9.4601   -2.6590   25.6528 C   0  0  0  0  0  0  0  0  0  0  0  0
   10.1182   -1.5672   23.1165 C   0  0  0  0  0  0  0  0  0  0  0  0
    1.0552   -9.6360   17.0650 C   0  0  0  0  0  0  0  0  0  0  0  0
    3.6519   -9.1783   16.9039 C   0  0  0  0  0  0  0  0  0  0  0  0
    7.8675   -7.0096   15.9415 C   0  0  0  0  0  0  0  0  0  0  0  0
    5.9733   -9.6553   17.3832 N   0  0  0  0  0  0  0  0  0  0  0  0
   10.2411   -2.9363   23.4301 C   0  0  0  0  0  0  0  0  0  0  0  0
   10.7288   -3.8197   19.9525 C   0  0  0  0  0  0  0  0  0  0  0  0
   10.1189   -5.0054   19.6987 C   0  0  0  0  0  0  0  0  0  0  0  0
  1  3  4  0
  1  7  4  0
  2 21  4  0
  2 27  4  0
  3  9  4  0
  3 10  4  0
  4  8  4  0
  4 18  4  0
  4 25  1  0
  5  9  4  0
  5 12  4  0
  6 13  1  0
  6 27  1  0
  7 28  4  0
  8 11  4  0
  9 29  4  0
 10 12  4  0
 11 24  1  0
 11 26  4  0
 12 25  1  0
 13 28  1  0
 14 20  4  0
 14 23  4  0
 15 17  4  0
 15 21  4  0
 16 19  4  0
 16 23  4  0
 17 22  4  0
 18 26  4  0
 19 24  4  0
 20 24  4  0
 22 27  4  0
 28 29  4  0
M  END
$$$$

 Created by Python create_sdf_string function

 29 33  0  0  0  0  0  0  0  0999 V2000
   10.7215   -3.3326   17.6437 C   0  0  0  0  0  0  0  0  0  0  0  0
    9.9489   -3.4675   24.6487 N   0  0  0  0  0  0  0  0  0  0  0  0
   10.0172   -4.4740   17.4101 C   0  0  0  0  0  0  0  0  0  0  0  0
    6.9051   -7.9575   16.4222 C   0  0  0  0  0  0  0  0  0  0  0  0
    8.9969   -6.3552   17.9668 N   0  0  0  0  0  0  0  0  0  0  0  0
   10.6702   -3.9051   22.4070 C   0  0  0  0  0  0  0  0  0  0  0  0
   11.0625   -3.0028   18.8894 C   0  0  0  0  0  0  0  0  0  0  0  0
    5.6180   -7.9194   16.1754 O   0  0  0  0  0  0  0  0  0  0  0  0
    9.7259   -5.3080   18.4485 C   0  0  0  0  0  0  0  0  0  0  0  0
    9.4578   -5.0200   16.3036 N   0  0  0  0  0  0  0  0  0  0  0  0
    5.0287   -8.9365   16.8223 C   0  0  0  0  0  0  0  0  0  0  0  0
    8.7742   -6.1498   16.6764 C   0  0  0  0  0  0  0  0  0  0  0  0
   10.9418   -3.4032   21.2053 O   0  0  0  0  0  0  0  0  0  0  0  0
    1.4797   -8.6258   16.2950 C   0  0  0  0  0  0  0  0  0  0  0  0
    9.2861   -1.2743   25.3585 C   0  0  0  0  0  0  0  0  0  0  0  0
    1.8892  -10.3985   17.7511 N   0  0  0  0  0  0  0  0  0  0  0  0
    9.6210   -0.6952   24.0976 C   0  0  0  0  0  0  0  0  0  0  0  0
    7.0792   -9.0217   17.1429 C   0  0  0  0  0  0  0  0  0  0  0  0
    3.1713  -10.1816   17.6634 C   0  0  0  0  0  0  0  0  0  0  0  0
    2.7878   -8.3822   16.2137 C   0  0  0  0  0  0  0  0  0  0  0  0
    9.4601   -2.6590   25.6528 C   0  0  0  0  0  0  0  0  0  0  0  0
   10.1182   -1.5672   23.1165 C   0  0  0  0  0  0  0  0  0  0  0  0
    1.0552   -9.6360   17.0650 C   0  0  0  0  0  0  0  0  0  0  0  0
    3.6519   -9.1783   16.9039 C   0  0  0  0  0  0  0  0  0  0  0  0
    7.8675   -7.0096   15.9415 C   0  0  0  0  0  0  0  0  0  0  0  0
    5.9733   -9.6553   17.3832 N   0  0  0  0  0  0  0  0  0  0  0  0
   10.2411   -2.9363   23.4301 C   0  0  0  0  0  0  0  0  0  0  0  0
   10.7288   -3.8197   19.9525 C   0  0  0  0  0  0  0  0  0  0  0  0
   10.1189   -5.0054   19.6987 C   0  0  0  0  0  0  0  0  0  0  0  0
  1  3  4  0
  1  7  4  0
  2 21  4  0
  2 27  4  0
  3  9  4  0
  3 10  4  0
  4  8  4  0
  4 18  4  0
  4 25  1  0
  5  9  4  0
  5 12  4  0
  6 13  1  0
  6 27  1  0
  7 28  4  0
  8 11  4  0
  9 29  4  0
 10 12  4  0
 11 24  1  0
 11 26  4  0
 12 25  1  0
 13 28  1  0
 14 20  4  0
 14 23  4  0
 15 17  4  0
 15 21  4  0
 16 19  4  0
 16 23  4  0
 17 22  4  0
 18 26  4  0
 19 24  4  0
 20 24  4  0
 22 27  4  0
 28 29  4  0
M  END
$$$$

 Created by Python create_sdf_string function

 29 33  0  0  0  0  0  0  0  0999 V2000
   10.7215   -3.3326   17.6437 C   0  0  0  0  0  0  0  0  0  0  0  0
    9.9489   -3.4675   24.6487 N   0  0  0  0  0  0  0  0  0  0  0  0
   10.0172   -4.4740   17.4101 C   0  0  0  0  0  0  0  0  0  0  0  0
    6.9051   -7.9575   16.4222 C   0  0  0  0  0  0  0  0  0  0  0  0
    8.9969   -6.3552   17.9668 N   0  0  0  0  0  0  0  0  0  0  0  0
   10.6702   -3.9051   22.4070 C   0  0  0  0  0  0  0  0  0  0  0  0
   11.0625   -3.0028   18.8894 C   0  0  0  0  0  0  0  0  0  0  0  0
    5.6180   -7.9194   16.1754 O   0  0  0  0  0  0  0  0  0  0  0  0
    9.7259   -5.3080   18.4485 C   0  0  0  0  0  0  0  0  0  0  0  0
    9.4578   -5.0200   16.3036 N   0  0  0  0  0  0  0  0  0  0  0  0
    5.0287   -8.9365   16.8223 C   0  0  0  0  0  0  0  0  0  0  0  0
    8.7742   -6.1498   16.6764 C   0  0  0  0  0  0  0  0  0  0  0  0
   10.9418   -3.4032   21.2053 O   0  0  0  0  0  0  0  0  0  0  0  0
    1.4797   -8.6258   16.2950 C   0  0  0  0  0  0  0  0  0  0  0  0
    9.2861   -1.2743   25.3585 C   0  0  0  0  0  0  0  0  0  0  0  0
    1.8892  -10.3985   17.7511 N   0  0  0  0  0  0  0  0  0  0  0  0
    9.6210   -0.6952   24.0976 C   0  0  0  0  0  0  0  0  0  0  0  0
    7.0792   -9.0217   17.1429 C   0  0  0  0  0  0  0  0  0  0  0  0
    3.1713  -10.1816   17.6634 C   0  0  0  0  0  0  0  0  0  0  0  0
    2.7878   -8.3822   16.2137 C   0  0  0  0  0  0  0  0  0  0  0  0
    9.4601   -2.6590   25.6528 C   0  0  0  0  0  0  0  0  0  0  0  0
   10.1182   -1.5672   23.1165 C   0  0  0  0  0  0  0  0  0  0  0  0
    1.0552   -9.6360   17.0650 C   0  0  0  0  0  0  0  0  0  0  0  0
    3.6519   -9.1783   16.9039 C   0  0  0  0  0  0  0  0  0  0  0  0
    7.8675   -7.0096   15.9415 C   0  0  0  0  0  0  0  0  0  0  0  0
    5.9733   -9.6553   17.3832 N   0  0  0  0  0  0  0  0  0  0  0  0
   10.2411   -2.9363   23.4301 C   0  0  0  0  0  0  0  0  0  0  0  0
   10.7288   -3.8197   19.9525 C   0  0  0  0  0  0  0  0  0  0  0  0
   10.1189   -5.0054   19.6987 C   0  0  0  0  0  0  0  0  0  0  0  0
  1  3  4  0
  1  7  4  0
  2 21  4  0
  2 27  4  0
  3  9  4  0
  3 10  4  0
  4  8  4  0
  4 18  4  0
  4 25  1  0
  5  9  4  0
  5 12  4  0
  6 13  1  0
  6 27  1  0
  7 28  4  0
  8 11  4  0
  9 29  4  0
 10 12  4  0
 11 24  1  0
 11 26  4  0
 12 25  1  0
 13 28  1  0
 14 20  4  0
 14 23  4  0
 15 17  4  0
 15 21  4  0
 16 19  4  0
 16 23  4  0
 17 22  4  0
 18 26  4  0
 19 24  4  0
 20 24  4  0
 22 27  4  0
 28 29  4  0
M  END
$$$$

 Created by Python create_sdf_string function

 29 33  0  0  0  0  0  0  0  0999 V2000
   10.7215   -3.3326   17.6437 C   0  0  0  0  0  0  0  0  0  0  0  0
    9.9489   -3.4675   24.6487 N   0  0  0  0  0  0  0  0  0  0  0  0
   10.0172   -4.4740   17.4101 C   0  0  0  0  0  0  0  0  0  0  0  0
    6.9051   -7.9575   16.4222 C   0  0  0  0  0  0  0  0  0  0  0  0
    8.9969   -6.3552   17.9668 N   0  0  0  0  0  0  0  0  0  0  0  0
   10.6702   -3.9051   22.4070 C   0  0  0  0  0  0  0  0  0  0  0  0
   11.0625   -3.0028   18.8894 C   0  0  0  0  0  0  0  0  0  0  0  0
    5.6180   -7.9194   16.1754 O   0  0  0  0  0  0  0  0  0  0  0  0
    9.7259   -5.3080   18.4485 C   0  0  0  0  0  0  0  0  0  0  0  0
    9.4578   -5.0200   16.3036 N   0  0  0  0  0  0  0  0  0  0  0  0
    5.0287   -8.9365   16.8223 C   0  0  0  0  0  0  0  0  0  0  0  0
    8.7742   -6.1498   16.6764 C   0  0  0  0  0  0  0  0  0  0  0  0
   10.9418   -3.4032   21.2053 O   0  0  0  0  0  0  0  0  0  0  0  0
    1.4797   -8.6258   16.2950 C   0  0  0  0  0  0  0  0  0  0  0  0
    9.2861   -1.2743   25.3585 C   0  0  0  0  0  0  0  0  0  0  0  0
    1.8892  -10.3985   17.7511 N   0  0  0  0  0  0  0  0  0  0  0  0
    9.6210   -0.6952   24.0976 C   0  0  0  0  0  0  0  0  0  0  0  0
    7.0792   -9.0217   17.1429 C   0  0  0  0  0  0  0  0  0  0  0  0
    3.1713  -10.1816   17.6634 C   0  0  0  0  0  0  0  0  0  0  0  0
    2.7878   -8.3822   16.2137 C   0  0  0  0  0  0  0  0  0  0  0  0
    9.4601   -2.6590   25.6528 C   0  0  0  0  0  0  0  0  0  0  0  0
   10.1182   -1.5672   23.1165 C   0  0  0  0  0  0  0  0  0  0  0  0
    1.0552   -9.6360   17.0650 C   0  0  0  0  0  0  0  0  0  0  0  0
    3.6519   -9.1783   16.9039 C   0  0  0  0  0  0  0  0  0  0  0  0
    7.8675   -7.0096   15.9415 C   0  0  0  0  0  0  0  0  0  0  0  0
    5.9733   -9.6553   17.3832 N   0  0  0  0  0  0  0  0  0  0  0  0
   10.2411   -2.9363   23.4301 C   0  0  0  0  0  0  0  0  0  0  0  0
   10.7288   -3.8197   19.9525 C   0  0  0  0  0  0  0  0  0  0  0  0
   10.1189   -5.0054   19.6987 C   0  0  0  0  0  0  0  0  0  0  0  0
  1  3  4  0
  1  7  4  0
  2 21  4  0
  2 27  4  0
  3  9  4  0
  3 10  4  0
  4  8  4  0
  4 18  4  0
  4 25  1  0
  5  9  4  0
  5 12  4  0
  6 13  1  0
  6 27  1  0
  7 28  4  0
  8 11  4  0
  9 29  4  0
 10 12  4  0
 11 24  1  0
 11 26  4  0
 12 25  1  0
 13 28  1  0
 14 20  4  0
 14 23  4  0
 15 17  4  0
 15 21  4  0
 16 19  4  0
 16 23  4  0
 17 22  4  0
 18 26  4  0
 19 24  4  0
 20 24  4  0
 22 27  4  0
 28 29  4  0
M  END
$$$$

 Created by Python create_sdf_string function

 29 33  0  0  0  0  0  0  0  0999 V2000
   10.7215   -3.3326   17.6437 C   0  0  0  0  0  0  0  0  0  0  0  0
    9.9489   -3.4675   24.6487 N   0  0  0  0  0  0  0  0  0  0  0  0
   10.0172   -4.4740   17.4101 C   0  0  0  0  0  0  0  0  0  0  0  0
    6.9051   -7.9575   16.4222 C   0  0  0  0  0  0  0  0  0  0  0  0
    8.9969   -6.3552   17.9668 N   0  0  0  0  0  0  0  0  0  0  0  0
   10.6702   -3.9051   22.4070 C   0  0  0  0  0  0  0  0  0  0  0  0
   11.0625   -3.0028   18.8894 C   0  0  0  0  0  0  0  0  0  0  0  0
    5.6180   -7.9194   16.1754 O   0  0  0  0  0  0  0  0  0  0  0  0
    9.7259   -5.3080   18.4485 C   0  0  0  0  0  0  0  0  0  0  0  0
    9.4578   -5.0200   16.3036 N   0  0  0  0  0  0  0  0  0  0  0  0
    5.0287   -8.9365   16.8223 C   0  0  0  0  0  0  0  0  0  0  0  0
    8.7742   -6.1498   16.6764 C   0  0  0  0  0  0  0  0  0  0  0  0
   10.9418   -3.4032   21.2053 O   0  0  0  0  0  0  0  0  0  0  0  0
    1.4797   -8.6258   16.2950 C   0  0  0  0  0  0  0  0  0  0  0  0
    9.2861   -1.2743   25.3585 C   0  0  0  0  0  0  0  0  0  0  0  0
    1.8892  -10.3985   17.7511 N   0  0  0  0  0  0  0  0  0  0  0  0
    9.6210   -0.6952   24.0976 C   0  0  0  0  0  0  0  0  0  0  0  0
    7.0792   -9.0217   17.1429 C   0  0  0  0  0  0  0  0  0  0  0  0
    3.1713  -10.1816   17.6634 C   0  0  0  0  0  0  0  0  0  0  0  0
    2.7878   -8.3822   16.2137 C   0  0  0  0  0  0  0  0  0  0  0  0
    9.4601   -2.6590   25.6528 C   0  0  0  0  0  0  0  0  0  0  0  0
   10.1182   -1.5672   23.1165 C   0  0  0  0  0  0  0  0  0  0  0  0
    1.0552   -9.6360   17.0650 C   0  0  0  0  0  0  0  0  0  0  0  0
    3.6519   -9.1783   16.9039 C   0  0  0  0  0  0  0  0  0  0  0  0
    7.8675   -7.0096   15.9415 C   0  0  0  0  0  0  0  0  0  0  0  0
    5.9733   -9.6553   17.3832 N   0  0  0  0  0  0  0  0  0  0  0  0
   10.2411   -2.9363   23.4301 C   0  0  0  0  0  0  0  0  0  0  0  0
   10.7288   -3.8197   19.9525 C   0  0  0  0  0  0  0  0  0  0  0  0
   10.1189   -5.0054   19.6987 C   0  0  0  0  0  0  0  0  0  0  0  0
  1  3  4  0
  1  7  4  0
  2 21  4  0
  2 27  4  0
  3  9  4  0
  3 10  4  0
  4  8  4  0
  4 18  4  0
  4 25  1  0
  5  9  4  0
  5 12  4  0
  6 13  1  0
  6 27  1  0
  7 28  4  0
  8 11  4  0
  9 29  4  0
 10 12  4  0
 11 24  1  0
 11 26  4  0
 12 25  1  0
 13 28  1  0
 14 20  4  0
 14 23  4  0
 15 17  4  0
 15 21  4  0
 16 19  4  0
 16 23  4  0
 17 22  4  0
 18 26  4  0
 19 24  4  0
 20 24  4  0
 22 27  4  0
 28 29  4  0
M  END
$$$$

 Created by Python create_sdf_string function

 29 33  0  0  0  0  0  0  0  0999 V2000
   10.7215   -3.3326   17.6437 C   0  0  0  0  0  0  0  0  0  0  0  0
    9.9489   -3.4675   24.6487 N   0  0  0  0  0  0  0  0  0  0  0  0
   10.0172   -4.4740   17.4101 C   0  0  0  0  0  0  0  0  0  0  0  0
    6.9051   -7.9575   16.4222 C   0  0  0  0  0  0  0  0  0  0  0  0
    8.9969   -6.3552   17.9668 N   0  0  0  0  0  0  0  0  0  0  0  0
   10.6702   -3.9051   22.4070 C   0  0  0  0  0  0  0  0  0  0  0  0
   11.0625   -3.0028   18.8894 C   0  0  0  0  0  0  0  0  0  0  0  0
    5.6180   -7.9194   16.1754 O   0  0  0  0  0  0  0  0  0  0  0  0
    9.7259   -5.3080   18.4485 C   0  0  0  0  0  0  0  0  0  0  0  0
    9.4578   -5.0200   16.3036 N   0  0  0  0  0  0  0  0  0  0  0  0
    5.0287   -8.9365   16.8223 C   0  0  0  0  0  0  0  0  0  0  0  0
    8.7742   -6.1498   16.6764 C   0  0  0  0  0  0  0  0  0  0  0  0
   10.9418   -3.4032   21.2053 O   0  0  0  0  0  0  0  0  0  0  0  0
    1.4797   -8.6258   16.2950 C   0  0  0  0  0  0  0  0  0  0  0  0
    9.2861   -1.2743   25.3585 C   0  0  0  0  0  0  0  0  0  0  0  0
    1.8892  -10.3985   17.7511 N   0  0  0  0  0  0  0  0  0  0  0  0
    9.6210   -0.6952   24.0976 C   0  0  0  0  0  0  0  0  0  0  0  0
    7.0792   -9.0217   17.1429 C   0  0  0  0  0  0  0  0  0  0  0  0
    3.1713  -10.1816   17.6634 C   0  0  0  0  0  0  0  0  0  0  0  0
    2.7878   -8.3822   16.2137 C   0  0  0  0  0  0  0  0  0  0  0  0
    9.4601   -2.6590   25.6528 C   0  0  0  0  0  0  0  0  0  0  0  0
   10.1182   -1.5672   23.1165 C   0  0  0  0  0  0  0  0  0  0  0  0
    1.0552   -9.6360   17.0650 C   0  0  0  0  0  0  0  0  0  0  0  0
    3.6519   -9.1783   16.9039 C   0  0  0  0  0  0  0  0  0  0  0  0
    7.8675   -7.0096   15.9415 C   0  0  0  0  0  0  0  0  0  0  0  0
    5.9733   -9.6553   17.3832 N   0  0  0  0  0  0  0  0  0  0  0  0
   10.2411   -2.9363   23.4301 C   0  0  0  0  0  0  0  0  0  0  0  0
   10.7288   -3.8197   19.9525 C   0  0  0  0  0  0  0  0  0  0  0  0
   10.1189   -5.0054   19.6987 C   0  0  0  0  0  0  0  0  0  0  0  0
  1  3  4  0
  1  7  4  0
  2 21  4  0
  2 27  4  0
  3  9  4  0
  3 10  4  0
  4  8  4  0
  4 18  4  0
  4 25  1  0
  5  9  4  0
  5 12  4  0
  6 13  1  0
  6 27  1  0
  7 28  4  0
  8 11  4  0
  9 29  4  0
 10 12  4  0
 11 24  1  0
 11 26  4  0
 12 25  1  0
 13 28  1  0
 14 20  4  0
 14 23  4  0
 15 17  4  0
 15 21  4  0
 16 19  4  0
 16 23  4  0
 17 22  4  0
 18 26  4  0
 19 24  4  0
 20 24  4  0
 22 27  4  0
 28 29  4  0
M  END
$$$$

 Created by Python create_sdf_string function

 29 33  0  0  0  0  0  0  0  0999 V2000
   10.7215   -3.3326   17.6437 C   0  0  0  0  0  0  0  0  0  0  0  0
    9.9489   -3.4675   24.6487 N   0  0  0  0  0  0  0  0  0  0  0  0
   10.0172   -4.4740   17.4101 C   0  0  0  0  0  0  0  0  0  0  0  0
    6.9051   -7.9575   16.4222 C   0  0  0  0  0  0  0  0  0  0  0  0
    8.9969   -6.3552   17.9668 N   0  0  0  0  0  0  0  0  0  0  0  0
   10.6702   -3.9051   22.4070 C   0  0  0  0  0  0  0  0  0  0  0  0
   11.0625   -3.0028   18.8894 C   0  0  0  0  0  0  0  0  0  0  0  0
    5.6180   -7.9194   16.1754 O   0  0  0  0  0  0  0  0  0  0  0  0
    9.7259   -5.3080   18.4485 C   0  0  0  0  0  0  0  0  0  0  0  0
    9.4578   -5.0200   16.3036 N   0  0  0  0  0  0  0  0  0  0  0  0
    5.0287   -8.9365   16.8223 C   0  0  0  0  0  0  0  0  0  0  0  0
    8.7742   -6.1498   16.6764 C   0  0  0  0  0  0  0  0  0  0  0  0
   10.9418   -3.4032   21.2053 O   0  0  0  0  0  0  0  0  0  0  0  0
    1.4797   -8.6258   16.2950 C   0  0  0  0  0  0  0  0  0  0  0  0
    9.2861   -1.2743   25.3585 C   0  0  0  0  0  0  0  0  0  0  0  0
    1.8892  -10.3985   17.7511 N   0  0  0  0  0  0  0  0  0  0  0  0
    9.6210   -0.6952   24.0976 C   0  0  0  0  0  0  0  0  0  0  0  0
    7.0792   -9.0217   17.1429 C   0  0  0  0  0  0  0  0  0  0  0  0
    3.1713  -10.1816   17.6634 C   0  0  0  0  0  0  0  0  0  0  0  0
    2.7878   -8.3822   16.2137 C   0  0  0  0  0  0  0  0  0  0  0  0
    9.4601   -2.6590   25.6528 C   0  0  0  0  0  0  0  0  0  0  0  0
   10.1182   -1.5672   23.1165 C   0  0  0  0  0  0  0  0  0  0  0  0
    1.0552   -9.6360   17.0650 C   0  0  0  0  0  0  0  0  0  0  0  0
    3.6519   -9.1783   16.9039 C   0  0  0  0  0  0  0  0  0  0  0  0
    7.8675   -7.0096   15.9415 C   0  0  0  0  0  0  0  0  0  0  0  0
    5.9733   -9.6553   17.3832 N   0  0  0  0  0  0  0  0  0  0  0  0
   10.2411   -2.9363   23.4301 C   0  0  0  0  0  0  0  0  0  0  0  0
   10.7288   -3.8197   19.9525 C   0  0  0  0  0  0  0  0  0  0  0  0
   10.1189   -5.0054   19.6987 C   0  0  0  0  0  0  0  0  0  0  0  0
  1  3  4  0
  1  7  4  0
  2 21  4  0
  2 27  4  0
  3  9  4  0
  3 10  4  0
  4  8  4  0
  4 18  4  0
  4 25  1  0
  5  9  4  0
  5 12  4  0
  6 13  1  0
  6 27  1  0
  7 28  4  0
  8 11  4  0
  9 29  4  0
 10 12  4  0
 11 24  1  0
 11 26  4  0
 12 25  1  0
 13 28  1  0
 14 20  4  0
 14 23  4  0
 15 17  4  0
 15 21  4  0
 16 19  4  0
 16 23  4  0
 17 22  4  0
 18 26  4  0
 19 24  4  0
 20 24  4  0
 22 27  4  0
 28 29  4  0
M  END
$$$$

 Created by Python create_sdf_string function

 29 33  0  0  0  0  0  0  0  0999 V2000
   10.7215   -3.3326   17.6437 C   0  0  0  0  0  0  0  0  0  0  0  0
    9.9489   -3.4675   24.6487 N   0  0  0  0  0  0  0  0  0  0  0  0
   10.0172   -4.4740   17.4101 C   0  0  0  0  0  0  0  0  0  0  0  0
    6.9051   -7.9575   16.4222 C   0  0  0  0  0  0  0  0  0  0  0  0
    8.9969   -6.3552   17.9668 N   0  0  0  0  0  0  0  0  0  0  0  0
   10.6702   -3.9051   22.4070 C   0  0  0  0  0  0  0  0  0  0  0  0
   11.0625   -3.0028   18.8894 C   0  0  0  0  0  0  0  0  0  0  0  0
    5.6180   -7.9194   16.1754 O   0  0  0  0  0  0  0  0  0  0  0  0
    9.7259   -5.3080   18.4485 C   0  0  0  0  0  0  0  0  0  0  0  0
    9.4578   -5.0200   16.3036 N   0  0  0  0  0  0  0  0  0  0  0  0
    5.0287   -8.9365   16.8223 C   0  0  0  0  0  0  0  0  0  0  0  0
    8.7742   -6.1498   16.6764 C   0  0  0  0  0  0  0  0  0  0  0  0
   10.9418   -3.4032   21.2053 O   0  0  0  0  0  0  0  0  0  0  0  0
    1.4797   -8.6258   16.2950 C   0  0  0  0  0  0  0  0  0  0  0  0
    9.2861   -1.2743   25.3585 C   0  0  0  0  0  0  0  0  0  0  0  0
    1.8892  -10.3985   17.7511 N   0  0  0  0  0  0  0  0  0  0  0  0
    9.6210   -0.6952   24.0976 C   0  0  0  0  0  0  0  0  0  0  0  0
    7.0792   -9.0217   17.1429 C   0  0  0  0  0  0  0  0  0  0  0  0
    3.1713  -10.1816   17.6634 C   0  0  0  0  0  0  0  0  0  0  0  0
    2.7878   -8.3822   16.2137 C   0  0  0  0  0  0  0  0  0  0  0  0
    9.4601   -2.6590   25.6528 C   0  0  0  0  0  0  0  0  0  0  0  0
   10.1182   -1.5672   23.1165 C   0  0  0  0  0  0  0  0  0  0  0  0
    1.0552   -9.6360   17.0650 C   0  0  0  0  0  0  0  0  0  0  0  0
    3.6519   -9.1783   16.9039 C   0  0  0  0  0  0  0  0  0  0  0  0
    7.8675   -7.0096   15.9415 C   0  0  0  0  0  0  0  0  0  0  0  0
    5.9733   -9.6553   17.3832 N   0  0  0  0  0  0  0  0  0  0  0  0
   10.2411   -2.9363   23.4301 C   0  0  0  0  0  0  0  0  0  0  0  0
   10.7288   -3.8197   19.9525 C   0  0  0  0  0  0  0  0  0  0  0  0
   10.1189   -5.0054   19.6987 C   0  0  0  0  0  0  0  0  0  0  0  0
  1  3  4  0
  1  7  4  0
  2 21  4  0
  2 27  4  0
  3  9  4  0
  3 10  4  0
  4  8  4  0
  4 18  4  0
  4 25  1  0
  5  9  4  0
  5 12  4  0
  6 13  1  0
  6 27  1  0
  7 28  4  0
  8 11  4  0
  9 29  4  0
 10 12  4  0
 11 24  1  0
 11 26  4  0
 12 25  1  0
 13 28  1  0
 14 20  4  0
 14 23  4  0
 15 17  4  0
 15 21  4  0
 16 19  4  0
 16 23  4  0
 17 22  4  0
 18 26  4  0
 19 24  4  0
 20 24  4  0
 22 27  4  0
 28 29  4  0
M  END
$$$$

 Created by Python create_sdf_string function

 29 33  0  0  0  0  0  0  0  0999 V2000
   10.7215   -3.3326   17.6437 C   0  0  0  0  0  0  0  0  0  0  0  0
    9.9489   -3.4675   24.6487 N   0  0  0  0  0  0  0  0  0  0  0  0
   10.0172   -4.4740   17.4101 C   0  0  0  0  0  0  0  0  0  0  0  0
    6.9051   -7.9575   16.4222 C   0  0  0  0  0  0  0  0  0  0  0  0
    8.9969   -6.3552   17.9668 N   0  0  0  0  0  0  0  0  0  0  0  0
   10.6702   -3.9051   22.4070 C   0  0  0  0  0  0  0  0  0  0  0  0
   11.0625   -3.0028   18.8894 C   0  0  0  0  0  0  0  0  0  0  0  0
    5.6180   -7.9194   16.1754 O   0  0  0  0  0  0  0  0  0  0  0  0
    9.7259   -5.3080   18.4485 C   0  0  0  0  0  0  0  0  0  0  0  0
    9.4578   -5.0200   16.3036 N   0  0  0  0  0  0  0  0  0  0  0  0
    5.0287   -8.9365   16.8223 C   0  0  0  0  0  0  0  0  0  0  0  0
    8.7742   -6.1498   16.6764 C   0  0  0  0  0  0  0  0  0  0  0  0
   10.9418   -3.4032   21.2053 O   0  0  0  0  0  0  0  0  0  0  0  0
    1.4797   -8.6258   16.2950 C   0  0  0  0  0  0  0  0  0  0  0  0
    9.2861   -1.2743   25.3585 C   0  0  0  0  0  0  0  0  0  0  0  0
    1.8892  -10.3985   17.7511 N   0  0  0  0  0  0  0  0  0  0  0  0
    9.6210   -0.6952   24.0976 C   0  0  0  0  0  0  0  0  0  0  0  0
    7.0792   -9.0217   17.1429 C   0  0  0  0  0  0  0  0  0  0  0  0
    3.1713  -10.1816   17.6634 C   0  0  0  0  0  0  0  0  0  0  0  0
    2.7878   -8.3822   16.2137 C   0  0  0  0  0  0  0  0  0  0  0  0
    9.4601   -2.6590   25.6528 C   0  0  0  0  0  0  0  0  0  0  0  0
   10.1182   -1.5672   23.1165 C   0  0  0  0  0  0  0  0  0  0  0  0
    1.0552   -9.6360   17.0650 C   0  0  0  0  0  0  0  0  0  0  0  0
    3.6519   -9.1783   16.9039 C   0  0  0  0  0  0  0  0  0  0  0  0
    7.8675   -7.0096   15.9415 C   0  0  0  0  0  0  0  0  0  0  0  0
    5.9733   -9.6553   17.3832 N   0  0  0  0  0  0  0  0  0  0  0  0
   10.2411   -2.9363   23.4301 C   0  0  0  0  0  0  0  0  0  0  0  0
   10.7288   -3.8197   19.9525 C   0  0  0  0  0  0  0  0  0  0  0  0
   10.1189   -5.0054   19.6987 C   0  0  0  0  0  0  0  0  0  0  0  0
  1  3  4  0
  1  7  4  0
  2 21  4  0
  2 27  4  0
  3  9  4  0
  3 10  4  0
  4  8  4  0
  4 18  4  0
  4 25  1  0
  5  9  4  0
  5 12  4  0
  6 13  1  0
  6 27  1  0
  7 28  4  0
  8 11  4  0
  9 29  4  0
 10 12  4  0
 11 24  1  0
 11 26  4  0
 12 25  1  0
 13 28  1  0
 14 20  4  0
 14 23  4  0
 15 17  4  0
 15 21  4  0
 16 19  4  0
 16 23  4  0
 17 22  4  0
 18 26  4  0
 19 24  4  0
 20 24  4  0
 22 27  4  0
 28 29  4  0
M  END
$$$$

 Created by Python create_sdf_string function

 29 33  0  0  0  0  0  0  0  0999 V2000
   10.7215   -3.3326   17.6437 C   0  0  0  0  0  0  0  0  0  0  0  0
    9.9489   -3.4675   24.6487 N   0  0  0  0  0  0  0  0  0  0  0  0
   10.0172   -4.4740   17.4101 C   0  0  0  0  0  0  0  0  0  0  0  0
    6.9051   -7.9575   16.4222 C   0  0  0  0  0  0  0  0  0  0  0  0
    8.9969   -6.3552   17.9668 N   0  0  0  0  0  0  0  0  0  0  0  0
   10.6702   -3.9051   22.4070 C   0  0  0  0  0  0  0  0  0  0  0  0
   11.0625   -3.0028   18.8894 C   0  0  0  0  0  0  0  0  0  0  0  0
    5.6180   -7.9194   16.1754 O   0  0  0  0  0  0  0  0  0  0  0  0
    9.7259   -5.3080   18.4485 C   0  0  0  0  0  0  0  0  0  0  0  0
    9.4578   -5.0200   16.3036 N   0  0  0  0  0  0  0  0  0  0  0  0
    5.0287   -8.9365   16.8223 C   0  0  0  0  0  0  0  0  0  0  0  0
    8.7742   -6.1498   16.6764 C   0  0  0  0  0  0  0  0  0  0  0  0
   10.9418   -3.4032   21.2053 O   0  0  0  0  0  0  0  0  0  0  0  0
    1.4797   -8.6258   16.2950 C   0  0  0  0  0  0  0  0  0  0  0  0
    9.2861   -1.2743   25.3585 C   0  0  0  0  0  0  0  0  0  0  0  0
    1.8892  -10.3985   17.7511 N   0  0  0  0  0  0  0  0  0  0  0  0
    9.6210   -0.6952   24.0976 C   0  0  0  0  0  0  0  0  0  0  0  0
    7.0792   -9.0217   17.1429 C   0  0  0  0  0  0  0  0  0  0  0  0
    3.1713  -10.1816   17.6634 C   0  0  0  0  0  0  0  0  0  0  0  0
    2.7878   -8.3822   16.2137 C   0  0  0  0  0  0  0  0  0  0  0  0
    9.4601   -2.6590   25.6528 C   0  0  0  0  0  0  0  0  0  0  0  0
   10.1182   -1.5672   23.1165 C   0  0  0  0  0  0  0  0  0  0  0  0
    1.0552   -9.6360   17.0650 C   0  0  0  0  0  0  0  0  0  0  0  0
    3.6519   -9.1783   16.9039 C   0  0  0  0  0  0  0  0  0  0  0  0
    7.8675   -7.0096   15.9415 C   0  0  0  0  0  0  0  0  0  0  0  0
    5.9733   -9.6553   17.3832 N   0  0  0  0  0  0  0  0  0  0  0  0
   10.2411   -2.9363   23.4301 C   0  0  0  0  0  0  0  0  0  0  0  0
   10.7288   -3.8197   19.9525 C   0  0  0  0  0  0  0  0  0  0  0  0
   10.1189   -5.0054   19.6987 C   0  0  0  0  0  0  0  0  0  0  0  0
  1  3  4  0
  1  7  4  0
  2 21  4  0
  2 27  4  0
  3  9  4  0
  3 10  4  0
  4  8  4  0
  4 18  4  0
  4 25  1  0
  5  9  4  0
  5 12  4  0
  6 13  1  0
  6 27  1  0
  7 28  4  0
  8 11  4  0
  9 29  4  0
 10 12  4  0
 11 24  1  0
 11 26  4  0
 12 25  1  0
 13 28  1  0
 14 20  4  0
 14 23  4  0
 15 17  4  0
 15 21  4  0
 16 19  4  0
 16 23  4  0
 17 22  4  0
 18 26  4  0
 19 24  4  0
 20 24  4  0
 22 27  4  0
 28 29  4  0
M  END
$$$$

 Created by Python create_sdf_string function

 29 33  0  0  0  0  0  0  0  0999 V2000
   10.7215   -3.3326   17.6437 C   0  0  0  0  0  0  0  0  0  0  0  0
    9.9489   -3.4675   24.6487 N   0  0  0  0  0  0  0  0  0  0  0  0
   10.0172   -4.4740   17.4101 C   0  0  0  0  0  0  0  0  0  0  0  0
    6.9051   -7.9575   16.4222 C   0  0  0  0  0  0  0  0  0  0  0  0
    8.9969   -6.3552   17.9668 N   0  0  0  0  0  0  0  0  0  0  0  0
   10.6702   -3.9051   22.4070 C   0  0  0  0  0  0  0  0  0  0  0  0
   11.0625   -3.0028   18.8894 C   0  0  0  0  0  0  0  0  0  0  0  0
    5.6180   -7.9194   16.1754 O   0  0  0  0  0  0  0  0  0  0  0  0
    9.7259   -5.3080   18.4485 C   0  0  0  0  0  0  0  0  0  0  0  0
    9.4578   -5.0200   16.3036 N   0  0  0  0  0  0  0  0  0  0  0  0
    5.0287   -8.9365   16.8223 C   0  0  0  0  0  0  0  0  0  0  0  0
    8.7742   -6.1498   16.6764 C   0  0  0  0  0  0  0  0  0  0  0  0
   10.9418   -3.4032   21.2053 O   0  0  0  0  0  0  0  0  0  0  0  0
    1.4797   -8.6258   16.2950 C   0  0  0  0  0  0  0  0  0  0  0  0
    9.2861   -1.2743   25.3585 C   0  0  0  0  0  0  0  0  0  0  0  0
    1.8892  -10.3985   17.7511 N   0  0  0  0  0  0  0  0  0  0  0  0
    9.6210   -0.6952   24.0976 C   0  0  0  0  0  0  0  0  0  0  0  0
    7.0792   -9.0217   17.1429 C   0  0  0  0  0  0  0  0  0  0  0  0
    3.1713  -10.1816   17.6634 C   0  0  0  0  0  0  0  0  0  0  0  0
    2.7878   -8.3822   16.2137 C   0  0  0  0  0  0  0  0  0  0  0  0
    9.4601   -2.6590   25.6528 C   0  0  0  0  0  0  0  0  0  0  0  0
   10.1182   -1.5672   23.1165 C   0  0  0  0  0  0  0  0  0  0  0  0
    1.0552   -9.6360   17.0650 C   0  0  0  0  0  0  0  0  0  0  0  0
    3.6519   -9.1783   16.9039 C   0  0  0  0  0  0  0  0  0  0  0  0
    7.8675   -7.0096   15.9415 C   0  0  0  0  0  0  0  0  0  0  0  0
    5.9733   -9.6553   17.3832 N   0  0  0  0  0  0  0  0  0  0  0  0
   10.2411   -2.9363   23.4301 C   0  0  0  0  0  0  0  0  0  0  0  0
   10.7288   -3.8197   19.9525 C   0  0  0  0  0  0  0  0  0  0  0  0
   10.1189   -5.0054   19.6987 C   0  0  0  0  0  0  0  0  0  0  0  0
  1  3  4  0
  1  7  4  0
  2 21  4  0
  2 27  4  0
  3  9  4  0
  3 10  4  0
  4  8  4  0
  4 18  4  0
  4 25  1  0
  5  9  4  0
  5 12  4  0
  6 13  1  0
  6 27  1  0
  7 28  4  0
  8 11  4  0
  9 29  4  0
 10 12  4  0
 11 24  1  0
 11 26  4  0
 12 25  1  0
 13 28  1  0
 14 20  4  0
 14 23  4  0
 15 17  4  0
 15 21  4  0
 16 19  4  0
 16 23  4  0
 17 22  4  0
 18 26  4  0
 19 24  4  0
 20 24  4  0
 22 27  4  0
 28 29  4  0
M  END
$$$$

 Created by Python create_sdf_string function

 29 33  0  0  0  0  0  0  0  0999 V2000
   10.7215   -3.3326   17.6437 C   0  0  0  0  0  0  0  0  0  0  0  0
    9.9489   -3.4675   24.6487 N   0  0  0  0  0  0  0  0  0  0  0  0
   10.0172   -4.4740   17.4101 C   0  0  0  0  0  0  0  0  0  0  0  0
    6.9051   -7.9575   16.4222 C   0  0  0  0  0  0  0  0  0  0  0  0
    8.9969   -6.3552   17.9668 N   0  0  0  0  0  0  0  0  0  0  0  0
   10.6702   -3.9051   22.4070 C   0  0  0  0  0  0  0  0  0  0  0  0
   11.0625   -3.0028   18.8894 C   0  0  0  0  0  0  0  0  0  0  0  0
    5.6180   -7.9194   16.1754 O   0  0  0  0  0  0  0  0  0  0  0  0
    9.7259   -5.3080   18.4485 C   0  0  0  0  0  0  0  0  0  0  0  0
    9.4578   -5.0200   16.3036 N   0  0  0  0  0  0  0  0  0  0  0  0
    5.0287   -8.9365   16.8223 C   0  0  0  0  0  0  0  0  0  0  0  0
    8.7742   -6.1498   16.6764 C   0  0  0  0  0  0  0  0  0  0  0  0
   10.9418   -3.4032   21.2053 O   0  0  0  0  0  0  0  0  0  0  0  0
    1.4797   -8.6258   16.2950 C   0  0  0  0  0  0  0  0  0  0  0  0
    9.2861   -1.2743   25.3585 C   0  0  0  0  0  0  0  0  0  0  0  0
    1.8892  -10.3985   17.7511 N   0  0  0  0  0  0  0  0  0  0  0  0
    9.6210   -0.6952   24.0976 C   0  0  0  0  0  0  0  0  0  0  0  0
    7.0792   -9.0217   17.1429 C   0  0  0  0  0  0  0  0  0  0  0  0
    3.1713  -10.1816   17.6634 C   0  0  0  0  0  0  0  0  0  0  0  0
    2.7878   -8.3822   16.2137 C   0  0  0  0  0  0  0  0  0  0  0  0
    9.4601   -2.6590   25.6528 C   0  0  0  0  0  0  0  0  0  0  0  0
   10.1182   -1.5672   23.1165 C   0  0  0  0  0  0  0  0  0  0  0  0
    1.0552   -9.6360   17.0650 C   0  0  0  0  0  0  0  0  0  0  0  0
    3.6519   -9.1783   16.9039 C   0  0  0  0  0  0  0  0  0  0  0  0
    7.8675   -7.0096   15.9415 C   0  0  0  0  0  0  0  0  0  0  0  0
    5.9733   -9.6553   17.3832 N   0  0  0  0  0  0  0  0  0  0  0  0
   10.2411   -2.9363   23.4301 C   0  0  0  0  0  0  0  0  0  0  0  0
   10.7288   -3.8197   19.9525 C   0  0  0  0  0  0  0  0  0  0  0  0
   10.1189   -5.0054   19.6987 C   0  0  0  0  0  0  0  0  0  0  0  0
  1  3  4  0
  1  7  4  0
  2 21  4  0
  2 27  4  0
  3  9  4  0
  3 10  4  0
  4  8  4  0
  4 18  4  0
  4 25  1  0
  5  9  4  0
  5 12  4  0
  6 13  1  0
  6 27  1  0
  7 28  4  0
  8 11  4  0
  9 29  4  0
 10 12  4  0
 11 24  1  0
 11 26  4  0
 12 25  1  0
 13 28  1  0
 14 20  4  0
 14 23  4  0
 15 17  4  0
 15 21  4  0
 16 19  4  0
 16 23  4  0
 17 22  4  0
 18 26  4  0
 19 24  4  0
 20 24  4  0
 22 27  4  0
 28 29  4  0
M  END
$$$$

 Created by Python create_sdf_string function

 29 33  0  0  0  0  0  0  0  0999 V2000
   10.7215   -3.3326   17.6437 C   0  0  0  0  0  0  0  0  0  0  0  0
    9.9489   -3.4675   24.6487 N   0  0  0  0  0  0  0  0  0  0  0  0
   10.0172   -4.4740   17.4101 C   0  0  0  0  0  0  0  0  0  0  0  0
    6.9051   -7.9575   16.4222 C   0  0  0  0  0  0  0  0  0  0  0  0
    8.9969   -6.3552   17.9668 N   0  0  0  0  0  0  0  0  0  0  0  0
   10.6702   -3.9051   22.4070 C   0  0  0  0  0  0  0  0  0  0  0  0
   11.0625   -3.0028   18.8894 C   0  0  0  0  0  0  0  0  0  0  0  0
    5.6180   -7.9194   16.1754 O   0  0  0  0  0  0  0  0  0  0  0  0
    9.7259   -5.3080   18.4485 C   0  0  0  0  0  0  0  0  0  0  0  0
    9.4578   -5.0200   16.3036 N   0  0  0  0  0  0  0  0  0  0  0  0
    5.0287   -8.9365   16.8223 C   0  0  0  0  0  0  0  0  0  0  0  0
    8.7742   -6.1498   16.6764 C   0  0  0  0  0  0  0  0  0  0  0  0
   10.9418   -3.4032   21.2053 O   0  0  0  0  0  0  0  0  0  0  0  0
    1.4797   -8.6258   16.2950 C   0  0  0  0  0  0  0  0  0  0  0  0
    9.2861   -1.2743   25.3585 C   0  0  0  0  0  0  0  0  0  0  0  0
    1.8892  -10.3985   17.7511 N   0  0  0  0  0  0  0  0  0  0  0  0
    9.6210   -0.6952   24.0976 C   0  0  0  0  0  0  0  0  0  0  0  0
    7.0792   -9.0217   17.1429 C   0  0  0  0  0  0  0  0  0  0  0  0
    3.1713  -10.1816   17.6634 C   0  0  0  0  0  0  0  0  0  0  0  0
    2.7878   -8.3822   16.2137 C   0  0  0  0  0  0  0  0  0  0  0  0
    9.4601   -2.6590   25.6528 C   0  0  0  0  0  0  0  0  0  0  0  0
   10.1182   -1.5672   23.1165 C   0  0  0  0  0  0  0  0  0  0  0  0
    1.0552   -9.6360   17.0650 C   0  0  0  0  0  0  0  0  0  0  0  0
    3.6519   -9.1783   16.9039 C   0  0  0  0  0  0  0  0  0  0  0  0
    7.8675   -7.0096   15.9415 C   0  0  0  0  0  0  0  0  0  0  0  0
    5.9733   -9.6553   17.3832 N   0  0  0  0  0  0  0  0  0  0  0  0
   10.2411   -2.9363   23.4301 C   0  0  0  0  0  0  0  0  0  0  0  0
   10.7288   -3.8197   19.9525 C   0  0  0  0  0  0  0  0  0  0  0  0
   10.1189   -5.0054   19.6987 C   0  0  0  0  0  0  0  0  0  0  0  0
  1  3  4  0
  1  7  4  0
  2 21  4  0
  2 27  4  0
  3  9  4  0
  3 10  4  0
  4  8  4  0
  4 18  4  0
  4 25  1  0
  5  9  4  0
  5 12  4  0
  6 13  1  0
  6 27  1  0
  7 28  4  0
  8 11  4  0
  9 29  4  0
 10 12  4  0
 11 24  1  0
 11 26  4  0
 12 25  1  0
 13 28  1  0
 14 20  4  0
 14 23  4  0
 15 17  4  0
 15 21  4  0
 16 19  4  0
 16 23  4  0
 17 22  4  0
 18 26  4  0
 19 24  4  0
 20 24  4  0
 22 27  4  0
 28 29  4  0
M  END
$$$$

 Created by Python create_sdf_string function

 29 33  0  0  0  0  0  0  0  0999 V2000
   10.7215   -3.3326   17.6437 C   0  0  0  0  0  0  0  0  0  0  0  0
    9.9489   -3.4675   24.6487 N   0  0  0  0  0  0  0  0  0  0  0  0
   10.0172   -4.4740   17.4101 C   0  0  0  0  0  0  0  0  0  0  0  0
    6.9051   -7.9575   16.4222 C   0  0  0  0  0  0  0  0  0  0  0  0
    8.9969   -6.3552   17.9668 N   0  0  0  0  0  0  0  0  0  0  0  0
   10.6702   -3.9051   22.4070 C   0  0  0  0  0  0  0  0  0  0  0  0
   11.0625   -3.0028   18.8894 C   0  0  0  0  0  0  0  0  0  0  0  0
    5.6180   -7.9194   16.1754 O   0  0  0  0  0  0  0  0  0  0  0  0
    9.7259   -5.3080   18.4485 C   0  0  0  0  0  0  0  0  0  0  0  0
    9.4578   -5.0200   16.3036 N   0  0  0  0  0  0  0  0  0  0  0  0
    5.0287   -8.9365   16.8223 C   0  0  0  0  0  0  0  0  0  0  0  0
    8.7742   -6.1498   16.6764 C   0  0  0  0  0  0  0  0  0  0  0  0
   10.9418   -3.4032   21.2053 O   0  0  0  0  0  0  0  0  0  0  0  0
    1.4797   -8.6258   16.2950 C   0  0  0  0  0  0  0  0  0  0  0  0
    9.2861   -1.2743   25.3585 C   0  0  0  0  0  0  0  0  0  0  0  0
    1.8892  -10.3985   17.7511 N   0  0  0  0  0  0  0  0  0  0  0  0
    9.6210   -0.6952   24.0976 C   0  0  0  0  0  0  0  0  0  0  0  0
    7.0792   -9.0217   17.1429 C   0  0  0  0  0  0  0  0  0  0  0  0
    3.1713  -10.1816   17.6634 C   0  0  0  0  0  0  0  0  0  0  0  0
    2.7878   -8.3822   16.2137 C   0  0  0  0  0  0  0  0  0  0  0  0
    9.4601   -2.6590   25.6528 C   0  0  0  0  0  0  0  0  0  0  0  0
   10.1182   -1.5672   23.1165 C   0  0  0  0  0  0  0  0  0  0  0  0
    1.0552   -9.6360   17.0650 C   0  0  0  0  0  0  0  0  0  0  0  0
    3.6519   -9.1783   16.9039 C   0  0  0  0  0  0  0  0  0  0  0  0
    7.8675   -7.0096   15.9415 C   0  0  0  0  0  0  0  0  0  0  0  0
    5.9733   -9.6553   17.3832 N   0  0  0  0  0  0  0  0  0  0  0  0
   10.2411   -2.9363   23.4301 C   0  0  0  0  0  0  0  0  0  0  0  0
   10.7288   -3.8197   19.9525 C   0  0  0  0  0  0  0  0  0  0  0  0
   10.1189   -5.0054   19.6987 C   0  0  0  0  0  0  0  0  0  0  0  0
  1  3  4  0
  1  7  4  0
  2 21  4  0
  2 27  4  0
  3  9  4  0
  3 10  4  0
  4  8  4  0
  4 18  4  0
  4 25  1  0
  5  9  4  0
  5 12  4  0
  6 13  1  0
  6 27  1  0
  7 28  4  0
  8 11  4  0
  9 29  4  0
 10 12  4  0
 11 24  1  0
 11 26  4  0
 12 25  1  0
 13 28  1  0
 14 20  4  0
 14 23  4  0
 15 17  4  0
 15 21  4  0
 16 19  4  0
 16 23  4  0
 17 22  4  0
 18 26  4  0
 19 24  4  0
 20 24  4  0
 22 27  4  0
 28 29  4  0
M  END
$$$$

 Created by Python create_sdf_string function

 29 33  0  0  0  0  0  0  0  0999 V2000
   10.7215   -3.3326   17.6437 C   0  0  0  0  0  0  0  0  0  0  0  0
    9.9489   -3.4675   24.6487 N   0  0  0  0  0  0  0  0  0  0  0  0
   10.0172   -4.4740   17.4101 C   0  0  0  0  0  0  0  0  0  0  0  0
    6.9051   -7.9575   16.4222 C   0  0  0  0  0  0  0  0  0  0  0  0
    8.9969   -6.3552   17.9668 N   0  0  0  0  0  0  0  0  0  0  0  0
   10.6702   -3.9051   22.4070 C   0  0  0  0  0  0  0  0  0  0  0  0
   11.0625   -3.0028   18.8894 C   0  0  0  0  0  0  0  0  0  0  0  0
    5.6180   -7.9194   16.1754 O   0  0  0  0  0  0  0  0  0  0  0  0
    9.7259   -5.3080   18.4485 C   0  0  0  0  0  0  0  0  0  0  0  0
    9.4578   -5.0200   16.3036 N   0  0  0  0  0  0  0  0  0  0  0  0
    5.0287   -8.9365   16.8223 C   0  0  0  0  0  0  0  0  0  0  0  0
    8.7742   -6.1498   16.6764 C   0  0  0  0  0  0  0  0  0  0  0  0
   10.9418   -3.4032   21.2053 O   0  0  0  0  0  0  0  0  0  0  0  0
    1.4797   -8.6258   16.2950 C   0  0  0  0  0  0  0  0  0  0  0  0
    9.2861   -1.2743   25.3585 C   0  0  0  0  0  0  0  0  0  0  0  0
    1.8892  -10.3985   17.7511 N   0  0  0  0  0  0  0  0  0  0  0  0
    9.6210   -0.6952   24.0976 C   0  0  0  0  0  0  0  0  0  0  0  0
    7.0792   -9.0217   17.1429 C   0  0  0  0  0  0  0  0  0  0  0  0
    3.1713  -10.1816   17.6634 C   0  0  0  0  0  0  0  0  0  0  0  0
    2.7878   -8.3822   16.2137 C   0  0  0  0  0  0  0  0  0  0  0  0
    9.4601   -2.6590   25.6528 C   0  0  0  0  0  0  0  0  0  0  0  0
   10.1182   -1.5672   23.1165 C   0  0  0  0  0  0  0  0  0  0  0  0
    1.0552   -9.6360   17.0650 C   0  0  0  0  0  0  0  0  0  0  0  0
    3.6519   -9.1783   16.9039 C   0  0  0  0  0  0  0  0  0  0  0  0
    7.8675   -7.0096   15.9415 C   0  0  0  0  0  0  0  0  0  0  0  0
    5.9733   -9.6553   17.3832 N   0  0  0  0  0  0  0  0  0  0  0  0
   10.2411   -2.9363   23.4301 C   0  0  0  0  0  0  0  0  0  0  0  0
   10.7288   -3.8197   19.9525 C   0  0  0  0  0  0  0  0  0  0  0  0
   10.1189   -5.0054   19.6987 C   0  0  0  0  0  0  0  0  0  0  0  0
  1  3  4  0
  1  7  4  0
  2 21  4  0
  2 27  4  0
  3  9  4  0
  3 10  4  0
  4  8  4  0
  4 18  4  0
  4 25  1  0
  5  9  4  0
  5 12  4  0
  6 13  1  0
  6 27  1  0
  7 28  4  0
  8 11  4  0
  9 29  4  0
 10 12  4  0
 11 24  1  0
 11 26  4  0
 12 25  1  0
 13 28  1  0
 14 20  4  0
 14 23  4  0
 15 17  4  0
 15 21  4  0
 16 19  4  0
 16 23  4  0
 17 22  4  0
 18 26  4  0
 19 24  4  0
 20 24  4  0
 22 27  4  0
 28 29  4  0
M  END
$$$$

 Created by Python create_sdf_string function

 29 33  0  0  0  0  0  0  0  0999 V2000
   10.7215   -3.3326   17.6437 C   0  0  0  0  0  0  0  0  0  0  0  0
    9.9489   -3.4675   24.6487 N   0  0  0  0  0  0  0  0  0  0  0  0
   10.0172   -4.4740   17.4101 C   0  0  0  0  0  0  0  0  0  0  0  0
    6.9051   -7.9575   16.4222 C   0  0  0  0  0  0  0  0  0  0  0  0
    8.9969   -6.3552   17.9668 N   0  0  0  0  0  0  0  0  0  0  0  0
   10.6702   -3.9051   22.4070 C   0  0  0  0  0  0  0  0  0  0  0  0
   11.0625   -3.0028   18.8894 C   0  0  0  0  0  0  0  0  0  0  0  0
    5.6180   -7.9194   16.1754 O   0  0  0  0  0  0  0  0  0  0  0  0
    9.7259   -5.3080   18.4485 C   0  0  0  0  0  0  0  0  0  0  0  0
    9.4578   -5.0200   16.3036 N   0  0  0  0  0  0  0  0  0  0  0  0
    5.0287   -8.9365   16.8223 C   0  0  0  0  0  0  0  0  0  0  0  0
    8.7742   -6.1498   16.6764 C   0  0  0  0  0  0  0  0  0  0  0  0
   10.9418   -3.4032   21.2053 O   0  0  0  0  0  0  0  0  0  0  0  0
    1.4797   -8.6258   16.2950 C   0  0  0  0  0  0  0  0  0  0  0  0
    9.2861   -1.2743   25.3585 C   0  0  0  0  0  0  0  0  0  0  0  0
    1.8892  -10.3985   17.7511 N   0  0  0  0  0  0  0  0  0  0  0  0
    9.6210   -0.6952   24.0976 C   0  0  0  0  0  0  0  0  0  0  0  0
    7.0792   -9.0217   17.1429 C   0  0  0  0  0  0  0  0  0  0  0  0
    3.1713  -10.1816   17.6634 C   0  0  0  0  0  0  0  0  0  0  0  0
    2.7878   -8.3822   16.2137 C   0  0  0  0  0  0  0  0  0  0  0  0
    9.4601   -2.6590   25.6528 C   0  0  0  0  0  0  0  0  0  0  0  0
   10.1182   -1.5672   23.1165 C   0  0  0  0  0  0  0  0  0  0  0  0
    1.0552   -9.6360   17.0650 C   0  0  0  0  0  0  0  0  0  0  0  0
    3.6519   -9.1783   16.9039 C   0  0  0  0  0  0  0  0  0  0  0  0
    7.8675   -7.0096   15.9415 C   0  0  0  0  0  0  0  0  0  0  0  0
    5.9733   -9.6553   17.3832 N   0  0  0  0  0  0  0  0  0  0  0  0
   10.2411   -2.9363   23.4301 C   0  0  0  0  0  0  0  0  0  0  0  0
   10.7288   -3.8197   19.9525 C   0  0  0  0  0  0  0  0  0  0  0  0
   10.1189   -5.0054   19.6987 C   0  0  0  0  0  0  0  0  0  0  0  0
  1  3  4  0
  1  7  4  0
  2 21  4  0
  2 27  4  0
  3  9  4  0
  3 10  4  0
  4  8  4  0
  4 18  4  0
  4 25  1  0
  5  9  4  0
  5 12  4  0
  6 13  1  0
  6 27  1  0
  7 28  4  0
  8 11  4  0
  9 29  4  0
 10 12  4  0
 11 24  1  0
 11 26  4  0
 12 25  1  0
 13 28  1  0
 14 20  4  0
 14 23  4  0
 15 17  4  0
 15 21  4  0
 16 19  4  0
 16 23  4  0
 17 22  4  0
 18 26  4  0
 19 24  4  0
 20 24  4  0
 22 27  4  0
 28 29  4  0
M  END
$$$$

 Created by Python create_sdf_string function

 29 33  0  0  0  0  0  0  0  0999 V2000
   10.7215   -3.3326   17.6437 C   0  0  0  0  0  0  0  0  0  0  0  0
    9.9489   -3.4675   24.6487 N   0  0  0  0  0  0  0  0  0  0  0  0
   10.0172   -4.4740   17.4101 C   0  0  0  0  0  0  0  0  0  0  0  0
    6.9051   -7.9575   16.4222 C   0  0  0  0  0  0  0  0  0  0  0  0
    8.9969   -6.3552   17.9668 N   0  0  0  0  0  0  0  0  0  0  0  0
   10.6702   -3.9051   22.4070 C   0  0  0  0  0  0  0  0  0  0  0  0
   11.0625   -3.0028   18.8894 C   0  0  0  0  0  0  0  0  0  0  0  0
    5.6180   -7.9194   16.1754 O   0  0  0  0  0  0  0  0  0  0  0  0
    9.7259   -5.3080   18.4485 C   0  0  0  0  0  0  0  0  0  0  0  0
    9.4578   -5.0200   16.3036 N   0  0  0  0  0  0  0  0  0  0  0  0
    5.0287   -8.9365   16.8223 C   0  0  0  0  0  0  0  0  0  0  0  0
    8.7742   -6.1498   16.6764 C   0  0  0  0  0  0  0  0  0  0  0  0
   10.9418   -3.4032   21.2053 O   0  0  0  0  0  0  0  0  0  0  0  0
    1.4797   -8.6258   16.2950 C   0  0  0  0  0  0  0  0  0  0  0  0
    9.2861   -1.2743   25.3585 C   0  0  0  0  0  0  0  0  0  0  0  0
    1.8892  -10.3985   17.7511 N   0  0  0  0  0  0  0  0  0  0  0  0
    9.6210   -0.6952   24.0976 C   0  0  0  0  0  0  0  0  0  0  0  0
    7.0792   -9.0217   17.1429 C   0  0  0  0  0  0  0  0  0  0  0  0
    3.1713  -10.1816   17.6634 C   0  0  0  0  0  0  0  0  0  0  0  0
    2.7878   -8.3822   16.2137 C   0  0  0  0  0  0  0  0  0  0  0  0
    9.4601   -2.6590   25.6528 C   0  0  0  0  0  0  0  0  0  0  0  0
   10.1182   -1.5672   23.1165 C   0  0  0  0  0  0  0  0  0  0  0  0
    1.0552   -9.6360   17.0650 C   0  0  0  0  0  0  0  0  0  0  0  0
    3.6519   -9.1783   16.9039 C   0  0  0  0  0  0  0  0  0  0  0  0
    7.8675   -7.0096   15.9415 C   0  0  0  0  0  0  0  0  0  0  0  0
    5.9733   -9.6553   17.3832 N   0  0  0  0  0  0  0  0  0  0  0  0
   10.2411   -2.9363   23.4301 C   0  0  0  0  0  0  0  0  0  0  0  0
   10.7288   -3.8197   19.9525 C   0  0  0  0  0  0  0  0  0  0  0  0
   10.1189   -5.0054   19.6987 C   0  0  0  0  0  0  0  0  0  0  0  0
  1  3  4  0
  1  7  4  0
  2 21  4  0
  2 27  4  0
  3  9  4  0
  3 10  4  0
  4  8  4  0
  4 18  4  0
  4 25  1  0
  5  9  4  0
  5 12  4  0
  6 13  1  0
  6 27  1  0
  7 28  4  0
  8 11  4  0
  9 29  4  0
 10 12  4  0
 11 24  1  0
 11 26  4  0
 12 25  1  0
 13 28  1  0
 14 20  4  0
 14 23  4  0
 15 17  4  0
 15 21  4  0
 16 19  4  0
 16 23  4  0
 17 22  4  0
 18 26  4  0
 19 24  4  0
 20 24  4  0
 22 27  4  0
 28 29  4  0
M  END
$$$$

 Created by Python create_sdf_string function

 29 33  0  0  0  0  0  0  0  0999 V2000
   10.7215   -3.3326   17.6437 C   0  0  0  0  0  0  0  0  0  0  0  0
    9.9489   -3.4675   24.6487 N   0  0  0  0  0  0  0  0  0  0  0  0
   10.0172   -4.4740   17.4101 C   0  0  0  0  0  0  0  0  0  0  0  0
    6.9051   -7.9575   16.4222 C   0  0  0  0  0  0  0  0  0  0  0  0
    8.9969   -6.3552   17.9668 N   0  0  0  0  0  0  0  0  0  0  0  0
   10.6702   -3.9051   22.4070 C   0  0  0  0  0  0  0  0  0  0  0  0
   11.0625   -3.0028   18.8894 C   0  0  0  0  0  0  0  0  0  0  0  0
    5.6180   -7.9194   16.1754 O   0  0  0  0  0  0  0  0  0  0  0  0
    9.7259   -5.3080   18.4485 C   0  0  0  0  0  0  0  0  0  0  0  0
    9.4578   -5.0200   16.3036 N   0  0  0  0  0  0  0  0  0  0  0  0
    5.0287   -8.9365   16.8223 C   0  0  0  0  0  0  0  0  0  0  0  0
    8.7742   -6.1498   16.6764 C   0  0  0  0  0  0  0  0  0  0  0  0
   10.9418   -3.4032   21.2053 O   0  0  0  0  0  0  0  0  0  0  0  0
    1.4797   -8.6258   16.2950 C   0  0  0  0  0  0  0  0  0  0  0  0
    9.2861   -1.2743   25.3585 C   0  0  0  0  0  0  0  0  0  0  0  0
    1.8892  -10.3985   17.7511 N   0  0  0  0  0  0  0  0  0  0  0  0
    9.6210   -0.6952   24.0976 C   0  0  0  0  0  0  0  0  0  0  0  0
    7.0792   -9.0217   17.1429 C   0  0  0  0  0  0  0  0  0  0  0  0
    3.1713  -10.1816   17.6634 C   0  0  0  0  0  0  0  0  0  0  0  0
    2.7878   -8.3822   16.2137 C   0  0  0  0  0  0  0  0  0  0  0  0
    9.4601   -2.6590   25.6528 C   0  0  0  0  0  0  0  0  0  0  0  0
   10.1182   -1.5672   23.1165 C   0  0  0  0  0  0  0  0  0  0  0  0
    1.0552   -9.6360   17.0650 C   0  0  0  0  0  0  0  0  0  0  0  0
    3.6519   -9.1783   16.9039 C   0  0  0  0  0  0  0  0  0  0  0  0
    7.8675   -7.0096   15.9415 C   0  0  0  0  0  0  0  0  0  0  0  0
    5.9733   -9.6553   17.3832 N   0  0  0  0  0  0  0  0  0  0  0  0
   10.2411   -2.9363   23.4301 C   0  0  0  0  0  0  0  0  0  0  0  0
   10.7288   -3.8197   19.9525 C   0  0  0  0  0  0  0  0  0  0  0  0
   10.1189   -5.0054   19.6987 C   0  0  0  0  0  0  0  0  0  0  0  0
  1  3  4  0
  1  7  4  0
  2 21  4  0
  2 27  4  0
  3  9  4  0
  3 10  4  0
  4  8  4  0
  4 18  4  0
  4 25  1  0
  5  9  4  0
  5 12  4  0
  6 13  1  0
  6 27  1  0
  7 28  4  0
  8 11  4  0
  9 29  4  0
 10 12  4  0
 11 24  1  0
 11 26  4  0
 12 25  1  0
 13 28  1  0
 14 20  4  0
 14 23  4  0
 15 17  4  0
 15 21  4  0
 16 19  4  0
 16 23  4  0
 17 22  4  0
 18 26  4  0
 19 24  4  0
 20 24  4  0
 22 27  4  0
 28 29  4  0
M  END
$$$$

 Created by Python create_sdf_string function

 29 33  0  0  0  0  0  0  0  0999 V2000
   10.7215   -3.3326   17.6437 C   0  0  0  0  0  0  0  0  0  0  0  0
    9.9489   -3.4675   24.6487 N   0  0  0  0  0  0  0  0  0  0  0  0
   10.0172   -4.4740   17.4101 C   0  0  0  0  0  0  0  0  0  0  0  0
    6.9051   -7.9575   16.4222 C   0  0  0  0  0  0  0  0  0  0  0  0
    8.9969   -6.3552   17.9668 N   0  0  0  0  0  0  0  0  0  0  0  0
   10.6702   -3.9051   22.4070 C   0  0  0  0  0  0  0  0  0  0  0  0
   11.0625   -3.0028   18.8894 C   0  0  0  0  0  0  0  0  0  0  0  0
    5.6180   -7.9194   16.1754 O   0  0  0  0  0  0  0  0  0  0  0  0
    9.7259   -5.3080   18.4485 C   0  0  0  0  0  0  0  0  0  0  0  0
    9.4578   -5.0200   16.3036 N   0  0  0  0  0  0  0  0  0  0  0  0
    5.0287   -8.9365   16.8223 C   0  0  0  0  0  0  0  0  0  0  0  0
    8.7742   -6.1498   16.6764 C   0  0  0  0  0  0  0  0  0  0  0  0
   10.9418   -3.4032   21.2053 O   0  0  0  0  0  0  0  0  0  0  0  0
    1.4797   -8.6258   16.2950 C   0  0  0  0  0  0  0  0  0  0  0  0
    9.2861   -1.2743   25.3585 C   0  0  0  0  0  0  0  0  0  0  0  0
    1.8892  -10.3985   17.7511 N   0  0  0  0  0  0  0  0  0  0  0  0
    9.6210   -0.6952   24.0976 C   0  0  0  0  0  0  0  0  0  0  0  0
    7.0792   -9.0217   17.1429 C   0  0  0  0  0  0  0  0  0  0  0  0
    3.1713  -10.1816   17.6634 C   0  0  0  0  0  0  0  0  0  0  0  0
    2.7878   -8.3822   16.2137 C   0  0  0  0  0  0  0  0  0  0  0  0
    9.4601   -2.6590   25.6528 C   0  0  0  0  0  0  0  0  0  0  0  0
   10.1182   -1.5672   23.1165 C   0  0  0  0  0  0  0  0  0  0  0  0
    1.0552   -9.6360   17.0650 C   0  0  0  0  0  0  0  0  0  0  0  0
    3.6519   -9.1783   16.9039 C   0  0  0  0  0  0  0  0  0  0  0  0
    7.8675   -7.0096   15.9415 C   0  0  0  0  0  0  0  0  0  0  0  0
    5.9733   -9.6553   17.3832 N   0  0  0  0  0  0  0  0  0  0  0  0
   10.2411   -2.9363   23.4301 C   0  0  0  0  0  0  0  0  0  0  0  0
   10.7288   -3.8197   19.9525 C   0  0  0  0  0  0  0  0  0  0  0  0
   10.1189   -5.0054   19.6987 C   0  0  0  0  0  0  0  0  0  0  0  0
  1  3  4  0
  1  7  4  0
  2 21  4  0
  2 27  4  0
  3  9  4  0
  3 10  4  0
  4  8  4  0
  4 18  4  0
  4 25  1  0
  5  9  4  0
  5 12  4  0
  6 13  1  0
  6 27  1  0
  7 28  4  0
  8 11  4  0
  9 29  4  0
 10 12  4  0
 11 24  1  0
 11 26  4  0
 12 25  1  0
 13 28  1  0
 14 20  4  0
 14 23  4  0
 15 17  4  0
 15 21  4  0
 16 19  4  0
 16 23  4  0
 17 22  4  0
 18 26  4  0
 19 24  4  0
 20 24  4  0
 22 27  4  0
 28 29  4  0
M  END
$$$$

 Created by Python create_sdf_string function

 29 33  0  0  0  0  0  0  0  0999 V2000
   10.7215   -3.3326   17.6437 C   0  0  0  0  0  0  0  0  0  0  0  0
    9.9489   -3.4675   24.6487 N   0  0  0  0  0  0  0  0  0  0  0  0
   10.0172   -4.4740   17.4101 C   0  0  0  0  0  0  0  0  0  0  0  0
    6.9051   -7.9575   16.4222 C   0  0  0  0  0  0  0  0  0  0  0  0
    8.9969   -6.3552   17.9668 N   0  0  0  0  0  0  0  0  0  0  0  0
   10.6702   -3.9051   22.4070 C   0  0  0  0  0  0  0  0  0  0  0  0
   11.0625   -3.0028   18.8894 C   0  0  0  0  0  0  0  0  0  0  0  0
    5.6180   -7.9194   16.1754 O   0  0  0  0  0  0  0  0  0  0  0  0
    9.7259   -5.3080   18.4485 C   0  0  0  0  0  0  0  0  0  0  0  0
    9.4578   -5.0200   16.3036 N   0  0  0  0  0  0  0  0  0  0  0  0
    5.0287   -8.9365   16.8223 C   0  0  0  0  0  0  0  0  0  0  0  0
    8.7742   -6.1498   16.6764 C   0  0  0  0  0  0  0  0  0  0  0  0
   10.9418   -3.4032   21.2053 O   0  0  0  0  0  0  0  0  0  0  0  0
    1.4797   -8.6258   16.2950 C   0  0  0  0  0  0  0  0  0  0  0  0
    9.2861   -1.2743   25.3585 C   0  0  0  0  0  0  0  0  0  0  0  0
    1.8892  -10.3985   17.7511 N   0  0  0  0  0  0  0  0  0  0  0  0
    9.6210   -0.6952   24.0976 C   0  0  0  0  0  0  0  0  0  0  0  0
    7.0792   -9.0217   17.1429 C   0  0  0  0  0  0  0  0  0  0  0  0
    3.1713  -10.1816   17.6634 C   0  0  0  0  0  0  0  0  0  0  0  0
    2.7878   -8.3822   16.2137 C   0  0  0  0  0  0  0  0  0  0  0  0
    9.4601   -2.6590   25.6528 C   0  0  0  0  0  0  0  0  0  0  0  0
   10.1182   -1.5672   23.1165 C   0  0  0  0  0  0  0  0  0  0  0  0
    1.0552   -9.6360   17.0650 C   0  0  0  0  0  0  0  0  0  0  0  0
    3.6519   -9.1783   16.9039 C   0  0  0  0  0  0  0  0  0  0  0  0
    7.8675   -7.0096   15.9415 C   0  0  0  0  0  0  0  0  0  0  0  0
    5.9733   -9.6553   17.3832 N   0  0  0  0  0  0  0  0  0  0  0  0
   10.2411   -2.9363   23.4301 C   0  0  0  0  0  0  0  0  0  0  0  0
   10.7288   -3.8197   19.9525 C   0  0  0  0  0  0  0  0  0  0  0  0
   10.1189   -5.0054   19.6987 C   0  0  0  0  0  0  0  0  0  0  0  0
  1  3  4  0
  1  7  4  0
  2 21  4  0
  2 27  4  0
  3  9  4  0
  3 10  4  0
  4  8  4  0
  4 18  4  0
  4 25  1  0
  5  9  4  0
  5 12  4  0
  6 13  1  0
  6 27  1  0
  7 28  4  0
  8 11  4  0
  9 29  4  0
 10 12  4  0
 11 24  1  0
 11 26  4  0
 12 25  1  0
 13 28  1  0
 14 20  4  0
 14 23  4  0
 15 17  4  0
 15 21  4  0
 16 19  4  0
 16 23  4  0
 17 22  4  0
 18 26  4  0
 19 24  4  0
 20 24  4  0
 22 27  4  0
 28 29  4  0
M  END
$$$$

 Created by Python create_sdf_string function

 29 33  0  0  0  0  0  0  0  0999 V2000
   10.7215   -3.3326   17.6437 C   0  0  0  0  0  0  0  0  0  0  0  0
    9.9489   -3.4675   24.6487 N   0  0  0  0  0  0  0  0  0  0  0  0
   10.0172   -4.4740   17.4101 C   0  0  0  0  0  0  0  0  0  0  0  0
    6.9051   -7.9575   16.4222 C   0  0  0  0  0  0  0  0  0  0  0  0
    8.9969   -6.3552   17.9668 N   0  0  0  0  0  0  0  0  0  0  0  0
   10.6702   -3.9051   22.4070 C   0  0  0  0  0  0  0  0  0  0  0  0
   11.0625   -3.0028   18.8894 C   0  0  0  0  0  0  0  0  0  0  0  0
    5.6180   -7.9194   16.1754 O   0  0  0  0  0  0  0  0  0  0  0  0
    9.7259   -5.3080   18.4485 C   0  0  0  0  0  0  0  0  0  0  0  0
    9.4578   -5.0200   16.3036 N   0  0  0  0  0  0  0  0  0  0  0  0
    5.0287   -8.9365   16.8223 C   0  0  0  0  0  0  0  0  0  0  0  0
    8.7742   -6.1498   16.6764 C   0  0  0  0  0  0  0  0  0  0  0  0
   10.9418   -3.4032   21.2053 O   0  0  0  0  0  0  0  0  0  0  0  0
    1.4797   -8.6258   16.2950 C   0  0  0  0  0  0  0  0  0  0  0  0
    9.2861   -1.2743   25.3585 C   0  0  0  0  0  0  0  0  0  0  0  0
    1.8892  -10.3985   17.7511 N   0  0  0  0  0  0  0  0  0  0  0  0
    9.6210   -0.6952   24.0976 C   0  0  0  0  0  0  0  0  0  0  0  0
    7.0792   -9.0217   17.1429 C   0  0  0  0  0  0  0  0  0  0  0  0
    3.1713  -10.1816   17.6634 C   0  0  0  0  0  0  0  0  0  0  0  0
    2.7878   -8.3822   16.2137 C   0  0  0  0  0  0  0  0  0  0  0  0
    9.4601   -2.6590   25.6528 C   0  0  0  0  0  0  0  0  0  0  0  0
   10.1182   -1.5672   23.1165 C   0  0  0  0  0  0  0  0  0  0  0  0
    1.0552   -9.6360   17.0650 C   0  0  0  0  0  0  0  0  0  0  0  0
    3.6519   -9.1783   16.9039 C   0  0  0  0  0  0  0  0  0  0  0  0
    7.8675   -7.0096   15.9415 C   0  0  0  0  0  0  0  0  0  0  0  0
    5.9733   -9.6553   17.3832 N   0  0  0  0  0  0  0  0  0  0  0  0
   10.2411   -2.9363   23.4301 C   0  0  0  0  0  0  0  0  0  0  0  0
   10.7288   -3.8197   19.9525 C   0  0  0  0  0  0  0  0  0  0  0  0
   10.1189   -5.0054   19.6987 C   0  0  0  0  0  0  0  0  0  0  0  0
  1  3  4  0
  1  7  4  0
  2 21  4  0
  2 27  4  0
  3  9  4  0
  3 10  4  0
  4  8  4  0
  4 18  4  0
  4 25  1  0
  5  9  4  0
  5 12  4  0
  6 13  1  0
  6 27  1  0
  7 28  4  0
  8 11  4  0
  9 29  4  0
 10 12  4  0
 11 24  1  0
 11 26  4  0
 12 25  1  0
 13 28  1  0
 14 20  4  0
 14 23  4  0
 15 17  4  0
 15 21  4  0
 16 19  4  0
 16 23  4  0
 17 22  4  0
 18 26  4  0
 19 24  4  0
 20 24  4  0
 22 27  4  0
 28 29  4  0
M  END
$$$$

 Created by Python create_sdf_string function

 29 33  0  0  0  0  0  0  0  0999 V2000
   10.7215   -3.3326   17.6437 C   0  0  0  0  0  0  0  0  0  0  0  0
    9.9489   -3.4675   24.6487 N   0  0  0  0  0  0  0  0  0  0  0  0
   10.0172   -4.4740   17.4101 C   0  0  0  0  0  0  0  0  0  0  0  0
    6.9051   -7.9575   16.4222 C   0  0  0  0  0  0  0  0  0  0  0  0
    8.9969   -6.3552   17.9668 N   0  0  0  0  0  0  0  0  0  0  0  0
   10.6702   -3.9051   22.4070 C   0  0  0  0  0  0  0  0  0  0  0  0
   11.0625   -3.0028   18.8894 C   0  0  0  0  0  0  0  0  0  0  0  0
    5.6180   -7.9194   16.1754 O   0  0  0  0  0  0  0  0  0  0  0  0
    9.7259   -5.3080   18.4485 C   0  0  0  0  0  0  0  0  0  0  0  0
    9.4578   -5.0200   16.3036 N   0  0  0  0  0  0  0  0  0  0  0  0
    5.0287   -8.9365   16.8223 C   0  0  0  0  0  0  0  0  0  0  0  0
    8.7742   -6.1498   16.6764 C   0  0  0  0  0  0  0  0  0  0  0  0
   10.9418   -3.4032   21.2053 O   0  0  0  0  0  0  0  0  0  0  0  0
    1.4797   -8.6258   16.2950 C   0  0  0  0  0  0  0  0  0  0  0  0
    9.2861   -1.2743   25.3585 C   0  0  0  0  0  0  0  0  0  0  0  0
    1.8892  -10.3985   17.7511 N   0  0  0  0  0  0  0  0  0  0  0  0
    9.6210   -0.6952   24.0976 C   0  0  0  0  0  0  0  0  0  0  0  0
    7.0792   -9.0217   17.1429 C   0  0  0  0  0  0  0  0  0  0  0  0
    3.1713  -10.1816   17.6634 C   0  0  0  0  0  0  0  0  0  0  0  0
    2.7878   -8.3822   16.2137 C   0  0  0  0  0  0  0  0  0  0  0  0
    9.4601   -2.6590   25.6528 C   0  0  0  0  0  0  0  0  0  0  0  0
   10.1182   -1.5672   23.1165 C   0  0  0  0  0  0  0  0  0  0  0  0
    1.0552   -9.6360   17.0650 C   0  0  0  0  0  0  0  0  0  0  0  0
    3.6519   -9.1783   16.9039 C   0  0  0  0  0  0  0  0  0  0  0  0
    7.8675   -7.0096   15.9415 C   0  0  0  0  0  0  0  0  0  0  0  0
    5.9733   -9.6553   17.3832 N   0  0  0  0  0  0  0  0  0  0  0  0
   10.2411   -2.9363   23.4301 C   0  0  0  0  0  0  0  0  0  0  0  0
   10.7288   -3.8197   19.9525 C   0  0  0  0  0  0  0  0  0  0  0  0
   10.1189   -5.0054   19.6987 C   0  0  0  0  0  0  0  0  0  0  0  0
  1  3  4  0
  1  7  4  0
  2 21  4  0
  2 27  4  0
  3  9  4  0
  3 10  4  0
  4  8  4  0
  4 18  4  0
  4 25  1  0
  5  9  4  0
  5 12  4  0
  6 13  1  0
  6 27  1  0
  7 28  4  0
  8 11  4  0
  9 29  4  0
 10 12  4  0
 11 24  1  0
 11 26  4  0
 12 25  1  0
 13 28  1  0
 14 20  4  0
 14 23  4  0
 15 17  4  0
 15 21  4  0
 16 19  4  0
 16 23  4  0
 17 22  4  0
 18 26  4  0
 19 24  4  0
 20 24  4  0
 22 27  4  0
 28 29  4  0
M  END
$$$$

 Created by Python create_sdf_string function

 29 33  0  0  0  0  0  0  0  0999 V2000
   10.7215   -3.3326   17.6437 C   0  0  0  0  0  0  0  0  0  0  0  0
    9.9489   -3.4675   24.6487 N   0  0  0  0  0  0  0  0  0  0  0  0
   10.0172   -4.4740   17.4101 C   0  0  0  0  0  0  0  0  0  0  0  0
    6.9051   -7.9575   16.4222 C   0  0  0  0  0  0  0  0  0  0  0  0
    8.9969   -6.3552   17.9668 N   0  0  0  0  0  0  0  0  0  0  0  0
   10.6702   -3.9051   22.4070 C   0  0  0  0  0  0  0  0  0  0  0  0
   11.0625   -3.0028   18.8894 C   0  0  0  0  0  0  0  0  0  0  0  0
    5.6180   -7.9194   16.1754 O   0  0  0  0  0  0  0  0  0  0  0  0
    9.7259   -5.3080   18.4485 C   0  0  0  0  0  0  0  0  0  0  0  0
    9.4578   -5.0200   16.3036 N   0  0  0  0  0  0  0  0  0  0  0  0
    5.0287   -8.9365   16.8223 C   0  0  0  0  0  0  0  0  0  0  0  0
    8.7742   -6.1498   16.6764 C   0  0  0  0  0  0  0  0  0  0  0  0
   10.9418   -3.4032   21.2053 O   0  0  0  0  0  0  0  0  0  0  0  0
    1.4797   -8.6258   16.2950 C   0  0  0  0  0  0  0  0  0  0  0  0
    9.2861   -1.2743   25.3585 C   0  0  0  0  0  0  0  0  0  0  0  0
    1.8892  -10.3985   17.7511 N   0  0  0  0  0  0  0  0  0  0  0  0
    9.6210   -0.6952   24.0976 C   0  0  0  0  0  0  0  0  0  0  0  0
    7.0792   -9.0217   17.1429 C   0  0  0  0  0  0  0  0  0  0  0  0
    3.1713  -10.1816   17.6634 C   0  0  0  0  0  0  0  0  0  0  0  0
    2.7878   -8.3822   16.2137 C   0  0  0  0  0  0  0  0  0  0  0  0
    9.4601   -2.6590   25.6528 C   0  0  0  0  0  0  0  0  0  0  0  0
   10.1182   -1.5672   23.1165 C   0  0  0  0  0  0  0  0  0  0  0  0
    1.0552   -9.6360   17.0650 C   0  0  0  0  0  0  0  0  0  0  0  0
    3.6519   -9.1783   16.9039 C   0  0  0  0  0  0  0  0  0  0  0  0
    7.8675   -7.0096   15.9415 C   0  0  0  0  0  0  0  0  0  0  0  0
    5.9733   -9.6553   17.3832 N   0  0  0  0  0  0  0  0  0  0  0  0
   10.2411   -2.9363   23.4301 C   0  0  0  0  0  0  0  0  0  0  0  0
   10.7288   -3.8197   19.9525 C   0  0  0  0  0  0  0  0  0  0  0  0
   10.1189   -5.0054   19.6987 C   0  0  0  0  0  0  0  0  0  0  0  0
  1  3  4  0
  1  7  4  0
  2 21  4  0
  2 27  4  0
  3  9  4  0
  3 10  4  0
  4  8  4  0
  4 18  4  0
  4 25  1  0
  5  9  4  0
  5 12  4  0
  6 13  1  0
  6 27  1  0
  7 28  4  0
  8 11  4  0
  9 29  4  0
 10 12  4  0
 11 24  1  0
 11 26  4  0
 12 25  1  0
 13 28  1  0
 14 20  4  0
 14 23  4  0
 15 17  4  0
 15 21  4  0
 16 19  4  0
 16 23  4  0
 17 22  4  0
 18 26  4  0
 19 24  4  0
 20 24  4  0
 22 27  4  0
 28 29  4  0
M  END
$$$$

 Created by Python create_sdf_string function

 29 33  0  0  0  0  0  0  0  0999 V2000
   10.7215   -3.3326   17.6437 C   0  0  0  0  0  0  0  0  0  0  0  0
    9.9489   -3.4675   24.6487 N   0  0  0  0  0  0  0  0  0  0  0  0
   10.0172   -4.4740   17.4101 C   0  0  0  0  0  0  0  0  0  0  0  0
    6.9051   -7.9575   16.4222 C   0  0  0  0  0  0  0  0  0  0  0  0
    8.9969   -6.3552   17.9668 N   0  0  0  0  0  0  0  0  0  0  0  0
   10.6702   -3.9051   22.4070 C   0  0  0  0  0  0  0  0  0  0  0  0
   11.0625   -3.0028   18.8894 C   0  0  0  0  0  0  0  0  0  0  0  0
    5.6180   -7.9194   16.1754 O   0  0  0  0  0  0  0  0  0  0  0  0
    9.7259   -5.3080   18.4485 C   0  0  0  0  0  0  0  0  0  0  0  0
    9.4578   -5.0200   16.3036 N   0  0  0  0  0  0  0  0  0  0  0  0
    5.0287   -8.9365   16.8223 C   0  0  0  0  0  0  0  0  0  0  0  0
    8.7742   -6.1498   16.6764 C   0  0  0  0  0  0  0  0  0  0  0  0
   10.9418   -3.4032   21.2053 O   0  0  0  0  0  0  0  0  0  0  0  0
    1.4797   -8.6258   16.2950 C   0  0  0  0  0  0  0  0  0  0  0  0
    9.2861   -1.2743   25.3585 C   0  0  0  0  0  0  0  0  0  0  0  0
    1.8892  -10.3985   17.7511 N   0  0  0  0  0  0  0  0  0  0  0  0
    9.6210   -0.6952   24.0976 C   0  0  0  0  0  0  0  0  0  0  0  0
    7.0792   -9.0217   17.1429 C   0  0  0  0  0  0  0  0  0  0  0  0
    3.1713  -10.1816   17.6634 C   0  0  0  0  0  0  0  0  0  0  0  0
    2.7878   -8.3822   16.2137 C   0  0  0  0  0  0  0  0  0  0  0  0
    9.4601   -2.6590   25.6528 C   0  0  0  0  0  0  0  0  0  0  0  0
   10.1182   -1.5672   23.1165 C   0  0  0  0  0  0  0  0  0  0  0  0
    1.0552   -9.6360   17.0650 C   0  0  0  0  0  0  0  0  0  0  0  0
    3.6519   -9.1783   16.9039 C   0  0  0  0  0  0  0  0  0  0  0  0
    7.8675   -7.0096   15.9415 C   0  0  0  0  0  0  0  0  0  0  0  0
    5.9733   -9.6553   17.3832 N   0  0  0  0  0  0  0  0  0  0  0  0
   10.2411   -2.9363   23.4301 C   0  0  0  0  0  0  0  0  0  0  0  0
   10.7288   -3.8197   19.9525 C   0  0  0  0  0  0  0  0  0  0  0  0
   10.1189   -5.0054   19.6987 C   0  0  0  0  0  0  0  0  0  0  0  0
  1  3  4  0
  1  7  4  0
  2 21  4  0
  2 27  4  0
  3  9  4  0
  3 10  4  0
  4  8  4  0
  4 18  4  0
  4 25  1  0
  5  9  4  0
  5 12  4  0
  6 13  1  0
  6 27  1  0
  7 28  4  0
  8 11  4  0
  9 29  4  0
 10 12  4  0
 11 24  1  0
 11 26  4  0
 12 25  1  0
 13 28  1  0
 14 20  4  0
 14 23  4  0
 15 17  4  0
 15 21  4  0
 16 19  4  0
 16 23  4  0
 17 22  4  0
 18 26  4  0
 19 24  4  0
 20 24  4  0
 22 27  4  0
 28 29  4  0
M  END
$$$$

 Created by Python create_sdf_string function

 29 33  0  0  0  0  0  0  0  0999 V2000
   10.7215   -3.3326   17.6437 C   0  0  0  0  0  0  0  0  0  0  0  0
    9.9489   -3.4675   24.6487 N   0  0  0  0  0  0  0  0  0  0  0  0
   10.0172   -4.4740   17.4101 C   0  0  0  0  0  0  0  0  0  0  0  0
    6.9051   -7.9575   16.4222 C   0  0  0  0  0  0  0  0  0  0  0  0
    8.9969   -6.3552   17.9668 N   0  0  0  0  0  0  0  0  0  0  0  0
   10.6702   -3.9051   22.4070 C   0  0  0  0  0  0  0  0  0  0  0  0
   11.0625   -3.0028   18.8894 C   0  0  0  0  0  0  0  0  0  0  0  0
    5.6180   -7.9194   16.1754 O   0  0  0  0  0  0  0  0  0  0  0  0
    9.7259   -5.3080   18.4485 C   0  0  0  0  0  0  0  0  0  0  0  0
    9.4578   -5.0200   16.3036 N   0  0  0  0  0  0  0  0  0  0  0  0
    5.0287   -8.9365   16.8223 C   0  0  0  0  0  0  0  0  0  0  0  0
    8.7742   -6.1498   16.6764 C   0  0  0  0  0  0  0  0  0  0  0  0
   10.9418   -3.4032   21.2053 O   0  0  0  0  0  0  0  0  0  0  0  0
    1.4797   -8.6258   16.2950 C   0  0  0  0  0  0  0  0  0  0  0  0
    9.2861   -1.2743   25.3585 C   0  0  0  0  0  0  0  0  0  0  0  0
    1.8892  -10.3985   17.7511 N   0  0  0  0  0  0  0  0  0  0  0  0
    9.6210   -0.6952   24.0976 C   0  0  0  0  0  0  0  0  0  0  0  0
    7.0792   -9.0217   17.1429 C   0  0  0  0  0  0  0  0  0  0  0  0
    3.1713  -10.1816   17.6634 C   0  0  0  0  0  0  0  0  0  0  0  0
    2.7878   -8.3822   16.2137 C   0  0  0  0  0  0  0  0  0  0  0  0
    9.4601   -2.6590   25.6528 C   0  0  0  0  0  0  0  0  0  0  0  0
   10.1182   -1.5672   23.1165 C   0  0  0  0  0  0  0  0  0  0  0  0
    1.0552   -9.6360   17.0650 C   0  0  0  0  0  0  0  0  0  0  0  0
    3.6519   -9.1783   16.9039 C   0  0  0  0  0  0  0  0  0  0  0  0
    7.8675   -7.0096   15.9415 C   0  0  0  0  0  0  0  0  0  0  0  0
    5.9733   -9.6553   17.3832 N   0  0  0  0  0  0  0  0  0  0  0  0
   10.2411   -2.9363   23.4301 C   0  0  0  0  0  0  0  0  0  0  0  0
   10.7288   -3.8197   19.9525 C   0  0  0  0  0  0  0  0  0  0  0  0
   10.1189   -5.0054   19.6987 C   0  0  0  0  0  0  0  0  0  0  0  0
  1  3  4  0
  1  7  4  0
  2 21  4  0
  2 27  4  0
  3  9  4  0
  3 10  4  0
  4  8  4  0
  4 18  4  0
  4 25  1  0
  5  9  4  0
  5 12  4  0
  6 13  1  0
  6 27  1  0
  7 28  4  0
  8 11  4  0
  9 29  4  0
 10 12  4  0
 11 24  1  0
 11 26  4  0
 12 25  1  0
 13 28  1  0
 14 20  4  0
 14 23  4  0
 15 17  4  0
 15 21  4  0
 16 19  4  0
 16 23  4  0
 17 22  4  0
 18 26  4  0
 19 24  4  0
 20 24  4  0
 22 27  4  0
 28 29  4  0
M  END
$$$$

 Created by Python create_sdf_string function

 29 33  0  0  0  0  0  0  0  0999 V2000
   10.7215   -3.3326   17.6437 C   0  0  0  0  0  0  0  0  0  0  0  0
    9.9489   -3.4675   24.6487 N   0  0  0  0  0  0  0  0  0  0  0  0
   10.0172   -4.4740   17.4101 C   0  0  0  0  0  0  0  0  0  0  0  0
    6.9051   -7.9575   16.4222 C   0  0  0  0  0  0  0  0  0  0  0  0
    8.9969   -6.3552   17.9668 N   0  0  0  0  0  0  0  0  0  0  0  0
   10.6702   -3.9051   22.4070 C   0  0  0  0  0  0  0  0  0  0  0  0
   11.0625   -3.0028   18.8894 C   0  0  0  0  0  0  0  0  0  0  0  0
    5.6180   -7.9194   16.1754 O   0  0  0  0  0  0  0  0  0  0  0  0
    9.7259   -5.3080   18.4485 C   0  0  0  0  0  0  0  0  0  0  0  0
    9.4578   -5.0200   16.3036 N   0  0  0  0  0  0  0  0  0  0  0  0
    5.0287   -8.9365   16.8223 C   0  0  0  0  0  0  0  0  0  0  0  0
    8.7742   -6.1498   16.6764 C   0  0  0  0  0  0  0  0  0  0  0  0
   10.9418   -3.4032   21.2053 O   0  0  0  0  0  0  0  0  0  0  0  0
    1.4797   -8.6258   16.2950 C   0  0  0  0  0  0  0  0  0  0  0  0
    9.2861   -1.2743   25.3585 C   0  0  0  0  0  0  0  0  0  0  0  0
    1.8892  -10.3985   17.7511 N   0  0  0  0  0  0  0  0  0  0  0  0
    9.6210   -0.6952   24.0976 C   0  0  0  0  0  0  0  0  0  0  0  0
    7.0792   -9.0217   17.1429 C   0  0  0  0  0  0  0  0  0  0  0  0
    3.1713  -10.1816   17.6634 C   0  0  0  0  0  0  0  0  0  0  0  0
    2.7878   -8.3822   16.2137 C   0  0  0  0  0  0  0  0  0  0  0  0
    9.4601   -2.6590   25.6528 C   0  0  0  0  0  0  0  0  0  0  0  0
   10.1182   -1.5672   23.1165 C   0  0  0  0  0  0  0  0  0  0  0  0
    1.0552   -9.6360   17.0650 C   0  0  0  0  0  0  0  0  0  0  0  0
    3.6519   -9.1783   16.9039 C   0  0  0  0  0  0  0  0  0  0  0  0
    7.8675   -7.0096   15.9415 C   0  0  0  0  0  0  0  0  0  0  0  0
    5.9733   -9.6553   17.3832 N   0  0  0  0  0  0  0  0  0  0  0  0
   10.2411   -2.9363   23.4301 C   0  0  0  0  0  0  0  0  0  0  0  0
   10.7288   -3.8197   19.9525 C   0  0  0  0  0  0  0  0  0  0  0  0
   10.1189   -5.0054   19.6987 C   0  0  0  0  0  0  0  0  0  0  0  0
  1  3  4  0
  1  7  4  0
  2 21  4  0
  2 27  4  0
  3  9  4  0
  3 10  4  0
  4  8  4  0
  4 18  4  0
  4 25  1  0
  5  9  4  0
  5 12  4  0
  6 13  1  0
  6 27  1  0
  7 28  4  0
  8 11  4  0
  9 29  4  0
 10 12  4  0
 11 24  1  0
 11 26  4  0
 12 25  1  0
 13 28  1  0
 14 20  4  0
 14 23  4  0
 15 17  4  0
 15 21  4  0
 16 19  4  0
 16 23  4  0
 17 22  4  0
 18 26  4  0
 19 24  4  0
 20 24  4  0
 22 27  4  0
 28 29  4  0
M  END
$$$$

 Created by Python create_sdf_string function

 29 33  0  0  0  0  0  0  0  0999 V2000
   10.7215   -3.3326   17.6437 C   0  0  0  0  0  0  0  0  0  0  0  0
    9.9489   -3.4675   24.6487 N   0  0  0  0  0  0  0  0  0  0  0  0
   10.0172   -4.4740   17.4101 C   0  0  0  0  0  0  0  0  0  0  0  0
    6.9051   -7.9575   16.4222 C   0  0  0  0  0  0  0  0  0  0  0  0
    8.9969   -6.3552   17.9668 N   0  0  0  0  0  0  0  0  0  0  0  0
   10.6702   -3.9051   22.4070 C   0  0  0  0  0  0  0  0  0  0  0  0
   11.0625   -3.0028   18.8894 C   0  0  0  0  0  0  0  0  0  0  0  0
    5.6180   -7.9194   16.1754 O   0  0  0  0  0  0  0  0  0  0  0  0
    9.7259   -5.3080   18.4485 C   0  0  0  0  0  0  0  0  0  0  0  0
    9.4578   -5.0200   16.3036 N   0  0  0  0  0  0  0  0  0  0  0  0
    5.0287   -8.9365   16.8223 C   0  0  0  0  0  0  0  0  0  0  0  0
    8.7742   -6.1498   16.6764 C   0  0  0  0  0  0  0  0  0  0  0  0
   10.9418   -3.4032   21.2053 O   0  0  0  0  0  0  0  0  0  0  0  0
    1.4797   -8.6258   16.2950 C   0  0  0  0  0  0  0  0  0  0  0  0
    9.2861   -1.2743   25.3585 C   0  0  0  0  0  0  0  0  0  0  0  0
    1.8892  -10.3985   17.7511 N   0  0  0  0  0  0  0  0  0  0  0  0
    9.6210   -0.6952   24.0976 C   0  0  0  0  0  0  0  0  0  0  0  0
    7.0792   -9.0217   17.1429 C   0  0  0  0  0  0  0  0  0  0  0  0
    3.1713  -10.1816   17.6634 C   0  0  0  0  0  0  0  0  0  0  0  0
    2.7878   -8.3822   16.2137 C   0  0  0  0  0  0  0  0  0  0  0  0
    9.4601   -2.6590   25.6528 C   0  0  0  0  0  0  0  0  0  0  0  0
   10.1182   -1.5672   23.1165 C   0  0  0  0  0  0  0  0  0  0  0  0
    1.0552   -9.6360   17.0650 C   0  0  0  0  0  0  0  0  0  0  0  0
    3.6519   -9.1783   16.9039 C   0  0  0  0  0  0  0  0  0  0  0  0
    7.8675   -7.0096   15.9415 C   0  0  0  0  0  0  0  0  0  0  0  0
    5.9733   -9.6553   17.3832 N   0  0  0  0  0  0  0  0  0  0  0  0
   10.2411   -2.9363   23.4301 C   0  0  0  0  0  0  0  0  0  0  0  0
   10.7288   -3.8197   19.9525 C   0  0  0  0  0  0  0  0  0  0  0  0
   10.1189   -5.0054   19.6987 C   0  0  0  0  0  0  0  0  0  0  0  0
  1  3  4  0
  1  7  4  0
  2 21  4  0
  2 27  4  0
  3  9  4  0
  3 10  4  0
  4  8  4  0
  4 18  4  0
  4 25  1  0
  5  9  4  0
  5 12  4  0
  6 13  1  0
  6 27  1  0
  7 28  4  0
  8 11  4  0
  9 29  4  0
 10 12  4  0
 11 24  1  0
 11 26  4  0
 12 25  1  0
 13 28  1  0
 14 20  4  0
 14 23  4  0
 15 17  4  0
 15 21  4  0
 16 19  4  0
 16 23  4  0
 17 22  4  0
 18 26  4  0
 19 24  4  0
 20 24  4  0
 22 27  4  0
 28 29  4  0
M  END
$$$$

 Created by Python create_sdf_string function

 29 33  0  0  0  0  0  0  0  0999 V2000
   10.7215   -3.3326   17.6437 C   0  0  0  0  0  0  0  0  0  0  0  0
    9.9489   -3.4675   24.6487 N   0  0  0  0  0  0  0  0  0  0  0  0
   10.0172   -4.4740   17.4101 C   0  0  0  0  0  0  0  0  0  0  0  0
    6.9051   -7.9575   16.4222 C   0  0  0  0  0  0  0  0  0  0  0  0
    8.9969   -6.3552   17.9668 N   0  0  0  0  0  0  0  0  0  0  0  0
   10.6702   -3.9051   22.4070 C   0  0  0  0  0  0  0  0  0  0  0  0
   11.0625   -3.0028   18.8894 C   0  0  0  0  0  0  0  0  0  0  0  0
    5.6180   -7.9194   16.1754 O   0  0  0  0  0  0  0  0  0  0  0  0
    9.7259   -5.3080   18.4485 C   0  0  0  0  0  0  0  0  0  0  0  0
    9.4578   -5.0200   16.3036 N   0  0  0  0  0  0  0  0  0  0  0  0
    5.0287   -8.9365   16.8223 C   0  0  0  0  0  0  0  0  0  0  0  0
    8.7742   -6.1498   16.6764 C   0  0  0  0  0  0  0  0  0  0  0  0
   10.9418   -3.4032   21.2053 O   0  0  0  0  0  0  0  0  0  0  0  0
    1.4797   -8.6258   16.2950 C   0  0  0  0  0  0  0  0  0  0  0  0
    9.2861   -1.2743   25.3585 C   0  0  0  0  0  0  0  0  0  0  0  0
    1.8892  -10.3985   17.7511 N   0  0  0  0  0  0  0  0  0  0  0  0
    9.6210   -0.6952   24.0976 C   0  0  0  0  0  0  0  0  0  0  0  0
    7.0792   -9.0217   17.1429 C   0  0  0  0  0  0  0  0  0  0  0  0
    3.1713  -10.1816   17.6634 C   0  0  0  0  0  0  0  0  0  0  0  0
    2.7878   -8.3822   16.2137 C   0  0  0  0  0  0  0  0  0  0  0  0
    9.4601   -2.6590   25.6528 C   0  0  0  0  0  0  0  0  0  0  0  0
   10.1182   -1.5672   23.1165 C   0  0  0  0  0  0  0  0  0  0  0  0
    1.0552   -9.6360   17.0650 C   0  0  0  0  0  0  0  0  0  0  0  0
    3.6519   -9.1783   16.9039 C   0  0  0  0  0  0  0  0  0  0  0  0
    7.8675   -7.0096   15.9415 C   0  0  0  0  0  0  0  0  0  0  0  0
    5.9733   -9.6553   17.3832 N   0  0  0  0  0  0  0  0  0  0  0  0
   10.2411   -2.9363   23.4301 C   0  0  0  0  0  0  0  0  0  0  0  0
   10.7288   -3.8197   19.9525 C   0  0  0  0  0  0  0  0  0  0  0  0
   10.1189   -5.0054   19.6987 C   0  0  0  0  0  0  0  0  0  0  0  0
  1  3  4  0
  1  7  4  0
  2 21  4  0
  2 27  4  0
  3  9  4  0
  3 10  4  0
  4  8  4  0
  4 18  4  0
  4 25  1  0
  5  9  4  0
  5 12  4  0
  6 13  1  0
  6 27  1  0
  7 28  4  0
  8 11  4  0
  9 29  4  0
 10 12  4  0
 11 24  1  0
 11 26  4  0
 12 25  1  0
 13 28  1  0
 14 20  4  0
 14 23  4  0
 15 17  4  0
 15 21  4  0
 16 19  4  0
 16 23  4  0
 17 22  4  0
 18 26  4  0
 19 24  4  0
 20 24  4  0
 22 27  4  0
 28 29  4  0
M  END
$$$$

 Created by Python create_sdf_string function

 29 33  0  0  0  0  0  0  0  0999 V2000
   10.7215   -3.3326   17.6437 C   0  0  0  0  0  0  0  0  0  0  0  0
    9.9489   -3.4675   24.6487 N   0  0  0  0  0  0  0  0  0  0  0  0
   10.0172   -4.4740   17.4101 C   0  0  0  0  0  0  0  0  0  0  0  0
    6.9051   -7.9575   16.4222 C   0  0  0  0  0  0  0  0  0  0  0  0
    8.9969   -6.3552   17.9668 N   0  0  0  0  0  0  0  0  0  0  0  0
   10.6702   -3.9051   22.4070 C   0  0  0  0  0  0  0  0  0  0  0  0
   11.0625   -3.0028   18.8894 C   0  0  0  0  0  0  0  0  0  0  0  0
    5.6180   -7.9194   16.1754 O   0  0  0  0  0  0  0  0  0  0  0  0
    9.7259   -5.3080   18.4485 C   0  0  0  0  0  0  0  0  0  0  0  0
    9.4578   -5.0200   16.3036 N   0  0  0  0  0  0  0  0  0  0  0  0
    5.0287   -8.9365   16.8223 C   0  0  0  0  0  0  0  0  0  0  0  0
    8.7742   -6.1498   16.6764 C   0  0  0  0  0  0  0  0  0  0  0  0
   10.9418   -3.4032   21.2053 O   0  0  0  0  0  0  0  0  0  0  0  0
    1.4797   -8.6258   16.2950 C   0  0  0  0  0  0  0  0  0  0  0  0
    9.2861   -1.2743   25.3585 C   0  0  0  0  0  0  0  0  0  0  0  0
    1.8892  -10.3985   17.7511 N   0  0  0  0  0  0  0  0  0  0  0  0
    9.6210   -0.6952   24.0976 C   0  0  0  0  0  0  0  0  0  0  0  0
    7.0792   -9.0217   17.1429 C   0  0  0  0  0  0  0  0  0  0  0  0
    3.1713  -10.1816   17.6634 C   0  0  0  0  0  0  0  0  0  0  0  0
    2.7878   -8.3822   16.2137 C   0  0  0  0  0  0  0  0  0  0  0  0
    9.4601   -2.6590   25.6528 C   0  0  0  0  0  0  0  0  0  0  0  0
   10.1182   -1.5672   23.1165 C   0  0  0  0  0  0  0  0  0  0  0  0
    1.0552   -9.6360   17.0650 C   0  0  0  0  0  0  0  0  0  0  0  0
    3.6519   -9.1783   16.9039 C   0  0  0  0  0  0  0  0  0  0  0  0
    7.8675   -7.0096   15.9415 C   0  0  0  0  0  0  0  0  0  0  0  0
    5.9733   -9.6553   17.3832 N   0  0  0  0  0  0  0  0  0  0  0  0
   10.2411   -2.9363   23.4301 C   0  0  0  0  0  0  0  0  0  0  0  0
   10.7288   -3.8197   19.9525 C   0  0  0  0  0  0  0  0  0  0  0  0
   10.1189   -5.0054   19.6987 C   0  0  0  0  0  0  0  0  0  0  0  0
  1  3  4  0
  1  7  4  0
  2 21  4  0
  2 27  4  0
  3  9  4  0
  3 10  4  0
  4  8  4  0
  4 18  4  0
  4 25  1  0
  5  9  4  0
  5 12  4  0
  6 13  1  0
  6 27  1  0
  7 28  4  0
  8 11  4  0
  9 29  4  0
 10 12  4  0
 11 24  1  0
 11 26  4  0
 12 25  1  0
 13 28  1  0
 14 20  4  0
 14 23  4  0
 15 17  4  0
 15 21  4  0
 16 19  4  0
 16 23  4  0
 17 22  4  0
 18 26  4  0
 19 24  4  0
 20 24  4  0
 22 27  4  0
 28 29  4  0
M  END
$$$$

 Created by Python create_sdf_string function

 29 33  0  0  0  0  0  0  0  0999 V2000
   10.7215   -3.3326   17.6437 C   0  0  0  0  0  0  0  0  0  0  0  0
    9.9489   -3.4675   24.6487 N   0  0  0  0  0  0  0  0  0  0  0  0
   10.0172   -4.4740   17.4101 C   0  0  0  0  0  0  0  0  0  0  0  0
    6.9051   -7.9575   16.4222 C   0  0  0  0  0  0  0  0  0  0  0  0
    8.9969   -6.3552   17.9668 N   0  0  0  0  0  0  0  0  0  0  0  0
   10.6702   -3.9051   22.4070 C   0  0  0  0  0  0  0  0  0  0  0  0
   11.0625   -3.0028   18.8894 C   0  0  0  0  0  0  0  0  0  0  0  0
    5.6180   -7.9194   16.1754 O   0  0  0  0  0  0  0  0  0  0  0  0
    9.7259   -5.3080   18.4485 C   0  0  0  0  0  0  0  0  0  0  0  0
    9.4578   -5.0200   16.3036 N   0  0  0  0  0  0  0  0  0  0  0  0
    5.0287   -8.9365   16.8223 C   0  0  0  0  0  0  0  0  0  0  0  0
    8.7742   -6.1498   16.6764 C   0  0  0  0  0  0  0  0  0  0  0  0
   10.9418   -3.4032   21.2053 O   0  0  0  0  0  0  0  0  0  0  0  0
    1.4797   -8.6258   16.2950 C   0  0  0  0  0  0  0  0  0  0  0  0
    9.2861   -1.2743   25.3585 C   0  0  0  0  0  0  0  0  0  0  0  0
    1.8892  -10.3985   17.7511 N   0  0  0  0  0  0  0  0  0  0  0  0
    9.6210   -0.6952   24.0976 C   0  0  0  0  0  0  0  0  0  0  0  0
    7.0792   -9.0217   17.1429 C   0  0  0  0  0  0  0  0  0  0  0  0
    3.1713  -10.1816   17.6634 C   0  0  0  0  0  0  0  0  0  0  0  0
    2.7878   -8.3822   16.2137 C   0  0  0  0  0  0  0  0  0  0  0  0
    9.4601   -2.6590   25.6528 C   0  0  0  0  0  0  0  0  0  0  0  0
   10.1182   -1.5672   23.1165 C   0  0  0  0  0  0  0  0  0  0  0  0
    1.0552   -9.6360   17.0650 C   0  0  0  0  0  0  0  0  0  0  0  0
    3.6519   -9.1783   16.9039 C   0  0  0  0  0  0  0  0  0  0  0  0
    7.8675   -7.0096   15.9415 C   0  0  0  0  0  0  0  0  0  0  0  0
    5.9733   -9.6553   17.3832 N   0  0  0  0  0  0  0  0  0  0  0  0
   10.2411   -2.9363   23.4301 C   0  0  0  0  0  0  0  0  0  0  0  0
   10.7288   -3.8197   19.9525 C   0  0  0  0  0  0  0  0  0  0  0  0
   10.1189   -5.0054   19.6987 C   0  0  0  0  0  0  0  0  0  0  0  0
  1  3  4  0
  1  7  4  0
  2 21  4  0
  2 27  4  0
  3  9  4  0
  3 10  4  0
  4  8  4  0
  4 18  4  0
  4 25  1  0
  5  9  4  0
  5 12  4  0
  6 13  1  0
  6 27  1  0
  7 28  4  0
  8 11  4  0
  9 29  4  0
 10 12  4  0
 11 24  1  0
 11 26  4  0
 12 25  1  0
 13 28  1  0
 14 20  4  0
 14 23  4  0
 15 17  4  0
 15 21  4  0
 16 19  4  0
 16 23  4  0
 17 22  4  0
 18 26  4  0
 19 24  4  0
 20 24  4  0
 22 27  4  0
 28 29  4  0
M  END
$$$$

 Created by Python create_sdf_string function

 29 33  0  0  0  0  0  0  0  0999 V2000
   10.7215   -3.3326   17.6437 C   0  0  0  0  0  0  0  0  0  0  0  0
    9.9489   -3.4675   24.6487 N   0  0  0  0  0  0  0  0  0  0  0  0
   10.0172   -4.4740   17.4101 C   0  0  0  0  0  0  0  0  0  0  0  0
    6.9051   -7.9575   16.4222 C   0  0  0  0  0  0  0  0  0  0  0  0
    8.9969   -6.3552   17.9668 N   0  0  0  0  0  0  0  0  0  0  0  0
   10.6702   -3.9051   22.4070 C   0  0  0  0  0  0  0  0  0  0  0  0
   11.0625   -3.0028   18.8894 C   0  0  0  0  0  0  0  0  0  0  0  0
    5.6180   -7.9194   16.1754 O   0  0  0  0  0  0  0  0  0  0  0  0
    9.7259   -5.3080   18.4485 C   0  0  0  0  0  0  0  0  0  0  0  0
    9.4578   -5.0200   16.3036 N   0  0  0  0  0  0  0  0  0  0  0  0
    5.0287   -8.9365   16.8223 C   0  0  0  0  0  0  0  0  0  0  0  0
    8.7742   -6.1498   16.6764 C   0  0  0  0  0  0  0  0  0  0  0  0
   10.9418   -3.4032   21.2053 O   0  0  0  0  0  0  0  0  0  0  0  0
    1.4797   -8.6258   16.2950 C   0  0  0  0  0  0  0  0  0  0  0  0
    9.2861   -1.2743   25.3585 C   0  0  0  0  0  0  0  0  0  0  0  0
    1.8892  -10.3985   17.7511 N   0  0  0  0  0  0  0  0  0  0  0  0
    9.6210   -0.6952   24.0976 C   0  0  0  0  0  0  0  0  0  0  0  0
    7.0792   -9.0217   17.1429 C   0  0  0  0  0  0  0  0  0  0  0  0
    3.1713  -10.1816   17.6634 C   0  0  0  0  0  0  0  0  0  0  0  0
    2.7878   -8.3822   16.2137 C   0  0  0  0  0  0  0  0  0  0  0  0
    9.4601   -2.6590   25.6528 C   0  0  0  0  0  0  0  0  0  0  0  0
   10.1182   -1.5672   23.1165 C   0  0  0  0  0  0  0  0  0  0  0  0
    1.0552   -9.6360   17.0650 C   0  0  0  0  0  0  0  0  0  0  0  0
    3.6519   -9.1783   16.9039 C   0  0  0  0  0  0  0  0  0  0  0  0
    7.8675   -7.0096   15.9415 C   0  0  0  0  0  0  0  0  0  0  0  0
    5.9733   -9.6553   17.3832 N   0  0  0  0  0  0  0  0  0  0  0  0
   10.2411   -2.9363   23.4301 C   0  0  0  0  0  0  0  0  0  0  0  0
   10.7288   -3.8197   19.9525 C   0  0  0  0  0  0  0  0  0  0  0  0
   10.1189   -5.0054   19.6987 C   0  0  0  0  0  0  0  0  0  0  0  0
  1  3  4  0
  1  7  4  0
  2 21  4  0
  2 27  4  0
  3  9  4  0
  3 10  4  0
  4  8  4  0
  4 18  4  0
  4 25  1  0
  5  9  4  0
  5 12  4  0
  6 13  1  0
  6 27  1  0
  7 28  4  0
  8 11  4  0
  9 29  4  0
 10 12  4  0
 11 24  1  0
 11 26  4  0
 12 25  1  0
 13 28  1  0
 14 20  4  0
 14 23  4  0
 15 17  4  0
 15 21  4  0
 16 19  4  0
 16 23  4  0
 17 22  4  0
 18 26  4  0
 19 24  4  0
 20 24  4  0
 22 27  4  0
 28 29  4  0
M  END
$$$$

 Created by Python create_sdf_string function

 29 33  0  0  0  0  0  0  0  0999 V2000
   10.7215   -3.3326   17.6437 C   0  0  0  0  0  0  0  0  0  0  0  0
    9.9489   -3.4675   24.6487 N   0  0  0  0  0  0  0  0  0  0  0  0
   10.0172   -4.4740   17.4101 C   0  0  0  0  0  0  0  0  0  0  0  0
    6.9051   -7.9575   16.4222 C   0  0  0  0  0  0  0  0  0  0  0  0
    8.9969   -6.3552   17.9668 N   0  0  0  0  0  0  0  0  0  0  0  0
   10.6702   -3.9051   22.4070 C   0  0  0  0  0  0  0  0  0  0  0  0
   11.0625   -3.0028   18.8894 C   0  0  0  0  0  0  0  0  0  0  0  0
    5.6180   -7.9194   16.1754 O   0  0  0  0  0  0  0  0  0  0  0  0
    9.7259   -5.3080   18.4485 C   0  0  0  0  0  0  0  0  0  0  0  0
    9.4578   -5.0200   16.3036 N   0  0  0  0  0  0  0  0  0  0  0  0
    5.0287   -8.9365   16.8223 C   0  0  0  0  0  0  0  0  0  0  0  0
    8.7742   -6.1498   16.6764 C   0  0  0  0  0  0  0  0  0  0  0  0
   10.9418   -3.4032   21.2053 O   0  0  0  0  0  0  0  0  0  0  0  0
    1.4797   -8.6258   16.2950 C   0  0  0  0  0  0  0  0  0  0  0  0
    9.2861   -1.2743   25.3585 C   0  0  0  0  0  0  0  0  0  0  0  0
    1.8892  -10.3985   17.7511 N   0  0  0  0  0  0  0  0  0  0  0  0
    9.6210   -0.6952   24.0976 C   0  0  0  0  0  0  0  0  0  0  0  0
    7.0792   -9.0217   17.1429 C   0  0  0  0  0  0  0  0  0  0  0  0
    3.1713  -10.1816   17.6634 C   0  0  0  0  0  0  0  0  0  0  0  0
    2.7878   -8.3822   16.2137 C   0  0  0  0  0  0  0  0  0  0  0  0
    9.4601   -2.6590   25.6528 C   0  0  0  0  0  0  0  0  0  0  0  0
   10.1182   -1.5672   23.1165 C   0  0  0  0  0  0  0  0  0  0  0  0
    1.0552   -9.6360   17.0650 C   0  0  0  0  0  0  0  0  0  0  0  0
    3.6519   -9.1783   16.9039 C   0  0  0  0  0  0  0  0  0  0  0  0
    7.8675   -7.0096   15.9415 C   0  0  0  0  0  0  0  0  0  0  0  0
    5.9733   -9.6553   17.3832 N   0  0  0  0  0  0  0  0  0  0  0  0
   10.2411   -2.9363   23.4301 C   0  0  0  0  0  0  0  0  0  0  0  0
   10.7288   -3.8197   19.9525 C   0  0  0  0  0  0  0  0  0  0  0  0
   10.1189   -5.0054   19.6987 C   0  0  0  0  0  0  0  0  0  0  0  0
  1  3  4  0
  1  7  4  0
  2 21  4  0
  2 27  4  0
  3  9  4  0
  3 10  4  0
  4  8  4  0
  4 18  4  0
  4 25  1  0
  5  9  4  0
  5 12  4  0
  6 13  1  0
  6 27  1  0
  7 28  4  0
  8 11  4  0
  9 29  4  0
 10 12  4  0
 11 24  1  0
 11 26  4  0
 12 25  1  0
 13 28  1  0
 14 20  4  0
 14 23  4  0
 15 17  4  0
 15 21  4  0
 16 19  4  0
 16 23  4  0
 17 22  4  0
 18 26  4  0
 19 24  4  0
 20 24  4  0
 22 27  4  0
 28 29  4  0
M  END
$$$$

 Created by Python create_sdf_string function

 29 33  0  0  0  0  0  0  0  0999 V2000
   10.7215   -3.3326   17.6437 C   0  0  0  0  0  0  0  0  0  0  0  0
    9.9489   -3.4675   24.6487 N   0  0  0  0  0  0  0  0  0  0  0  0
   10.0172   -4.4740   17.4101 C   0  0  0  0  0  0  0  0  0  0  0  0
    6.9051   -7.9575   16.4222 C   0  0  0  0  0  0  0  0  0  0  0  0
    8.9969   -6.3552   17.9668 N   0  0  0  0  0  0  0  0  0  0  0  0
   10.6702   -3.9051   22.4070 C   0  0  0  0  0  0  0  0  0  0  0  0
   11.0625   -3.0028   18.8894 C   0  0  0  0  0  0  0  0  0  0  0  0
    5.6180   -7.9194   16.1754 O   0  0  0  0  0  0  0  0  0  0  0  0
    9.7259   -5.3080   18.4485 C   0  0  0  0  0  0  0  0  0  0  0  0
    9.4578   -5.0200   16.3036 N   0  0  0  0  0  0  0  0  0  0  0  0
    5.0287   -8.9365   16.8223 C   0  0  0  0  0  0  0  0  0  0  0  0
    8.7742   -6.1498   16.6764 C   0  0  0  0  0  0  0  0  0  0  0  0
   10.9418   -3.4032   21.2053 O   0  0  0  0  0  0  0  0  0  0  0  0
    1.4797   -8.6258   16.2950 C   0  0  0  0  0  0  0  0  0  0  0  0
    9.2861   -1.2743   25.3585 C   0  0  0  0  0  0  0  0  0  0  0  0
    1.8892  -10.3985   17.7511 N   0  0  0  0  0  0  0  0  0  0  0  0
    9.6210   -0.6952   24.0976 C   0  0  0  0  0  0  0  0  0  0  0  0
    7.0792   -9.0217   17.1429 C   0  0  0  0  0  0  0  0  0  0  0  0
    3.1713  -10.1816   17.6634 C   0  0  0  0  0  0  0  0  0  0  0  0
    2.7878   -8.3822   16.2137 C   0  0  0  0  0  0  0  0  0  0  0  0
    9.4601   -2.6590   25.6528 C   0  0  0  0  0  0  0  0  0  0  0  0
   10.1182   -1.5672   23.1165 C   0  0  0  0  0  0  0  0  0  0  0  0
    1.0552   -9.6360   17.0650 C   0  0  0  0  0  0  0  0  0  0  0  0
    3.6519   -9.1783   16.9039 C   0  0  0  0  0  0  0  0  0  0  0  0
    7.8675   -7.0096   15.9415 C   0  0  0  0  0  0  0  0  0  0  0  0
    5.9733   -9.6553   17.3832 N   0  0  0  0  0  0  0  0  0  0  0  0
   10.2411   -2.9363   23.4301 C   0  0  0  0  0  0  0  0  0  0  0  0
   10.7288   -3.8197   19.9525 C   0  0  0  0  0  0  0  0  0  0  0  0
   10.1189   -5.0054   19.6987 C   0  0  0  0  0  0  0  0  0  0  0  0
  1  3  4  0
  1  7  4  0
  2 21  4  0
  2 27  4  0
  3  9  4  0
  3 10  4  0
  4  8  4  0
  4 18  4  0
  4 25  1  0
  5  9  4  0
  5 12  4  0
  6 13  1  0
  6 27  1  0
  7 28  4  0
  8 11  4  0
  9 29  4  0
 10 12  4  0
 11 24  1  0
 11 26  4  0
 12 25  1  0
 13 28  1  0
 14 20  4  0
 14 23  4  0
 15 17  4  0
 15 21  4  0
 16 19  4  0
 16 23  4  0
 17 22  4  0
 18 26  4  0
 19 24  4  0
 20 24  4  0
 22 27  4  0
 28 29  4  0
M  END
$$$$

 Created by Python create_sdf_string function

 29 33  0  0  0  0  0  0  0  0999 V2000
   10.7215   -3.3326   17.6437 C   0  0  0  0  0  0  0  0  0  0  0  0
    9.9489   -3.4675   24.6487 N   0  0  0  0  0  0  0  0  0  0  0  0
   10.0172   -4.4740   17.4101 C   0  0  0  0  0  0  0  0  0  0  0  0
    6.9051   -7.9575   16.4222 C   0  0  0  0  0  0  0  0  0  0  0  0
    8.9969   -6.3552   17.9668 N   0  0  0  0  0  0  0  0  0  0  0  0
   10.6702   -3.9051   22.4070 C   0  0  0  0  0  0  0  0  0  0  0  0
   11.0625   -3.0028   18.8894 C   0  0  0  0  0  0  0  0  0  0  0  0
    5.6180   -7.9194   16.1754 O   0  0  0  0  0  0  0  0  0  0  0  0
    9.7259   -5.3080   18.4485 C   0  0  0  0  0  0  0  0  0  0  0  0
    9.4578   -5.0200   16.3036 N   0  0  0  0  0  0  0  0  0  0  0  0
    5.0287   -8.9365   16.8223 C   0  0  0  0  0  0  0  0  0  0  0  0
    8.7742   -6.1498   16.6764 C   0  0  0  0  0  0  0  0  0  0  0  0
   10.9418   -3.4032   21.2053 O   0  0  0  0  0  0  0  0  0  0  0  0
    1.4797   -8.6258   16.2950 C   0  0  0  0  0  0  0  0  0  0  0  0
    9.2861   -1.2743   25.3585 C   0  0  0  0  0  0  0  0  0  0  0  0
    1.8892  -10.3985   17.7511 N   0  0  0  0  0  0  0  0  0  0  0  0
    9.6210   -0.6952   24.0976 C   0  0  0  0  0  0  0  0  0  0  0  0
    7.0792   -9.0217   17.1429 C   0  0  0  0  0  0  0  0  0  0  0  0
    3.1713  -10.1816   17.6634 C   0  0  0  0  0  0  0  0  0  0  0  0
    2.7878   -8.3822   16.2137 C   0  0  0  0  0  0  0  0  0  0  0  0
    9.4601   -2.6590   25.6528 C   0  0  0  0  0  0  0  0  0  0  0  0
   10.1182   -1.5672   23.1165 C   0  0  0  0  0  0  0  0  0  0  0  0
    1.0552   -9.6360   17.0650 C   0  0  0  0  0  0  0  0  0  0  0  0
    3.6519   -9.1783   16.9039 C   0  0  0  0  0  0  0  0  0  0  0  0
    7.8675   -7.0096   15.9415 C   0  0  0  0  0  0  0  0  0  0  0  0
    5.9733   -9.6553   17.3832 N   0  0  0  0  0  0  0  0  0  0  0  0
   10.2411   -2.9363   23.4301 C   0  0  0  0  0  0  0  0  0  0  0  0
   10.7288   -3.8197   19.9525 C   0  0  0  0  0  0  0  0  0  0  0  0
   10.1189   -5.0054   19.6987 C   0  0  0  0  0  0  0  0  0  0  0  0
  1  3  4  0
  1  7  4  0
  2 21  4  0
  2 27  4  0
  3  9  4  0
  3 10  4  0
  4  8  4  0
  4 18  4  0
  4 25  1  0
  5  9  4  0
  5 12  4  0
  6 13  1  0
  6 27  1  0
  7 28  4  0
  8 11  4  0
  9 29  4  0
 10 12  4  0
 11 24  1  0
 11 26  4  0
 12 25  1  0
 13 28  1  0
 14 20  4  0
 14 23  4  0
 15 17  4  0
 15 21  4  0
 16 19  4  0
 16 23  4  0
 17 22  4  0
 18 26  4  0
 19 24  4  0
 20 24  4  0
 22 27  4  0
 28 29  4  0
M  END
$$$$

 Created by Python create_sdf_string function

 29 33  0  0  0  0  0  0  0  0999 V2000
   10.7215   -3.3326   17.6437 C   0  0  0  0  0  0  0  0  0  0  0  0
    9.9489   -3.4675   24.6487 N   0  0  0  0  0  0  0  0  0  0  0  0
   10.0172   -4.4740   17.4101 C   0  0  0  0  0  0  0  0  0  0  0  0
    6.9051   -7.9575   16.4222 C   0  0  0  0  0  0  0  0  0  0  0  0
    8.9969   -6.3552   17.9668 N   0  0  0  0  0  0  0  0  0  0  0  0
   10.6702   -3.9051   22.4070 C   0  0  0  0  0  0  0  0  0  0  0  0
   11.0625   -3.0028   18.8894 C   0  0  0  0  0  0  0  0  0  0  0  0
    5.6180   -7.9194   16.1754 O   0  0  0  0  0  0  0  0  0  0  0  0
    9.7259   -5.3080   18.4485 C   0  0  0  0  0  0  0  0  0  0  0  0
    9.4578   -5.0200   16.3036 N   0  0  0  0  0  0  0  0  0  0  0  0
    5.0287   -8.9365   16.8223 C   0  0  0  0  0  0  0  0  0  0  0  0
    8.7742   -6.1498   16.6764 C   0  0  0  0  0  0  0  0  0  0  0  0
   10.9418   -3.4032   21.2053 O   0  0  0  0  0  0  0  0  0  0  0  0
    1.4797   -8.6258   16.2950 C   0  0  0  0  0  0  0  0  0  0  0  0
    9.2861   -1.2743   25.3585 C   0  0  0  0  0  0  0  0  0  0  0  0
    1.8892  -10.3985   17.7511 N   0  0  0  0  0  0  0  0  0  0  0  0
    9.6210   -0.6952   24.0976 C   0  0  0  0  0  0  0  0  0  0  0  0
    7.0792   -9.0217   17.1429 C   0  0  0  0  0  0  0  0  0  0  0  0
    3.1713  -10.1816   17.6634 C   0  0  0  0  0  0  0  0  0  0  0  0
    2.7878   -8.3822   16.2137 C   0  0  0  0  0  0  0  0  0  0  0  0
    9.4601   -2.6590   25.6528 C   0  0  0  0  0  0  0  0  0  0  0  0
   10.1182   -1.5672   23.1165 C   0  0  0  0  0  0  0  0  0  0  0  0
    1.0552   -9.6360   17.0650 C   0  0  0  0  0  0  0  0  0  0  0  0
    3.6519   -9.1783   16.9039 C   0  0  0  0  0  0  0  0  0  0  0  0
    7.8675   -7.0096   15.9415 C   0  0  0  0  0  0  0  0  0  0  0  0
    5.9733   -9.6553   17.3832 N   0  0  0  0  0  0  0  0  0  0  0  0
   10.2411   -2.9363   23.4301 C   0  0  0  0  0  0  0  0  0  0  0  0
   10.7288   -3.8197   19.9525 C   0  0  0  0  0  0  0  0  0  0  0  0
   10.1189   -5.0054   19.6987 C   0  0  0  0  0  0  0  0  0  0  0  0
  1  3  4  0
  1  7  4  0
  2 21  4  0
  2 27  4  0
  3  9  4  0
  3 10  4  0
  4  8  4  0
  4 18  4  0
  4 25  1  0
  5  9  4  0
  5 12  4  0
  6 13  1  0
  6 27  1  0
  7 28  4  0
  8 11  4  0
  9 29  4  0
 10 12  4  0
 11 24  1  0
 11 26  4  0
 12 25  1  0
 13 28  1  0
 14 20  4  0
 14 23  4  0
 15 17  4  0
 15 21  4  0
 16 19  4  0
 16 23  4  0
 17 22  4  0
 18 26  4  0
 19 24  4  0
 20 24  4  0
 22 27  4  0
 28 29  4  0
M  END
$$$$

 Created by Python create_sdf_string function

 29 33  0  0  0  0  0  0  0  0999 V2000
   10.7215   -3.3326   17.6437 C   0  0  0  0  0  0  0  0  0  0  0  0
    9.9489   -3.4675   24.6487 N   0  0  0  0  0  0  0  0  0  0  0  0
   10.0172   -4.4740   17.4101 C   0  0  0  0  0  0  0  0  0  0  0  0
    6.9051   -7.9575   16.4222 C   0  0  0  0  0  0  0  0  0  0  0  0
    8.9969   -6.3552   17.9668 N   0  0  0  0  0  0  0  0  0  0  0  0
   10.6702   -3.9051   22.4070 C   0  0  0  0  0  0  0  0  0  0  0  0
   11.0625   -3.0028   18.8894 C   0  0  0  0  0  0  0  0  0  0  0  0
    5.6180   -7.9194   16.1754 O   0  0  0  0  0  0  0  0  0  0  0  0
    9.7259   -5.3080   18.4485 C   0  0  0  0  0  0  0  0  0  0  0  0
    9.4578   -5.0200   16.3036 N   0  0  0  0  0  0  0  0  0  0  0  0
    5.0287   -8.9365   16.8223 C   0  0  0  0  0  0  0  0  0  0  0  0
    8.7742   -6.1498   16.6764 C   0  0  0  0  0  0  0  0  0  0  0  0
   10.9418   -3.4032   21.2053 O   0  0  0  0  0  0  0  0  0  0  0  0
    1.4797   -8.6258   16.2950 C   0  0  0  0  0  0  0  0  0  0  0  0
    9.2861   -1.2743   25.3585 C   0  0  0  0  0  0  0  0  0  0  0  0
    1.8892  -10.3985   17.7511 N   0  0  0  0  0  0  0  0  0  0  0  0
    9.6210   -0.6952   24.0976 C   0  0  0  0  0  0  0  0  0  0  0  0
    7.0792   -9.0217   17.1429 C   0  0  0  0  0  0  0  0  0  0  0  0
    3.1713  -10.1816   17.6634 C   0  0  0  0  0  0  0  0  0  0  0  0
    2.7878   -8.3822   16.2137 C   0  0  0  0  0  0  0  0  0  0  0  0
    9.4601   -2.6590   25.6528 C   0  0  0  0  0  0  0  0  0  0  0  0
   10.1182   -1.5672   23.1165 C   0  0  0  0  0  0  0  0  0  0  0  0
    1.0552   -9.6360   17.0650 C   0  0  0  0  0  0  0  0  0  0  0  0
    3.6519   -9.1783   16.9039 C   0  0  0  0  0  0  0  0  0  0  0  0
    7.8675   -7.0096   15.9415 C   0  0  0  0  0  0  0  0  0  0  0  0
    5.9733   -9.6553   17.3832 N   0  0  0  0  0  0  0  0  0  0  0  0
   10.2411   -2.9363   23.4301 C   0  0  0  0  0  0  0  0  0  0  0  0
   10.7288   -3.8197   19.9525 C   0  0  0  0  0  0  0  0  0  0  0  0
   10.1189   -5.0054   19.6987 C   0  0  0  0  0  0  0  0  0  0  0  0
  1  3  4  0
  1  7  4  0
  2 21  4  0
  2 27  4  0
  3  9  4  0
  3 10  4  0
  4  8  4  0
  4 18  4  0
  4 25  1  0
  5  9  4  0
  5 12  4  0
  6 13  1  0
  6 27  1  0
  7 28  4  0
  8 11  4  0
  9 29  4  0
 10 12  4  0
 11 24  1  0
 11 26  4  0
 12 25  1  0
 13 28  1  0
 14 20  4  0
 14 23  4  0
 15 17  4  0
 15 21  4  0
 16 19  4  0
 16 23  4  0
 17 22  4  0
 18 26  4  0
 19 24  4  0
 20 24  4  0
 22 27  4  0
 28 29  4  0
M  END
$$$$

 Created by Python create_sdf_string function

 29 33  0  0  0  0  0  0  0  0999 V2000
   10.7215   -3.3326   17.6437 C   0  0  0  0  0  0  0  0  0  0  0  0
    9.9489   -3.4675   24.6487 N   0  0  0  0  0  0  0  0  0  0  0  0
   10.0172   -4.4740   17.4101 C   0  0  0  0  0  0  0  0  0  0  0  0
    6.9051   -7.9575   16.4222 C   0  0  0  0  0  0  0  0  0  0  0  0
    8.9969   -6.3552   17.9668 N   0  0  0  0  0  0  0  0  0  0  0  0
   10.6702   -3.9051   22.4070 C   0  0  0  0  0  0  0  0  0  0  0  0
   11.0625   -3.0028   18.8894 C   0  0  0  0  0  0  0  0  0  0  0  0
    5.6180   -7.9194   16.1754 O   0  0  0  0  0  0  0  0  0  0  0  0
    9.7259   -5.3080   18.4485 C   0  0  0  0  0  0  0  0  0  0  0  0
    9.4578   -5.0200   16.3036 N   0  0  0  0  0  0  0  0  0  0  0  0
    5.0287   -8.9365   16.8223 C   0  0  0  0  0  0  0  0  0  0  0  0
    8.7742   -6.1498   16.6764 C   0  0  0  0  0  0  0  0  0  0  0  0
   10.9418   -3.4032   21.2053 O   0  0  0  0  0  0  0  0  0  0  0  0
    1.4797   -8.6258   16.2950 C   0  0  0  0  0  0  0  0  0  0  0  0
    9.2861   -1.2743   25.3585 C   0  0  0  0  0  0  0  0  0  0  0  0
    1.8892  -10.3985   17.7511 N   0  0  0  0  0  0  0  0  0  0  0  0
    9.6210   -0.6952   24.0976 C   0  0  0  0  0  0  0  0  0  0  0  0
    7.0792   -9.0217   17.1429 C   0  0  0  0  0  0  0  0  0  0  0  0
    3.1713  -10.1816   17.6634 C   0  0  0  0  0  0  0  0  0  0  0  0
    2.7878   -8.3822   16.2137 C   0  0  0  0  0  0  0  0  0  0  0  0
    9.4601   -2.6590   25.6528 C   0  0  0  0  0  0  0  0  0  0  0  0
   10.1182   -1.5672   23.1165 C   0  0  0  0  0  0  0  0  0  0  0  0
    1.0552   -9.6360   17.0650 C   0  0  0  0  0  0  0  0  0  0  0  0
    3.6519   -9.1783   16.9039 C   0  0  0  0  0  0  0  0  0  0  0  0
    7.8675   -7.0096   15.9415 C   0  0  0  0  0  0  0  0  0  0  0  0
    5.9733   -9.6553   17.3832 N   0  0  0  0  0  0  0  0  0  0  0  0
   10.2411   -2.9363   23.4301 C   0  0  0  0  0  0  0  0  0  0  0  0
   10.7288   -3.8197   19.9525 C   0  0  0  0  0  0  0  0  0  0  0  0
   10.1189   -5.0054   19.6987 C   0  0  0  0  0  0  0  0  0  0  0  0
  1  3  4  0
  1  7  4  0
  2 21  4  0
  2 27  4  0
  3  9  4  0
  3 10  4  0
  4  8  4  0
  4 18  4  0
  4 25  1  0
  5  9  4  0
  5 12  4  0
  6 13  1  0
  6 27  1  0
  7 28  4  0
  8 11  4  0
  9 29  4  0
 10 12  4  0
 11 24  1  0
 11 26  4  0
 12 25  1  0
 13 28  1  0
 14 20  4  0
 14 23  4  0
 15 17  4  0
 15 21  4  0
 16 19  4  0
 16 23  4  0
 17 22  4  0
 18 26  4  0
 19 24  4  0
 20 24  4  0
 22 27  4  0
 28 29  4  0
M  END
$$$$

 Created by Python create_sdf_string function

 29 33  0  0  0  0  0  0  0  0999 V2000
   10.7215   -3.3326   17.6437 C   0  0  0  0  0  0  0  0  0  0  0  0
    9.9489   -3.4675   24.6487 N   0  0  0  0  0  0  0  0  0  0  0  0
   10.0172   -4.4740   17.4101 C   0  0  0  0  0  0  0  0  0  0  0  0
    6.9051   -7.9575   16.4222 C   0  0  0  0  0  0  0  0  0  0  0  0
    8.9969   -6.3552   17.9668 N   0  0  0  0  0  0  0  0  0  0  0  0
   10.6702   -3.9051   22.4070 C   0  0  0  0  0  0  0  0  0  0  0  0
   11.0625   -3.0028   18.8894 C   0  0  0  0  0  0  0  0  0  0  0  0
    5.6180   -7.9194   16.1754 O   0  0  0  0  0  0  0  0  0  0  0  0
    9.7259   -5.3080   18.4485 C   0  0  0  0  0  0  0  0  0  0  0  0
    9.4578   -5.0200   16.3036 N   0  0  0  0  0  0  0  0  0  0  0  0
    5.0287   -8.9365   16.8223 C   0  0  0  0  0  0  0  0  0  0  0  0
    8.7742   -6.1498   16.6764 C   0  0  0  0  0  0  0  0  0  0  0  0
   10.9418   -3.4032   21.2053 O   0  0  0  0  0  0  0  0  0  0  0  0
    1.4797   -8.6258   16.2950 C   0  0  0  0  0  0  0  0  0  0  0  0
    9.2861   -1.2743   25.3585 C   0  0  0  0  0  0  0  0  0  0  0  0
    1.8892  -10.3985   17.7511 N   0  0  0  0  0  0  0  0  0  0  0  0
    9.6210   -0.6952   24.0976 C   0  0  0  0  0  0  0  0  0  0  0  0
    7.0792   -9.0217   17.1429 C   0  0  0  0  0  0  0  0  0  0  0  0
    3.1713  -10.1816   17.6634 C   0  0  0  0  0  0  0  0  0  0  0  0
    2.7878   -8.3822   16.2137 C   0  0  0  0  0  0  0  0  0  0  0  0
    9.4601   -2.6590   25.6528 C   0  0  0  0  0  0  0  0  0  0  0  0
   10.1182   -1.5672   23.1165 C   0  0  0  0  0  0  0  0  0  0  0  0
    1.0552   -9.6360   17.0650 C   0  0  0  0  0  0  0  0  0  0  0  0
    3.6519   -9.1783   16.9039 C   0  0  0  0  0  0  0  0  0  0  0  0
    7.8675   -7.0096   15.9415 C   0  0  0  0  0  0  0  0  0  0  0  0
    5.9733   -9.6553   17.3832 N   0  0  0  0  0  0  0  0  0  0  0  0
   10.2411   -2.9363   23.4301 C   0  0  0  0  0  0  0  0  0  0  0  0
   10.7288   -3.8197   19.9525 C   0  0  0  0  0  0  0  0  0  0  0  0
   10.1189   -5.0054   19.6987 C   0  0  0  0  0  0  0  0  0  0  0  0
  1  3  4  0
  1  7  4  0
  2 21  4  0
  2 27  4  0
  3  9  4  0
  3 10  4  0
  4  8  4  0
  4 18  4  0
  4 25  1  0
  5  9  4  0
  5 12  4  0
  6 13  1  0
  6 27  1  0
  7 28  4  0
  8 11  4  0
  9 29  4  0
 10 12  4  0
 11 24  1  0
 11 26  4  0
 12 25  1  0
 13 28  1  0
 14 20  4  0
 14 23  4  0
 15 17  4  0
 15 21  4  0
 16 19  4  0
 16 23  4  0
 17 22  4  0
 18 26  4  0
 19 24  4  0
 20 24  4  0
 22 27  4  0
 28 29  4  0
M  END
$$$$

 Created by Python create_sdf_string function

 29 33  0  0  0  0  0  0  0  0999 V2000
   10.7215   -3.3326   17.6437 C   0  0  0  0  0  0  0  0  0  0  0  0
    9.9489   -3.4675   24.6487 N   0  0  0  0  0  0  0  0  0  0  0  0
   10.0172   -4.4740   17.4101 C   0  0  0  0  0  0  0  0  0  0  0  0
    6.9051   -7.9575   16.4222 C   0  0  0  0  0  0  0  0  0  0  0  0
    8.9969   -6.3552   17.9668 N   0  0  0  0  0  0  0  0  0  0  0  0
   10.6702   -3.9051   22.4070 C   0  0  0  0  0  0  0  0  0  0  0  0
   11.0625   -3.0028   18.8894 C   0  0  0  0  0  0  0  0  0  0  0  0
    5.6180   -7.9194   16.1754 O   0  0  0  0  0  0  0  0  0  0  0  0
    9.7259   -5.3080   18.4485 C   0  0  0  0  0  0  0  0  0  0  0  0
    9.4578   -5.0200   16.3036 N   0  0  0  0  0  0  0  0  0  0  0  0
    5.0287   -8.9365   16.8223 C   0  0  0  0  0  0  0  0  0  0  0  0
    8.7742   -6.1498   16.6764 C   0  0  0  0  0  0  0  0  0  0  0  0
   10.9418   -3.4032   21.2053 O   0  0  0  0  0  0  0  0  0  0  0  0
    1.4797   -8.6258   16.2950 C   0  0  0  0  0  0  0  0  0  0  0  0
    9.2861   -1.2743   25.3585 C   0  0  0  0  0  0  0  0  0  0  0  0
    1.8892  -10.3985   17.7511 N   0  0  0  0  0  0  0  0  0  0  0  0
    9.6210   -0.6952   24.0976 C   0  0  0  0  0  0  0  0  0  0  0  0
    7.0792   -9.0217   17.1429 C   0  0  0  0  0  0  0  0  0  0  0  0
    3.1713  -10.1816   17.6634 C   0  0  0  0  0  0  0  0  0  0  0  0
    2.7878   -8.3822   16.2137 C   0  0  0  0  0  0  0  0  0  0  0  0
    9.4601   -2.6590   25.6528 C   0  0  0  0  0  0  0  0  0  0  0  0
   10.1182   -1.5672   23.1165 C   0  0  0  0  0  0  0  0  0  0  0  0
    1.0552   -9.6360   17.0650 C   0  0  0  0  0  0  0  0  0  0  0  0
    3.6519   -9.1783   16.9039 C   0  0  0  0  0  0  0  0  0  0  0  0
    7.8675   -7.0096   15.9415 C   0  0  0  0  0  0  0  0  0  0  0  0
    5.9733   -9.6553   17.3832 N   0  0  0  0  0  0  0  0  0  0  0  0
   10.2411   -2.9363   23.4301 C   0  0  0  0  0  0  0  0  0  0  0  0
   10.7288   -3.8197   19.9525 C   0  0  0  0  0  0  0  0  0  0  0  0
   10.1189   -5.0054   19.6987 C   0  0  0  0  0  0  0  0  0  0  0  0
  1  3  4  0
  1  7  4  0
  2 21  4  0
  2 27  4  0
  3  9  4  0
  3 10  4  0
  4  8  4  0
  4 18  4  0
  4 25  1  0
  5  9  4  0
  5 12  4  0
  6 13  1  0
  6 27  1  0
  7 28  4  0
  8 11  4  0
  9 29  4  0
 10 12  4  0
 11 24  1  0
 11 26  4  0
 12 25  1  0
 13 28  1  0
 14 20  4  0
 14 23  4  0
 15 17  4  0
 15 21  4  0
 16 19  4  0
 16 23  4  0
 17 22  4  0
 18 26  4  0
 19 24  4  0
 20 24  4  0
 22 27  4  0
 28 29  4  0
M  END
$$$$

 Created by Python create_sdf_string function

 29 33  0  0  0  0  0  0  0  0999 V2000
   10.7215   -3.3326   17.6437 C   0  0  0  0  0  0  0  0  0  0  0  0
    9.9489   -3.4675   24.6487 N   0  0  0  0  0  0  0  0  0  0  0  0
   10.0172   -4.4740   17.4101 C   0  0  0  0  0  0  0  0  0  0  0  0
    6.9051   -7.9575   16.4222 C   0  0  0  0  0  0  0  0  0  0  0  0
    8.9969   -6.3552   17.9668 N   0  0  0  0  0  0  0  0  0  0  0  0
   10.6702   -3.9051   22.4070 C   0  0  0  0  0  0  0  0  0  0  0  0
   11.0625   -3.0028   18.8894 C   0  0  0  0  0  0  0  0  0  0  0  0
    5.6180   -7.9194   16.1754 O   0  0  0  0  0  0  0  0  0  0  0  0
    9.7259   -5.3080   18.4485 C   0  0  0  0  0  0  0  0  0  0  0  0
    9.4578   -5.0200   16.3036 N   0  0  0  0  0  0  0  0  0  0  0  0
    5.0287   -8.9365   16.8223 C   0  0  0  0  0  0  0  0  0  0  0  0
    8.7742   -6.1498   16.6764 C   0  0  0  0  0  0  0  0  0  0  0  0
   10.9418   -3.4032   21.2053 O   0  0  0  0  0  0  0  0  0  0  0  0
    1.4797   -8.6258   16.2950 C   0  0  0  0  0  0  0  0  0  0  0  0
    9.2861   -1.2743   25.3585 C   0  0  0  0  0  0  0  0  0  0  0  0
    1.8892  -10.3985   17.7511 N   0  0  0  0  0  0  0  0  0  0  0  0
    9.6210   -0.6952   24.0976 C   0  0  0  0  0  0  0  0  0  0  0  0
    7.0792   -9.0217   17.1429 C   0  0  0  0  0  0  0  0  0  0  0  0
    3.1713  -10.1816   17.6634 C   0  0  0  0  0  0  0  0  0  0  0  0
    2.7878   -8.3822   16.2137 C   0  0  0  0  0  0  0  0  0  0  0  0
    9.4601   -2.6590   25.6528 C   0  0  0  0  0  0  0  0  0  0  0  0
   10.1182   -1.5672   23.1165 C   0  0  0  0  0  0  0  0  0  0  0  0
    1.0552   -9.6360   17.0650 C   0  0  0  0  0  0  0  0  0  0  0  0
    3.6519   -9.1783   16.9039 C   0  0  0  0  0  0  0  0  0  0  0  0
    7.8675   -7.0096   15.9415 C   0  0  0  0  0  0  0  0  0  0  0  0
    5.9733   -9.6553   17.3832 N   0  0  0  0  0  0  0  0  0  0  0  0
   10.2411   -2.9363   23.4301 C   0  0  0  0  0  0  0  0  0  0  0  0
   10.7288   -3.8197   19.9525 C   0  0  0  0  0  0  0  0  0  0  0  0
   10.1189   -5.0054   19.6987 C   0  0  0  0  0  0  0  0  0  0  0  0
  1  3  4  0
  1  7  4  0
  2 21  4  0
  2 27  4  0
  3  9  4  0
  3 10  4  0
  4  8  4  0
  4 18  4  0
  4 25  1  0
  5  9  4  0
  5 12  4  0
  6 13  1  0
  6 27  1  0
  7 28  4  0
  8 11  4  0
  9 29  4  0
 10 12  4  0
 11 24  1  0
 11 26  4  0
 12 25  1  0
 13 28  1  0
 14 20  4  0
 14 23  4  0
 15 17  4  0
 15 21  4  0
 16 19  4  0
 16 23  4  0
 17 22  4  0
 18 26  4  0
 19 24  4  0
 20 24  4  0
 22 27  4  0
 28 29  4  0
M  END
$$$$

 Created by Python create_sdf_string function

 29 33  0  0  0  0  0  0  0  0999 V2000
   10.7215   -3.3326   17.6437 C   0  0  0  0  0  0  0  0  0  0  0  0
    9.9489   -3.4675   24.6487 N   0  0  0  0  0  0  0  0  0  0  0  0
   10.0172   -4.4740   17.4101 C   0  0  0  0  0  0  0  0  0  0  0  0
    6.9051   -7.9575   16.4222 C   0  0  0  0  0  0  0  0  0  0  0  0
    8.9969   -6.3552   17.9668 N   0  0  0  0  0  0  0  0  0  0  0  0
   10.6702   -3.9051   22.4070 C   0  0  0  0  0  0  0  0  0  0  0  0
   11.0625   -3.0028   18.8894 C   0  0  0  0  0  0  0  0  0  0  0  0
    5.6180   -7.9194   16.1754 O   0  0  0  0  0  0  0  0  0  0  0  0
    9.7259   -5.3080   18.4485 C   0  0  0  0  0  0  0  0  0  0  0  0
    9.4578   -5.0200   16.3036 N   0  0  0  0  0  0  0  0  0  0  0  0
    5.0287   -8.9365   16.8223 C   0  0  0  0  0  0  0  0  0  0  0  0
    8.7742   -6.1498   16.6764 C   0  0  0  0  0  0  0  0  0  0  0  0
   10.9418   -3.4032   21.2053 O   0  0  0  0  0  0  0  0  0  0  0  0
    1.4797   -8.6258   16.2950 C   0  0  0  0  0  0  0  0  0  0  0  0
    9.2861   -1.2743   25.3585 C   0  0  0  0  0  0  0  0  0  0  0  0
    1.8892  -10.3985   17.7511 N   0  0  0  0  0  0  0  0  0  0  0  0
    9.6210   -0.6952   24.0976 C   0  0  0  0  0  0  0  0  0  0  0  0
    7.0792   -9.0217   17.1429 C   0  0  0  0  0  0  0  0  0  0  0  0
    3.1713  -10.1816   17.6634 C   0  0  0  0  0  0  0  0  0  0  0  0
    2.7878   -8.3822   16.2137 C   0  0  0  0  0  0  0  0  0  0  0  0
    9.4601   -2.6590   25.6528 C   0  0  0  0  0  0  0  0  0  0  0  0
   10.1182   -1.5672   23.1165 C   0  0  0  0  0  0  0  0  0  0  0  0
    1.0552   -9.6360   17.0650 C   0  0  0  0  0  0  0  0  0  0  0  0
    3.6519   -9.1783   16.9039 C   0  0  0  0  0  0  0  0  0  0  0  0
    7.8675   -7.0096   15.9415 C   0  0  0  0  0  0  0  0  0  0  0  0
    5.9733   -9.6553   17.3832 N   0  0  0  0  0  0  0  0  0  0  0  0
   10.2411   -2.9363   23.4301 C   0  0  0  0  0  0  0  0  0  0  0  0
   10.7288   -3.8197   19.9525 C   0  0  0  0  0  0  0  0  0  0  0  0
   10.1189   -5.0054   19.6987 C   0  0  0  0  0  0  0  0  0  0  0  0
  1  3  4  0
  1  7  4  0
  2 21  4  0
  2 27  4  0
  3  9  4  0
  3 10  4  0
  4  8  4  0
  4 18  4  0
  4 25  1  0
  5  9  4  0
  5 12  4  0
  6 13  1  0
  6 27  1  0
  7 28  4  0
  8 11  4  0
  9 29  4  0
 10 12  4  0
 11 24  1  0
 11 26  4  0
 12 25  1  0
 13 28  1  0
 14 20  4  0
 14 23  4  0
 15 17  4  0
 15 21  4  0
 16 19  4  0
 16 23  4  0
 17 22  4  0
 18 26  4  0
 19 24  4  0
 20 24  4  0
 22 27  4  0
 28 29  4  0
M  END
$$$$

 Created by Python create_sdf_string function

 29 33  0  0  0  0  0  0  0  0999 V2000
   10.7215   -3.3326   17.6437 C   0  0  0  0  0  0  0  0  0  0  0  0
    9.9489   -3.4675   24.6487 N   0  0  0  0  0  0  0  0  0  0  0  0
   10.0172   -4.4740   17.4101 C   0  0  0  0  0  0  0  0  0  0  0  0
    6.9051   -7.9575   16.4222 C   0  0  0  0  0  0  0  0  0  0  0  0
    8.9969   -6.3552   17.9668 N   0  0  0  0  0  0  0  0  0  0  0  0
   10.6702   -3.9051   22.4070 C   0  0  0  0  0  0  0  0  0  0  0  0
   11.0625   -3.0028   18.8894 C   0  0  0  0  0  0  0  0  0  0  0  0
    5.6180   -7.9194   16.1754 O   0  0  0  0  0  0  0  0  0  0  0  0
    9.7259   -5.3080   18.4485 C   0  0  0  0  0  0  0  0  0  0  0  0
    9.4578   -5.0200   16.3036 N   0  0  0  0  0  0  0  0  0  0  0  0
    5.0287   -8.9365   16.8223 C   0  0  0  0  0  0  0  0  0  0  0  0
    8.7742   -6.1498   16.6764 C   0  0  0  0  0  0  0  0  0  0  0  0
   10.9418   -3.4032   21.2053 O   0  0  0  0  0  0  0  0  0  0  0  0
    1.4797   -8.6258   16.2950 C   0  0  0  0  0  0  0  0  0  0  0  0
    9.2861   -1.2743   25.3585 C   0  0  0  0  0  0  0  0  0  0  0  0
    1.8892  -10.3985   17.7511 N   0  0  0  0  0  0  0  0  0  0  0  0
    9.6210   -0.6952   24.0976 C   0  0  0  0  0  0  0  0  0  0  0  0
    7.0792   -9.0217   17.1429 C   0  0  0  0  0  0  0  0  0  0  0  0
    3.1713  -10.1816   17.6634 C   0  0  0  0  0  0  0  0  0  0  0  0
    2.7878   -8.3822   16.2137 C   0  0  0  0  0  0  0  0  0  0  0  0
    9.4601   -2.6590   25.6528 C   0  0  0  0  0  0  0  0  0  0  0  0
   10.1182   -1.5672   23.1165 C   0  0  0  0  0  0  0  0  0  0  0  0
    1.0552   -9.6360   17.0650 C   0  0  0  0  0  0  0  0  0  0  0  0
    3.6519   -9.1783   16.9039 C   0  0  0  0  0  0  0  0  0  0  0  0
    7.8675   -7.0096   15.9415 C   0  0  0  0  0  0  0  0  0  0  0  0
    5.9733   -9.6553   17.3832 N   0  0  0  0  0  0  0  0  0  0  0  0
   10.2411   -2.9363   23.4301 C   0  0  0  0  0  0  0  0  0  0  0  0
   10.7288   -3.8197   19.9525 C   0  0  0  0  0  0  0  0  0  0  0  0
   10.1189   -5.0054   19.6987 C   0  0  0  0  0  0  0  0  0  0  0  0
  1  3  4  0
  1  7  4  0
  2 21  4  0
  2 27  4  0
  3  9  4  0
  3 10  4  0
  4  8  4  0
  4 18  4  0
  4 25  1  0
  5  9  4  0
  5 12  4  0
  6 13  1  0
  6 27  1  0
  7 28  4  0
  8 11  4  0
  9 29  4  0
 10 12  4  0
 11 24  1  0
 11 26  4  0
 12 25  1  0
 13 28  1  0
 14 20  4  0
 14 23  4  0
 15 17  4  0
 15 21  4  0
 16 19  4  0
 16 23  4  0
 17 22  4  0
 18 26  4  0
 19 24  4  0
 20 24  4  0
 22 27  4  0
 28 29  4  0
M  END
$$$$

 Created by Python create_sdf_string function

 29 33  0  0  0  0  0  0  0  0999 V2000
   10.7215   -3.3326   17.6437 C   0  0  0  0  0  0  0  0  0  0  0  0
    9.9489   -3.4675   24.6487 N   0  0  0  0  0  0  0  0  0  0  0  0
   10.0172   -4.4740   17.4101 C   0  0  0  0  0  0  0  0  0  0  0  0
    6.9051   -7.9575   16.4222 C   0  0  0  0  0  0  0  0  0  0  0  0
    8.9969   -6.3552   17.9668 N   0  0  0  0  0  0  0  0  0  0  0  0
   10.6702   -3.9051   22.4070 C   0  0  0  0  0  0  0  0  0  0  0  0
   11.0625   -3.0028   18.8894 C   0  0  0  0  0  0  0  0  0  0  0  0
    5.6180   -7.9194   16.1754 O   0  0  0  0  0  0  0  0  0  0  0  0
    9.7259   -5.3080   18.4485 C   0  0  0  0  0  0  0  0  0  0  0  0
    9.4578   -5.0200   16.3036 N   0  0  0  0  0  0  0  0  0  0  0  0
    5.0287   -8.9365   16.8223 C   0  0  0  0  0  0  0  0  0  0  0  0
    8.7742   -6.1498   16.6764 C   0  0  0  0  0  0  0  0  0  0  0  0
   10.9418   -3.4032   21.2053 O   0  0  0  0  0  0  0  0  0  0  0  0
    1.4797   -8.6258   16.2950 C   0  0  0  0  0  0  0  0  0  0  0  0
    9.2861   -1.2743   25.3585 C   0  0  0  0  0  0  0  0  0  0  0  0
    1.8892  -10.3985   17.7511 N   0  0  0  0  0  0  0  0  0  0  0  0
    9.6210   -0.6952   24.0976 C   0  0  0  0  0  0  0  0  0  0  0  0
    7.0792   -9.0217   17.1429 C   0  0  0  0  0  0  0  0  0  0  0  0
    3.1713  -10.1816   17.6634 C   0  0  0  0  0  0  0  0  0  0  0  0
    2.7878   -8.3822   16.2137 C   0  0  0  0  0  0  0  0  0  0  0  0
    9.4601   -2.6590   25.6528 C   0  0  0  0  0  0  0  0  0  0  0  0
   10.1182   -1.5672   23.1165 C   0  0  0  0  0  0  0  0  0  0  0  0
    1.0552   -9.6360   17.0650 C   0  0  0  0  0  0  0  0  0  0  0  0
    3.6519   -9.1783   16.9039 C   0  0  0  0  0  0  0  0  0  0  0  0
    7.8675   -7.0096   15.9415 C   0  0  0  0  0  0  0  0  0  0  0  0
    5.9733   -9.6553   17.3832 N   0  0  0  0  0  0  0  0  0  0  0  0
   10.2411   -2.9363   23.4301 C   0  0  0  0  0  0  0  0  0  0  0  0
   10.7288   -3.8197   19.9525 C   0  0  0  0  0  0  0  0  0  0  0  0
   10.1189   -5.0054   19.6987 C   0  0  0  0  0  0  0  0  0  0  0  0
  1  3  4  0
  1  7  4  0
  2 21  4  0
  2 27  4  0
  3  9  4  0
  3 10  4  0
  4  8  4  0
  4 18  4  0
  4 25  1  0
  5  9  4  0
  5 12  4  0
  6 13  1  0
  6 27  1  0
  7 28  4  0
  8 11  4  0
  9 29  4  0
 10 12  4  0
 11 24  1  0
 11 26  4  0
 12 25  1  0
 13 28  1  0
 14 20  4  0
 14 23  4  0
 15 17  4  0
 15 21  4  0
 16 19  4  0
 16 23  4  0
 17 22  4  0
 18 26  4  0
 19 24  4  0
 20 24  4  0
 22 27  4  0
 28 29  4  0
M  END
$$$$

 Created by Python create_sdf_string function

 29 33  0  0  0  0  0  0  0  0999 V2000
   10.7215   -3.3326   17.6437 C   0  0  0  0  0  0  0  0  0  0  0  0
    9.9489   -3.4675   24.6487 N   0  0  0  0  0  0  0  0  0  0  0  0
   10.0172   -4.4740   17.4101 C   0  0  0  0  0  0  0  0  0  0  0  0
    6.9051   -7.9575   16.4222 C   0  0  0  0  0  0  0  0  0  0  0  0
    8.9969   -6.3552   17.9668 N   0  0  0  0  0  0  0  0  0  0  0  0
   10.6702   -3.9051   22.4070 C   0  0  0  0  0  0  0  0  0  0  0  0
   11.0625   -3.0028   18.8894 C   0  0  0  0  0  0  0  0  0  0  0  0
    5.6180   -7.9194   16.1754 O   0  0  0  0  0  0  0  0  0  0  0  0
    9.7259   -5.3080   18.4485 C   0  0  0  0  0  0  0  0  0  0  0  0
    9.4578   -5.0200   16.3036 N   0  0  0  0  0  0  0  0  0  0  0  0
    5.0287   -8.9365   16.8223 C   0  0  0  0  0  0  0  0  0  0  0  0
    8.7742   -6.1498   16.6764 C   0  0  0  0  0  0  0  0  0  0  0  0
   10.9418   -3.4032   21.2053 O   0  0  0  0  0  0  0  0  0  0  0  0
    1.4797   -8.6258   16.2950 C   0  0  0  0  0  0  0  0  0  0  0  0
    9.2861   -1.2743   25.3585 C   0  0  0  0  0  0  0  0  0  0  0  0
    1.8892  -10.3985   17.7511 N   0  0  0  0  0  0  0  0  0  0  0  0
    9.6210   -0.6952   24.0976 C   0  0  0  0  0  0  0  0  0  0  0  0
    7.0792   -9.0217   17.1429 C   0  0  0  0  0  0  0  0  0  0  0  0
    3.1713  -10.1816   17.6634 C   0  0  0  0  0  0  0  0  0  0  0  0
    2.7878   -8.3822   16.2137 C   0  0  0  0  0  0  0  0  0  0  0  0
    9.4601   -2.6590   25.6528 C   0  0  0  0  0  0  0  0  0  0  0  0
   10.1182   -1.5672   23.1165 C   0  0  0  0  0  0  0  0  0  0  0  0
    1.0552   -9.6360   17.0650 C   0  0  0  0  0  0  0  0  0  0  0  0
    3.6519   -9.1783   16.9039 C   0  0  0  0  0  0  0  0  0  0  0  0
    7.8675   -7.0096   15.9415 C   0  0  0  0  0  0  0  0  0  0  0  0
    5.9733   -9.6553   17.3832 N   0  0  0  0  0  0  0  0  0  0  0  0
   10.2411   -2.9363   23.4301 C   0  0  0  0  0  0  0  0  0  0  0  0
   10.7288   -3.8197   19.9525 C   0  0  0  0  0  0  0  0  0  0  0  0
   10.1189   -5.0054   19.6987 C   0  0  0  0  0  0  0  0  0  0  0  0
  1  3  4  0
  1  7  4  0
  2 21  4  0
  2 27  4  0
  3  9  4  0
  3 10  4  0
  4  8  4  0
  4 18  4  0
  4 25  1  0
  5  9  4  0
  5 12  4  0
  6 13  1  0
  6 27  1  0
  7 28  4  0
  8 11  4  0
  9 29  4  0
 10 12  4  0
 11 24  1  0
 11 26  4  0
 12 25  1  0
 13 28  1  0
 14 20  4  0
 14 23  4  0
 15 17  4  0
 15 21  4  0
 16 19  4  0
 16 23  4  0
 17 22  4  0
 18 26  4  0
 19 24  4  0
 20 24  4  0
 22 27  4  0
 28 29  4  0
M  END
$$$$

 Created by Python create_sdf_string function

 29 33  0  0  0  0  0  0  0  0999 V2000
   10.7215   -3.3326   17.6437 C   0  0  0  0  0  0  0  0  0  0  0  0
    9.9489   -3.4675   24.6487 N   0  0  0  0  0  0  0  0  0  0  0  0
   10.0172   -4.4740   17.4101 C   0  0  0  0  0  0  0  0  0  0  0  0
    6.9051   -7.9575   16.4222 C   0  0  0  0  0  0  0  0  0  0  0  0
    8.9969   -6.3552   17.9668 N   0  0  0  0  0  0  0  0  0  0  0  0
   10.6702   -3.9051   22.4070 C   0  0  0  0  0  0  0  0  0  0  0  0
   11.0625   -3.0028   18.8894 C   0  0  0  0  0  0  0  0  0  0  0  0
    5.6180   -7.9194   16.1754 O   0  0  0  0  0  0  0  0  0  0  0  0
    9.7259   -5.3080   18.4485 C   0  0  0  0  0  0  0  0  0  0  0  0
    9.4578   -5.0200   16.3036 N   0  0  0  0  0  0  0  0  0  0  0  0
    5.0287   -8.9365   16.8223 C   0  0  0  0  0  0  0  0  0  0  0  0
    8.7742   -6.1498   16.6764 C   0  0  0  0  0  0  0  0  0  0  0  0
   10.9418   -3.4032   21.2053 O   0  0  0  0  0  0  0  0  0  0  0  0
    1.4797   -8.6258   16.2950 C   0  0  0  0  0  0  0  0  0  0  0  0
    9.2861   -1.2743   25.3585 C   0  0  0  0  0  0  0  0  0  0  0  0
    1.8892  -10.3985   17.7511 N   0  0  0  0  0  0  0  0  0  0  0  0
    9.6210   -0.6952   24.0976 C   0  0  0  0  0  0  0  0  0  0  0  0
    7.0792   -9.0217   17.1429 C   0  0  0  0  0  0  0  0  0  0  0  0
    3.1713  -10.1816   17.6634 C   0  0  0  0  0  0  0  0  0  0  0  0
    2.7878   -8.3822   16.2137 C   0  0  0  0  0  0  0  0  0  0  0  0
    9.4601   -2.6590   25.6528 C   0  0  0  0  0  0  0  0  0  0  0  0
   10.1182   -1.5672   23.1165 C   0  0  0  0  0  0  0  0  0  0  0  0
    1.0552   -9.6360   17.0650 C   0  0  0  0  0  0  0  0  0  0  0  0
    3.6519   -9.1783   16.9039 C   0  0  0  0  0  0  0  0  0  0  0  0
    7.8675   -7.0096   15.9415 C   0  0  0  0  0  0  0  0  0  0  0  0
    5.9733   -9.6553   17.3832 N   0  0  0  0  0  0  0  0  0  0  0  0
   10.2411   -2.9363   23.4301 C   0  0  0  0  0  0  0  0  0  0  0  0
   10.7288   -3.8197   19.9525 C   0  0  0  0  0  0  0  0  0  0  0  0
   10.1189   -5.0054   19.6987 C   0  0  0  0  0  0  0  0  0  0  0  0
  1  3  4  0
  1  7  4  0
  2 21  4  0
  2 27  4  0
  3  9  4  0
  3 10  4  0
  4  8  4  0
  4 18  4  0
  4 25  1  0
  5  9  4  0
  5 12  4  0
  6 13  1  0
  6 27  1  0
  7 28  4  0
  8 11  4  0
  9 29  4  0
 10 12  4  0
 11 24  1  0
 11 26  4  0
 12 25  1  0
 13 28  1  0
 14 20  4  0
 14 23  4  0
 15 17  4  0
 15 21  4  0
 16 19  4  0
 16 23  4  0
 17 22  4  0
 18 26  4  0
 19 24  4  0
 20 24  4  0
 22 27  4  0
 28 29  4  0
M  END
$$$$

 Created by Python create_sdf_string function

 29 33  0  0  0  0  0  0  0  0999 V2000
   10.7215   -3.3326   17.6437 C   0  0  0  0  0  0  0  0  0  0  0  0
    9.9489   -3.4675   24.6487 N   0  0  0  0  0  0  0  0  0  0  0  0
   10.0172   -4.4740   17.4101 C   0  0  0  0  0  0  0  0  0  0  0  0
    6.9051   -7.9575   16.4222 C   0  0  0  0  0  0  0  0  0  0  0  0
    8.9969   -6.3552   17.9668 N   0  0  0  0  0  0  0  0  0  0  0  0
   10.6702   -3.9051   22.4070 C   0  0  0  0  0  0  0  0  0  0  0  0
   11.0625   -3.0028   18.8894 C   0  0  0  0  0  0  0  0  0  0  0  0
    5.6180   -7.9194   16.1754 O   0  0  0  0  0  0  0  0  0  0  0  0
    9.7259   -5.3080   18.4485 C   0  0  0  0  0  0  0  0  0  0  0  0
    9.4578   -5.0200   16.3036 N   0  0  0  0  0  0  0  0  0  0  0  0
    5.0287   -8.9365   16.8223 C   0  0  0  0  0  0  0  0  0  0  0  0
    8.7742   -6.1498   16.6764 C   0  0  0  0  0  0  0  0  0  0  0  0
   10.9418   -3.4032   21.2053 O   0  0  0  0  0  0  0  0  0  0  0  0
    1.4797   -8.6258   16.2950 C   0  0  0  0  0  0  0  0  0  0  0  0
    9.2861   -1.2743   25.3585 C   0  0  0  0  0  0  0  0  0  0  0  0
    1.8892  -10.3985   17.7511 N   0  0  0  0  0  0  0  0  0  0  0  0
    9.6210   -0.6952   24.0976 C   0  0  0  0  0  0  0  0  0  0  0  0
    7.0792   -9.0217   17.1429 C   0  0  0  0  0  0  0  0  0  0  0  0
    3.1713  -10.1816   17.6634 C   0  0  0  0  0  0  0  0  0  0  0  0
    2.7878   -8.3822   16.2137 C   0  0  0  0  0  0  0  0  0  0  0  0
    9.4601   -2.6590   25.6528 C   0  0  0  0  0  0  0  0  0  0  0  0
   10.1182   -1.5672   23.1165 C   0  0  0  0  0  0  0  0  0  0  0  0
    1.0552   -9.6360   17.0650 C   0  0  0  0  0  0  0  0  0  0  0  0
    3.6519   -9.1783   16.9039 C   0  0  0  0  0  0  0  0  0  0  0  0
    7.8675   -7.0096   15.9415 C   0  0  0  0  0  0  0  0  0  0  0  0
    5.9733   -9.6553   17.3832 N   0  0  0  0  0  0  0  0  0  0  0  0
   10.2411   -2.9363   23.4301 C   0  0  0  0  0  0  0  0  0  0  0  0
   10.7288   -3.8197   19.9525 C   0  0  0  0  0  0  0  0  0  0  0  0
   10.1189   -5.0054   19.6987 C   0  0  0  0  0  0  0  0  0  0  0  0
  1  3  4  0
  1  7  4  0
  2 21  4  0
  2 27  4  0
  3  9  4  0
  3 10  4  0
  4  8  4  0
  4 18  4  0
  4 25  1  0
  5  9  4  0
  5 12  4  0
  6 13  1  0
  6 27  1  0
  7 28  4  0
  8 11  4  0
  9 29  4  0
 10 12  4  0
 11 24  1  0
 11 26  4  0
 12 25  1  0
 13 28  1  0
 14 20  4  0
 14 23  4  0
 15 17  4  0
 15 21  4  0
 16 19  4  0
 16 23  4  0
 17 22  4  0
 18 26  4  0
 19 24  4  0
 20 24  4  0
 22 27  4  0
 28 29  4  0
M  END
$$$$

 Created by Python create_sdf_string function

 29 33  0  0  0  0  0  0  0  0999 V2000
   10.7215   -3.3326   17.6437 C   0  0  0  0  0  0  0  0  0  0  0  0
    9.9489   -3.4675   24.6487 N   0  0  0  0  0  0  0  0  0  0  0  0
   10.0172   -4.4740   17.4101 C   0  0  0  0  0  0  0  0  0  0  0  0
    6.9051   -7.9575   16.4222 C   0  0  0  0  0  0  0  0  0  0  0  0
    8.9969   -6.3552   17.9668 N   0  0  0  0  0  0  0  0  0  0  0  0
   10.6702   -3.9051   22.4070 C   0  0  0  0  0  0  0  0  0  0  0  0
   11.0625   -3.0028   18.8894 C   0  0  0  0  0  0  0  0  0  0  0  0
    5.6180   -7.9194   16.1754 O   0  0  0  0  0  0  0  0  0  0  0  0
    9.7259   -5.3080   18.4485 C   0  0  0  0  0  0  0  0  0  0  0  0
    9.4578   -5.0200   16.3036 N   0  0  0  0  0  0  0  0  0  0  0  0
    5.0287   -8.9365   16.8223 C   0  0  0  0  0  0  0  0  0  0  0  0
    8.7742   -6.1498   16.6764 C   0  0  0  0  0  0  0  0  0  0  0  0
   10.9418   -3.4032   21.2053 O   0  0  0  0  0  0  0  0  0  0  0  0
    1.4797   -8.6258   16.2950 C   0  0  0  0  0  0  0  0  0  0  0  0
    9.2861   -1.2743   25.3585 C   0  0  0  0  0  0  0  0  0  0  0  0
    1.8892  -10.3985   17.7511 N   0  0  0  0  0  0  0  0  0  0  0  0
    9.6210   -0.6952   24.0976 C   0  0  0  0  0  0  0  0  0  0  0  0
    7.0792   -9.0217   17.1429 C   0  0  0  0  0  0  0  0  0  0  0  0
    3.1713  -10.1816   17.6634 C   0  0  0  0  0  0  0  0  0  0  0  0
    2.7878   -8.3822   16.2137 C   0  0  0  0  0  0  0  0  0  0  0  0
    9.4601   -2.6590   25.6528 C   0  0  0  0  0  0  0  0  0  0  0  0
   10.1182   -1.5672   23.1165 C   0  0  0  0  0  0  0  0  0  0  0  0
    1.0552   -9.6360   17.0650 C   0  0  0  0  0  0  0  0  0  0  0  0
    3.6519   -9.1783   16.9039 C   0  0  0  0  0  0  0  0  0  0  0  0
    7.8675   -7.0096   15.9415 C   0  0  0  0  0  0  0  0  0  0  0  0
    5.9733   -9.6553   17.3832 N   0  0  0  0  0  0  0  0  0  0  0  0
   10.2411   -2.9363   23.4301 C   0  0  0  0  0  0  0  0  0  0  0  0
   10.7288   -3.8197   19.9525 C   0  0  0  0  0  0  0  0  0  0  0  0
   10.1189   -5.0054   19.6987 C   0  0  0  0  0  0  0  0  0  0  0  0
  1  3  4  0
  1  7  4  0
  2 21  4  0
  2 27  4  0
  3  9  4  0
  3 10  4  0
  4  8  4  0
  4 18  4  0
  4 25  1  0
  5  9  4  0
  5 12  4  0
  6 13  1  0
  6 27  1  0
  7 28  4  0
  8 11  4  0
  9 29  4  0
 10 12  4  0
 11 24  1  0
 11 26  4  0
 12 25  1  0
 13 28  1  0
 14 20  4  0
 14 23  4  0
 15 17  4  0
 15 21  4  0
 16 19  4  0
 16 23  4  0
 17 22  4  0
 18 26  4  0
 19 24  4  0
 20 24  4  0
 22 27  4  0
 28 29  4  0
M  END
$$$$

 Created by Python create_sdf_string function

 29 33  0  0  0  0  0  0  0  0999 V2000
   10.7215   -3.3326   17.6437 C   0  0  0  0  0  0  0  0  0  0  0  0
    9.9489   -3.4675   24.6487 N   0  0  0  0  0  0  0  0  0  0  0  0
   10.0172   -4.4740   17.4101 C   0  0  0  0  0  0  0  0  0  0  0  0
    6.9051   -7.9575   16.4222 C   0  0  0  0  0  0  0  0  0  0  0  0
    8.9969   -6.3552   17.9668 N   0  0  0  0  0  0  0  0  0  0  0  0
   10.6702   -3.9051   22.4070 C   0  0  0  0  0  0  0  0  0  0  0  0
   11.0625   -3.0028   18.8894 C   0  0  0  0  0  0  0  0  0  0  0  0
    5.6180   -7.9194   16.1754 O   0  0  0  0  0  0  0  0  0  0  0  0
    9.7259   -5.3080   18.4485 C   0  0  0  0  0  0  0  0  0  0  0  0
    9.4578   -5.0200   16.3036 N   0  0  0  0  0  0  0  0  0  0  0  0
    5.0287   -8.9365   16.8223 C   0  0  0  0  0  0  0  0  0  0  0  0
    8.7742   -6.1498   16.6764 C   0  0  0  0  0  0  0  0  0  0  0  0
   10.9418   -3.4032   21.2053 O   0  0  0  0  0  0  0  0  0  0  0  0
    1.4797   -8.6258   16.2950 C   0  0  0  0  0  0  0  0  0  0  0  0
    9.2861   -1.2743   25.3585 C   0  0  0  0  0  0  0  0  0  0  0  0
    1.8892  -10.3985   17.7511 N   0  0  0  0  0  0  0  0  0  0  0  0
    9.6210   -0.6952   24.0976 C   0  0  0  0  0  0  0  0  0  0  0  0
    7.0792   -9.0217   17.1429 C   0  0  0  0  0  0  0  0  0  0  0  0
    3.1713  -10.1816   17.6634 C   0  0  0  0  0  0  0  0  0  0  0  0
    2.7878   -8.3822   16.2137 C   0  0  0  0  0  0  0  0  0  0  0  0
    9.4601   -2.6590   25.6528 C   0  0  0  0  0  0  0  0  0  0  0  0
   10.1182   -1.5672   23.1165 C   0  0  0  0  0  0  0  0  0  0  0  0
    1.0552   -9.6360   17.0650 C   0  0  0  0  0  0  0  0  0  0  0  0
    3.6519   -9.1783   16.9039 C   0  0  0  0  0  0  0  0  0  0  0  0
    7.8675   -7.0096   15.9415 C   0  0  0  0  0  0  0  0  0  0  0  0
    5.9733   -9.6553   17.3832 N   0  0  0  0  0  0  0  0  0  0  0  0
   10.2411   -2.9363   23.4301 C   0  0  0  0  0  0  0  0  0  0  0  0
   10.7288   -3.8197   19.9525 C   0  0  0  0  0  0  0  0  0  0  0  0
   10.1189   -5.0054   19.6987 C   0  0  0  0  0  0  0  0  0  0  0  0
  1  3  4  0
  1  7  4  0
  2 21  4  0
  2 27  4  0
  3  9  4  0
  3 10  4  0
  4  8  4  0
  4 18  4  0
  4 25  1  0
  5  9  4  0
  5 12  4  0
  6 13  1  0
  6 27  1  0
  7 28  4  0
  8 11  4  0
  9 29  4  0
 10 12  4  0
 11 24  1  0
 11 26  4  0
 12 25  1  0
 13 28  1  0
 14 20  4  0
 14 23  4  0
 15 17  4  0
 15 21  4  0
 16 19  4  0
 16 23  4  0
 17 22  4  0
 18 26  4  0
 19 24  4  0
 20 24  4  0
 22 27  4  0
 28 29  4  0
M  END
$$$$

 Created by Python create_sdf_string function

 29 33  0  0  0  0  0  0  0  0999 V2000
   10.7215   -3.3326   17.6437 C   0  0  0  0  0  0  0  0  0  0  0  0
    9.9489   -3.4675   24.6487 N   0  0  0  0  0  0  0  0  0  0  0  0
   10.0172   -4.4740   17.4101 C   0  0  0  0  0  0  0  0  0  0  0  0
    6.9051   -7.9575   16.4222 C   0  0  0  0  0  0  0  0  0  0  0  0
    8.9969   -6.3552   17.9668 N   0  0  0  0  0  0  0  0  0  0  0  0
   10.6702   -3.9051   22.4070 C   0  0  0  0  0  0  0  0  0  0  0  0
   11.0625   -3.0028   18.8894 C   0  0  0  0  0  0  0  0  0  0  0  0
    5.6180   -7.9194   16.1754 O   0  0  0  0  0  0  0  0  0  0  0  0
    9.7259   -5.3080   18.4485 C   0  0  0  0  0  0  0  0  0  0  0  0
    9.4578   -5.0200   16.3036 N   0  0  0  0  0  0  0  0  0  0  0  0
    5.0287   -8.9365   16.8223 C   0  0  0  0  0  0  0  0  0  0  0  0
    8.7742   -6.1498   16.6764 C   0  0  0  0  0  0  0  0  0  0  0  0
   10.9418   -3.4032   21.2053 O   0  0  0  0  0  0  0  0  0  0  0  0
    1.4797   -8.6258   16.2950 C   0  0  0  0  0  0  0  0  0  0  0  0
    9.2861   -1.2743   25.3585 C   0  0  0  0  0  0  0  0  0  0  0  0
    1.8892  -10.3985   17.7511 N   0  0  0  0  0  0  0  0  0  0  0  0
    9.6210   -0.6952   24.0976 C   0  0  0  0  0  0  0  0  0  0  0  0
    7.0792   -9.0217   17.1429 C   0  0  0  0  0  0  0  0  0  0  0  0
    3.1713  -10.1816   17.6634 C   0  0  0  0  0  0  0  0  0  0  0  0
    2.7878   -8.3822   16.2137 C   0  0  0  0  0  0  0  0  0  0  0  0
    9.4601   -2.6590   25.6528 C   0  0  0  0  0  0  0  0  0  0  0  0
   10.1182   -1.5672   23.1165 C   0  0  0  0  0  0  0  0  0  0  0  0
    1.0552   -9.6360   17.0650 C   0  0  0  0  0  0  0  0  0  0  0  0
    3.6519   -9.1783   16.9039 C   0  0  0  0  0  0  0  0  0  0  0  0
    7.8675   -7.0096   15.9415 C   0  0  0  0  0  0  0  0  0  0  0  0
    5.9733   -9.6553   17.3832 N   0  0  0  0  0  0  0  0  0  0  0  0
   10.2411   -2.9363   23.4301 C   0  0  0  0  0  0  0  0  0  0  0  0
   10.7288   -3.8197   19.9525 C   0  0  0  0  0  0  0  0  0  0  0  0
   10.1189   -5.0054   19.6987 C   0  0  0  0  0  0  0  0  0  0  0  0
  1  3  4  0
  1  7  4  0
  2 21  4  0
  2 27  4  0
  3  9  4  0
  3 10  4  0
  4  8  4  0
  4 18  4  0
  4 25  1  0
  5  9  4  0
  5 12  4  0
  6 13  1  0
  6 27  1  0
  7 28  4  0
  8 11  4  0
  9 29  4  0
 10 12  4  0
 11 24  1  0
 11 26  4  0
 12 25  1  0
 13 28  1  0
 14 20  4  0
 14 23  4  0
 15 17  4  0
 15 21  4  0
 16 19  4  0
 16 23  4  0
 17 22  4  0
 18 26  4  0
 19 24  4  0
 20 24  4  0
 22 27  4  0
 28 29  4  0
M  END
$$$$

 Created by Python create_sdf_string function

 29 33  0  0  0  0  0  0  0  0999 V2000
   10.7215   -3.3326   17.6437 C   0  0  0  0  0  0  0  0  0  0  0  0
    9.9489   -3.4675   24.6487 N   0  0  0  0  0  0  0  0  0  0  0  0
   10.0172   -4.4740   17.4101 C   0  0  0  0  0  0  0  0  0  0  0  0
    6.9051   -7.9575   16.4222 C   0  0  0  0  0  0  0  0  0  0  0  0
    8.9969   -6.3552   17.9668 N   0  0  0  0  0  0  0  0  0  0  0  0
   10.6702   -3.9051   22.4070 C   0  0  0  0  0  0  0  0  0  0  0  0
   11.0625   -3.0028   18.8894 C   0  0  0  0  0  0  0  0  0  0  0  0
    5.6180   -7.9194   16.1754 O   0  0  0  0  0  0  0  0  0  0  0  0
    9.7259   -5.3080   18.4485 C   0  0  0  0  0  0  0  0  0  0  0  0
    9.4578   -5.0200   16.3036 N   0  0  0  0  0  0  0  0  0  0  0  0
    5.0287   -8.9365   16.8223 C   0  0  0  0  0  0  0  0  0  0  0  0
    8.7742   -6.1498   16.6764 C   0  0  0  0  0  0  0  0  0  0  0  0
   10.9418   -3.4032   21.2053 O   0  0  0  0  0  0  0  0  0  0  0  0
    1.4797   -8.6258   16.2950 C   0  0  0  0  0  0  0  0  0  0  0  0
    9.2861   -1.2743   25.3585 C   0  0  0  0  0  0  0  0  0  0  0  0
    1.8892  -10.3985   17.7511 N   0  0  0  0  0  0  0  0  0  0  0  0
    9.6210   -0.6952   24.0976 C   0  0  0  0  0  0  0  0  0  0  0  0
    7.0792   -9.0217   17.1429 C   0  0  0  0  0  0  0  0  0  0  0  0
    3.1713  -10.1816   17.6634 C   0  0  0  0  0  0  0  0  0  0  0  0
    2.7878   -8.3822   16.2137 C   0  0  0  0  0  0  0  0  0  0  0  0
    9.4601   -2.6590   25.6528 C   0  0  0  0  0  0  0  0  0  0  0  0
   10.1182   -1.5672   23.1165 C   0  0  0  0  0  0  0  0  0  0  0  0
    1.0552   -9.6360   17.0650 C   0  0  0  0  0  0  0  0  0  0  0  0
    3.6519   -9.1783   16.9039 C   0  0  0  0  0  0  0  0  0  0  0  0
    7.8675   -7.0096   15.9415 C   0  0  0  0  0  0  0  0  0  0  0  0
    5.9733   -9.6553   17.3832 N   0  0  0  0  0  0  0  0  0  0  0  0
   10.2411   -2.9363   23.4301 C   0  0  0  0  0  0  0  0  0  0  0  0
   10.7288   -3.8197   19.9525 C   0  0  0  0  0  0  0  0  0  0  0  0
   10.1189   -5.0054   19.6987 C   0  0  0  0  0  0  0  0  0  0  0  0
  1  3  4  0
  1  7  4  0
  2 21  4  0
  2 27  4  0
  3  9  4  0
  3 10  4  0
  4  8  4  0
  4 18  4  0
  4 25  1  0
  5  9  4  0
  5 12  4  0
  6 13  1  0
  6 27  1  0
  7 28  4  0
  8 11  4  0
  9 29  4  0
 10 12  4  0
 11 24  1  0
 11 26  4  0
 12 25  1  0
 13 28  1  0
 14 20  4  0
 14 23  4  0
 15 17  4  0
 15 21  4  0
 16 19  4  0
 16 23  4  0
 17 22  4  0
 18 26  4  0
 19 24  4  0
 20 24  4  0
 22 27  4  0
 28 29  4  0
M  END
$$$$

 Created by Python create_sdf_string function

 29 33  0  0  0  0  0  0  0  0999 V2000
   10.7215   -3.3326   17.6437 C   0  0  0  0  0  0  0  0  0  0  0  0
    9.9489   -3.4675   24.6487 N   0  0  0  0  0  0  0  0  0  0  0  0
   10.0172   -4.4740   17.4101 C   0  0  0  0  0  0  0  0  0  0  0  0
    6.9051   -7.9575   16.4222 C   0  0  0  0  0  0  0  0  0  0  0  0
    8.9969   -6.3552   17.9668 N   0  0  0  0  0  0  0  0  0  0  0  0
   10.6702   -3.9051   22.4070 C   0  0  0  0  0  0  0  0  0  0  0  0
   11.0625   -3.0028   18.8894 C   0  0  0  0  0  0  0  0  0  0  0  0
    5.6180   -7.9194   16.1754 O   0  0  0  0  0  0  0  0  0  0  0  0
    9.7259   -5.3080   18.4485 C   0  0  0  0  0  0  0  0  0  0  0  0
    9.4578   -5.0200   16.3036 N   0  0  0  0  0  0  0  0  0  0  0  0
    5.0287   -8.9365   16.8223 C   0  0  0  0  0  0  0  0  0  0  0  0
    8.7742   -6.1498   16.6764 C   0  0  0  0  0  0  0  0  0  0  0  0
   10.9418   -3.4032   21.2053 O   0  0  0  0  0  0  0  0  0  0  0  0
    1.4797   -8.6258   16.2950 C   0  0  0  0  0  0  0  0  0  0  0  0
    9.2861   -1.2743   25.3585 C   0  0  0  0  0  0  0  0  0  0  0  0
    1.8892  -10.3985   17.7511 N   0  0  0  0  0  0  0  0  0  0  0  0
    9.6210   -0.6952   24.0976 C   0  0  0  0  0  0  0  0  0  0  0  0
    7.0792   -9.0217   17.1429 C   0  0  0  0  0  0  0  0  0  0  0  0
    3.1713  -10.1816   17.6634 C   0  0  0  0  0  0  0  0  0  0  0  0
    2.7878   -8.3822   16.2137 C   0  0  0  0  0  0  0  0  0  0  0  0
    9.4601   -2.6590   25.6528 C   0  0  0  0  0  0  0  0  0  0  0  0
   10.1182   -1.5672   23.1165 C   0  0  0  0  0  0  0  0  0  0  0  0
    1.0552   -9.6360   17.0650 C   0  0  0  0  0  0  0  0  0  0  0  0
    3.6519   -9.1783   16.9039 C   0  0  0  0  0  0  0  0  0  0  0  0
    7.8675   -7.0096   15.9415 C   0  0  0  0  0  0  0  0  0  0  0  0
    5.9733   -9.6553   17.3832 N   0  0  0  0  0  0  0  0  0  0  0  0
   10.2411   -2.9363   23.4301 C   0  0  0  0  0  0  0  0  0  0  0  0
   10.7288   -3.8197   19.9525 C   0  0  0  0  0  0  0  0  0  0  0  0
   10.1189   -5.0054   19.6987 C   0  0  0  0  0  0  0  0  0  0  0  0
  1  3  4  0
  1  7  4  0
  2 21  4  0
  2 27  4  0
  3  9  4  0
  3 10  4  0
  4  8  4  0
  4 18  4  0
  4 25  1  0
  5  9  4  0
  5 12  4  0
  6 13  1  0
  6 27  1  0
  7 28  4  0
  8 11  4  0
  9 29  4  0
 10 12  4  0
 11 24  1  0
 11 26  4  0
 12 25  1  0
 13 28  1  0
 14 20  4  0
 14 23  4  0
 15 17  4  0
 15 21  4  0
 16 19  4  0
 16 23  4  0
 17 22  4  0
 18 26  4  0
 19 24  4  0
 20 24  4  0
 22 27  4  0
 28 29  4  0
M  END
$$$$

 Created by Python create_sdf_string function

 29 33  0  0  0  0  0  0  0  0999 V2000
   10.7215   -3.3326   17.6437 C   0  0  0  0  0  0  0  0  0  0  0  0
    9.9489   -3.4675   24.6487 N   0  0  0  0  0  0  0  0  0  0  0  0
   10.0172   -4.4740   17.4101 C   0  0  0  0  0  0  0  0  0  0  0  0
    6.9051   -7.9575   16.4222 C   0  0  0  0  0  0  0  0  0  0  0  0
    8.9969   -6.3552   17.9668 N   0  0  0  0  0  0  0  0  0  0  0  0
   10.6702   -3.9051   22.4070 C   0  0  0  0  0  0  0  0  0  0  0  0
   11.0625   -3.0028   18.8894 C   0  0  0  0  0  0  0  0  0  0  0  0
    5.6180   -7.9194   16.1754 O   0  0  0  0  0  0  0  0  0  0  0  0
    9.7259   -5.3080   18.4485 C   0  0  0  0  0  0  0  0  0  0  0  0
    9.4578   -5.0200   16.3036 N   0  0  0  0  0  0  0  0  0  0  0  0
    5.0287   -8.9365   16.8223 C   0  0  0  0  0  0  0  0  0  0  0  0
    8.7742   -6.1498   16.6764 C   0  0  0  0  0  0  0  0  0  0  0  0
   10.9418   -3.4032   21.2053 O   0  0  0  0  0  0  0  0  0  0  0  0
    1.4797   -8.6258   16.2950 C   0  0  0  0  0  0  0  0  0  0  0  0
    9.2861   -1.2743   25.3585 C   0  0  0  0  0  0  0  0  0  0  0  0
    1.8892  -10.3985   17.7511 N   0  0  0  0  0  0  0  0  0  0  0  0
    9.6210   -0.6952   24.0976 C   0  0  0  0  0  0  0  0  0  0  0  0
    7.0792   -9.0217   17.1429 C   0  0  0  0  0  0  0  0  0  0  0  0
    3.1713  -10.1816   17.6634 C   0  0  0  0  0  0  0  0  0  0  0  0
    2.7878   -8.3822   16.2137 C   0  0  0  0  0  0  0  0  0  0  0  0
    9.4601   -2.6590   25.6528 C   0  0  0  0  0  0  0  0  0  0  0  0
   10.1182   -1.5672   23.1165 C   0  0  0  0  0  0  0  0  0  0  0  0
    1.0552   -9.6360   17.0650 C   0  0  0  0  0  0  0  0  0  0  0  0
    3.6519   -9.1783   16.9039 C   0  0  0  0  0  0  0  0  0  0  0  0
    7.8675   -7.0096   15.9415 C   0  0  0  0  0  0  0  0  0  0  0  0
    5.9733   -9.6553   17.3832 N   0  0  0  0  0  0  0  0  0  0  0  0
   10.2411   -2.9363   23.4301 C   0  0  0  0  0  0  0  0  0  0  0  0
   10.7288   -3.8197   19.9525 C   0  0  0  0  0  0  0  0  0  0  0  0
   10.1189   -5.0054   19.6987 C   0  0  0  0  0  0  0  0  0  0  0  0
  1  3  4  0
  1  7  4  0
  2 21  4  0
  2 27  4  0
  3  9  4  0
  3 10  4  0
  4  8  4  0
  4 18  4  0
  4 25  1  0
  5  9  4  0
  5 12  4  0
  6 13  1  0
  6 27  1  0
  7 28  4  0
  8 11  4  0
  9 29  4  0
 10 12  4  0
 11 24  1  0
 11 26  4  0
 12 25  1  0
 13 28  1  0
 14 20  4  0
 14 23  4  0
 15 17  4  0
 15 21  4  0
 16 19  4  0
 16 23  4  0
 17 22  4  0
 18 26  4  0
 19 24  4  0
 20 24  4  0
 22 27  4  0
 28 29  4  0
M  END
$$$$

 Created by Python create_sdf_string function

 29 33  0  0  0  0  0  0  0  0999 V2000
   10.7215   -3.3326   17.6437 C   0  0  0  0  0  0  0  0  0  0  0  0
    9.9489   -3.4675   24.6487 N   0  0  0  0  0  0  0  0  0  0  0  0
   10.0172   -4.4740   17.4101 C   0  0  0  0  0  0  0  0  0  0  0  0
    6.9051   -7.9575   16.4222 C   0  0  0  0  0  0  0  0  0  0  0  0
    8.9969   -6.3552   17.9668 N   0  0  0  0  0  0  0  0  0  0  0  0
   10.6702   -3.9051   22.4070 C   0  0  0  0  0  0  0  0  0  0  0  0
   11.0625   -3.0028   18.8894 C   0  0  0  0  0  0  0  0  0  0  0  0
    5.6180   -7.9194   16.1754 O   0  0  0  0  0  0  0  0  0  0  0  0
    9.7259   -5.3080   18.4485 C   0  0  0  0  0  0  0  0  0  0  0  0
    9.4578   -5.0200   16.3036 N   0  0  0  0  0  0  0  0  0  0  0  0
    5.0287   -8.9365   16.8223 C   0  0  0  0  0  0  0  0  0  0  0  0
    8.7742   -6.1498   16.6764 C   0  0  0  0  0  0  0  0  0  0  0  0
   10.9418   -3.4032   21.2053 O   0  0  0  0  0  0  0  0  0  0  0  0
    1.4797   -8.6258   16.2950 C   0  0  0  0  0  0  0  0  0  0  0  0
    9.2861   -1.2743   25.3585 C   0  0  0  0  0  0  0  0  0  0  0  0
    1.8892  -10.3985   17.7511 N   0  0  0  0  0  0  0  0  0  0  0  0
    9.6210   -0.6952   24.0976 C   0  0  0  0  0  0  0  0  0  0  0  0
    7.0792   -9.0217   17.1429 C   0  0  0  0  0  0  0  0  0  0  0  0
    3.1713  -10.1816   17.6634 C   0  0  0  0  0  0  0  0  0  0  0  0
    2.7878   -8.3822   16.2137 C   0  0  0  0  0  0  0  0  0  0  0  0
    9.4601   -2.6590   25.6528 C   0  0  0  0  0  0  0  0  0  0  0  0
   10.1182   -1.5672   23.1165 C   0  0  0  0  0  0  0  0  0  0  0  0
    1.0552   -9.6360   17.0650 C   0  0  0  0  0  0  0  0  0  0  0  0
    3.6519   -9.1783   16.9039 C   0  0  0  0  0  0  0  0  0  0  0  0
    7.8675   -7.0096   15.9415 C   0  0  0  0  0  0  0  0  0  0  0  0
    5.9733   -9.6553   17.3832 N   0  0  0  0  0  0  0  0  0  0  0  0
   10.2411   -2.9363   23.4301 C   0  0  0  0  0  0  0  0  0  0  0  0
   10.7288   -3.8197   19.9525 C   0  0  0  0  0  0  0  0  0  0  0  0
   10.1189   -5.0054   19.6987 C   0  0  0  0  0  0  0  0  0  0  0  0
  1  3  4  0
  1  7  4  0
  2 21  4  0
  2 27  4  0
  3  9  4  0
  3 10  4  0
  4  8  4  0
  4 18  4  0
  4 25  1  0
  5  9  4  0
  5 12  4  0
  6 13  1  0
  6 27  1  0
  7 28  4  0
  8 11  4  0
  9 29  4  0
 10 12  4  0
 11 24  1  0
 11 26  4  0
 12 25  1  0
 13 28  1  0
 14 20  4  0
 14 23  4  0
 15 17  4  0
 15 21  4  0
 16 19  4  0
 16 23  4  0
 17 22  4  0
 18 26  4  0
 19 24  4  0
 20 24  4  0
 22 27  4  0
 28 29  4  0
M  END
$$$$

 Created by Python create_sdf_string function

 29 33  0  0  0  0  0  0  0  0999 V2000
   10.7215   -3.3326   17.6437 C   0  0  0  0  0  0  0  0  0  0  0  0
    9.9489   -3.4675   24.6487 N   0  0  0  0  0  0  0  0  0  0  0  0
   10.0172   -4.4740   17.4101 C   0  0  0  0  0  0  0  0  0  0  0  0
    6.9051   -7.9575   16.4222 C   0  0  0  0  0  0  0  0  0  0  0  0
    8.9969   -6.3552   17.9668 N   0  0  0  0  0  0  0  0  0  0  0  0
   10.6702   -3.9051   22.4070 C   0  0  0  0  0  0  0  0  0  0  0  0
   11.0625   -3.0028   18.8894 C   0  0  0  0  0  0  0  0  0  0  0  0
    5.6180   -7.9194   16.1754 O   0  0  0  0  0  0  0  0  0  0  0  0
    9.7259   -5.3080   18.4485 C   0  0  0  0  0  0  0  0  0  0  0  0
    9.4578   -5.0200   16.3036 N   0  0  0  0  0  0  0  0  0  0  0  0
    5.0287   -8.9365   16.8223 C   0  0  0  0  0  0  0  0  0  0  0  0
    8.7742   -6.1498   16.6764 C   0  0  0  0  0  0  0  0  0  0  0  0
   10.9418   -3.4032   21.2053 O   0  0  0  0  0  0  0  0  0  0  0  0
    1.4797   -8.6258   16.2950 C   0  0  0  0  0  0  0  0  0  0  0  0
    9.2861   -1.2743   25.3585 C   0  0  0  0  0  0  0  0  0  0  0  0
    1.8892  -10.3985   17.7511 N   0  0  0  0  0  0  0  0  0  0  0  0
    9.6210   -0.6952   24.0976 C   0  0  0  0  0  0  0  0  0  0  0  0
    7.0792   -9.0217   17.1429 C   0  0  0  0  0  0  0  0  0  0  0  0
    3.1713  -10.1816   17.6634 C   0  0  0  0  0  0  0  0  0  0  0  0
    2.7878   -8.3822   16.2137 C   0  0  0  0  0  0  0  0  0  0  0  0
    9.4601   -2.6590   25.6528 C   0  0  0  0  0  0  0  0  0  0  0  0
   10.1182   -1.5672   23.1165 C   0  0  0  0  0  0  0  0  0  0  0  0
    1.0552   -9.6360   17.0650 C   0  0  0  0  0  0  0  0  0  0  0  0
    3.6519   -9.1783   16.9039 C   0  0  0  0  0  0  0  0  0  0  0  0
    7.8675   -7.0096   15.9415 C   0  0  0  0  0  0  0  0  0  0  0  0
    5.9733   -9.6553   17.3832 N   0  0  0  0  0  0  0  0  0  0  0  0
   10.2411   -2.9363   23.4301 C   0  0  0  0  0  0  0  0  0  0  0  0
   10.7288   -3.8197   19.9525 C   0  0  0  0  0  0  0  0  0  0  0  0
   10.1189   -5.0054   19.6987 C   0  0  0  0  0  0  0  0  0  0  0  0
  1  3  4  0
  1  7  4  0
  2 21  4  0
  2 27  4  0
  3  9  4  0
  3 10  4  0
  4  8  4  0
  4 18  4  0
  4 25  1  0
  5  9  4  0
  5 12  4  0
  6 13  1  0
  6 27  1  0
  7 28  4  0
  8 11  4  0
  9 29  4  0
 10 12  4  0
 11 24  1  0
 11 26  4  0
 12 25  1  0
 13 28  1  0
 14 20  4  0
 14 23  4  0
 15 17  4  0
 15 21  4  0
 16 19  4  0
 16 23  4  0
 17 22  4  0
 18 26  4  0
 19 24  4  0
 20 24  4  0
 22 27  4  0
 28 29  4  0
M  END
$$$$

 Created by Python create_sdf_string function

 29 33  0  0  0  0  0  0  0  0999 V2000
   10.7215   -3.3326   17.6437 C   0  0  0  0  0  0  0  0  0  0  0  0
    9.9489   -3.4675   24.6487 N   0  0  0  0  0  0  0  0  0  0  0  0
   10.0172   -4.4740   17.4101 C   0  0  0  0  0  0  0  0  0  0  0  0
    6.9051   -7.9575   16.4222 C   0  0  0  0  0  0  0  0  0  0  0  0
    8.9969   -6.3552   17.9668 N   0  0  0  0  0  0  0  0  0  0  0  0
   10.6702   -3.9051   22.4070 C   0  0  0  0  0  0  0  0  0  0  0  0
   11.0625   -3.0028   18.8894 C   0  0  0  0  0  0  0  0  0  0  0  0
    5.6180   -7.9194   16.1754 O   0  0  0  0  0  0  0  0  0  0  0  0
    9.7259   -5.3080   18.4485 C   0  0  0  0  0  0  0  0  0  0  0  0
    9.4578   -5.0200   16.3036 N   0  0  0  0  0  0  0  0  0  0  0  0
    5.0287   -8.9365   16.8223 C   0  0  0  0  0  0  0  0  0  0  0  0
    8.7742   -6.1498   16.6764 C   0  0  0  0  0  0  0  0  0  0  0  0
   10.9418   -3.4032   21.2053 O   0  0  0  0  0  0  0  0  0  0  0  0
    1.4797   -8.6258   16.2950 C   0  0  0  0  0  0  0  0  0  0  0  0
    9.2861   -1.2743   25.3585 C   0  0  0  0  0  0  0  0  0  0  0  0
    1.8892  -10.3985   17.7511 N   0  0  0  0  0  0  0  0  0  0  0  0
    9.6210   -0.6952   24.0976 C   0  0  0  0  0  0  0  0  0  0  0  0
    7.0792   -9.0217   17.1429 C   0  0  0  0  0  0  0  0  0  0  0  0
    3.1713  -10.1816   17.6634 C   0  0  0  0  0  0  0  0  0  0  0  0
    2.7878   -8.3822   16.2137 C   0  0  0  0  0  0  0  0  0  0  0  0
    9.4601   -2.6590   25.6528 C   0  0  0  0  0  0  0  0  0  0  0  0
   10.1182   -1.5672   23.1165 C   0  0  0  0  0  0  0  0  0  0  0  0
    1.0552   -9.6360   17.0650 C   0  0  0  0  0  0  0  0  0  0  0  0
    3.6519   -9.1783   16.9039 C   0  0  0  0  0  0  0  0  0  0  0  0
    7.8675   -7.0096   15.9415 C   0  0  0  0  0  0  0  0  0  0  0  0
    5.9733   -9.6553   17.3832 N   0  0  0  0  0  0  0  0  0  0  0  0
   10.2411   -2.9363   23.4301 C   0  0  0  0  0  0  0  0  0  0  0  0
   10.7288   -3.8197   19.9525 C   0  0  0  0  0  0  0  0  0  0  0  0
   10.1189   -5.0054   19.6987 C   0  0  0  0  0  0  0  0  0  0  0  0
  1  3  4  0
  1  7  4  0
  2 21  4  0
  2 27  4  0
  3  9  4  0
  3 10  4  0
  4  8  4  0
  4 18  4  0
  4 25  1  0
  5  9  4  0
  5 12  4  0
  6 13  1  0
  6 27  1  0
  7 28  4  0
  8 11  4  0
  9 29  4  0
 10 12  4  0
 11 24  1  0
 11 26  4  0
 12 25  1  0
 13 28  1  0
 14 20  4  0
 14 23  4  0
 15 17  4  0
 15 21  4  0
 16 19  4  0
 16 23  4  0
 17 22  4  0
 18 26  4  0
 19 24  4  0
 20 24  4  0
 22 27  4  0
 28 29  4  0
M  END
$$$$

 Created by Python create_sdf_string function

 29 33  0  0  0  0  0  0  0  0999 V2000
   10.7215   -3.3326   17.6437 C   0  0  0  0  0  0  0  0  0  0  0  0
    9.9489   -3.4675   24.6487 N   0  0  0  0  0  0  0  0  0  0  0  0
   10.0172   -4.4740   17.4101 C   0  0  0  0  0  0  0  0  0  0  0  0
    6.9051   -7.9575   16.4222 C   0  0  0  0  0  0  0  0  0  0  0  0
    8.9969   -6.3552   17.9668 N   0  0  0  0  0  0  0  0  0  0  0  0
   10.6702   -3.9051   22.4070 C   0  0  0  0  0  0  0  0  0  0  0  0
   11.0625   -3.0028   18.8894 C   0  0  0  0  0  0  0  0  0  0  0  0
    5.6180   -7.9194   16.1754 O   0  0  0  0  0  0  0  0  0  0  0  0
    9.7259   -5.3080   18.4485 C   0  0  0  0  0  0  0  0  0  0  0  0
    9.4578   -5.0200   16.3036 N   0  0  0  0  0  0  0  0  0  0  0  0
    5.0287   -8.9365   16.8223 C   0  0  0  0  0  0  0  0  0  0  0  0
    8.7742   -6.1498   16.6764 C   0  0  0  0  0  0  0  0  0  0  0  0
   10.9418   -3.4032   21.2053 O   0  0  0  0  0  0  0  0  0  0  0  0
    1.4797   -8.6258   16.2950 C   0  0  0  0  0  0  0  0  0  0  0  0
    9.2861   -1.2743   25.3585 C   0  0  0  0  0  0  0  0  0  0  0  0
    1.8892  -10.3985   17.7511 N   0  0  0  0  0  0  0  0  0  0  0  0
    9.6210   -0.6952   24.0976 C   0  0  0  0  0  0  0  0  0  0  0  0
    7.0792   -9.0217   17.1429 C   0  0  0  0  0  0  0  0  0  0  0  0
    3.1713  -10.1816   17.6634 C   0  0  0  0  0  0  0  0  0  0  0  0
    2.7878   -8.3822   16.2137 C   0  0  0  0  0  0  0  0  0  0  0  0
    9.4601   -2.6590   25.6528 C   0  0  0  0  0  0  0  0  0  0  0  0
   10.1182   -1.5672   23.1165 C   0  0  0  0  0  0  0  0  0  0  0  0
    1.0552   -9.6360   17.0650 C   0  0  0  0  0  0  0  0  0  0  0  0
    3.6519   -9.1783   16.9039 C   0  0  0  0  0  0  0  0  0  0  0  0
    7.8675   -7.0096   15.9415 C   0  0  0  0  0  0  0  0  0  0  0  0
    5.9733   -9.6553   17.3832 N   0  0  0  0  0  0  0  0  0  0  0  0
   10.2411   -2.9363   23.4301 C   0  0  0  0  0  0  0  0  0  0  0  0
   10.7288   -3.8197   19.9525 C   0  0  0  0  0  0  0  0  0  0  0  0
   10.1189   -5.0054   19.6987 C   0  0  0  0  0  0  0  0  0  0  0  0
  1  3  4  0
  1  7  4  0
  2 21  4  0
  2 27  4  0
  3  9  4  0
  3 10  4  0
  4  8  4  0
  4 18  4  0
  4 25  1  0
  5  9  4  0
  5 12  4  0
  6 13  1  0
  6 27  1  0
  7 28  4  0
  8 11  4  0
  9 29  4  0
 10 12  4  0
 11 24  1  0
 11 26  4  0
 12 25  1  0
 13 28  1  0
 14 20  4  0
 14 23  4  0
 15 17  4  0
 15 21  4  0
 16 19  4  0
 16 23  4  0
 17 22  4  0
 18 26  4  0
 19 24  4  0
 20 24  4  0
 22 27  4  0
 28 29  4  0
M  END
$$$$

 Created by Python create_sdf_string function

 29 33  0  0  0  0  0  0  0  0999 V2000
   10.7215   -3.3326   17.6437 C   0  0  0  0  0  0  0  0  0  0  0  0
    9.9489   -3.4675   24.6487 N   0  0  0  0  0  0  0  0  0  0  0  0
   10.0172   -4.4740   17.4101 C   0  0  0  0  0  0  0  0  0  0  0  0
    6.9051   -7.9575   16.4222 C   0  0  0  0  0  0  0  0  0  0  0  0
    8.9969   -6.3552   17.9668 N   0  0  0  0  0  0  0  0  0  0  0  0
   10.6702   -3.9051   22.4070 C   0  0  0  0  0  0  0  0  0  0  0  0
   11.0625   -3.0028   18.8894 C   0  0  0  0  0  0  0  0  0  0  0  0
    5.6180   -7.9194   16.1754 O   0  0  0  0  0  0  0  0  0  0  0  0
    9.7259   -5.3080   18.4485 C   0  0  0  0  0  0  0  0  0  0  0  0
    9.4578   -5.0200   16.3036 N   0  0  0  0  0  0  0  0  0  0  0  0
    5.0287   -8.9365   16.8223 C   0  0  0  0  0  0  0  0  0  0  0  0
    8.7742   -6.1498   16.6764 C   0  0  0  0  0  0  0  0  0  0  0  0
   10.9418   -3.4032   21.2053 O   0  0  0  0  0  0  0  0  0  0  0  0
    1.4797   -8.6258   16.2950 C   0  0  0  0  0  0  0  0  0  0  0  0
    9.2861   -1.2743   25.3585 C   0  0  0  0  0  0  0  0  0  0  0  0
    1.8892  -10.3985   17.7511 N   0  0  0  0  0  0  0  0  0  0  0  0
    9.6210   -0.6952   24.0976 C   0  0  0  0  0  0  0  0  0  0  0  0
    7.0792   -9.0217   17.1429 C   0  0  0  0  0  0  0  0  0  0  0  0
    3.1713  -10.1816   17.6634 C   0  0  0  0  0  0  0  0  0  0  0  0
    2.7878   -8.3822   16.2137 C   0  0  0  0  0  0  0  0  0  0  0  0
    9.4601   -2.6590   25.6528 C   0  0  0  0  0  0  0  0  0  0  0  0
   10.1182   -1.5672   23.1165 C   0  0  0  0  0  0  0  0  0  0  0  0
    1.0552   -9.6360   17.0650 C   0  0  0  0  0  0  0  0  0  0  0  0
    3.6519   -9.1783   16.9039 C   0  0  0  0  0  0  0  0  0  0  0  0
    7.8675   -7.0096   15.9415 C   0  0  0  0  0  0  0  0  0  0  0  0
    5.9733   -9.6553   17.3832 N   0  0  0  0  0  0  0  0  0  0  0  0
   10.2411   -2.9363   23.4301 C   0  0  0  0  0  0  0  0  0  0  0  0
   10.7288   -3.8197   19.9525 C   0  0  0  0  0  0  0  0  0  0  0  0
   10.1189   -5.0054   19.6987 C   0  0  0  0  0  0  0  0  0  0  0  0
  1  3  4  0
  1  7  4  0
  2 21  4  0
  2 27  4  0
  3  9  4  0
  3 10  4  0
  4  8  4  0
  4 18  4  0
  4 25  1  0
  5  9  4  0
  5 12  4  0
  6 13  1  0
  6 27  1  0
  7 28  4  0
  8 11  4  0
  9 29  4  0
 10 12  4  0
 11 24  1  0
 11 26  4  0
 12 25  1  0
 13 28  1  0
 14 20  4  0
 14 23  4  0
 15 17  4  0
 15 21  4  0
 16 19  4  0
 16 23  4  0
 17 22  4  0
 18 26  4  0
 19 24  4  0
 20 24  4  0
 22 27  4  0
 28 29  4  0
M  END
$$$$

 Created by Python create_sdf_string function

 29 33  0  0  0  0  0  0  0  0999 V2000
   10.7215   -3.3326   17.6437 C   0  0  0  0  0  0  0  0  0  0  0  0
    9.9489   -3.4675   24.6487 N   0  0  0  0  0  0  0  0  0  0  0  0
   10.0172   -4.4740   17.4101 C   0  0  0  0  0  0  0  0  0  0  0  0
    6.9051   -7.9575   16.4222 C   0  0  0  0  0  0  0  0  0  0  0  0
    8.9969   -6.3552   17.9668 N   0  0  0  0  0  0  0  0  0  0  0  0
   10.6702   -3.9051   22.4070 C   0  0  0  0  0  0  0  0  0  0  0  0
   11.0625   -3.0028   18.8894 C   0  0  0  0  0  0  0  0  0  0  0  0
    5.6180   -7.9194   16.1754 O   0  0  0  0  0  0  0  0  0  0  0  0
    9.7259   -5.3080   18.4485 C   0  0  0  0  0  0  0  0  0  0  0  0
    9.4578   -5.0200   16.3036 N   0  0  0  0  0  0  0  0  0  0  0  0
    5.0287   -8.9365   16.8223 C   0  0  0  0  0  0  0  0  0  0  0  0
    8.7742   -6.1498   16.6764 C   0  0  0  0  0  0  0  0  0  0  0  0
   10.9418   -3.4032   21.2053 O   0  0  0  0  0  0  0  0  0  0  0  0
    1.4797   -8.6258   16.2950 C   0  0  0  0  0  0  0  0  0  0  0  0
    9.2861   -1.2743   25.3585 C   0  0  0  0  0  0  0  0  0  0  0  0
    1.8892  -10.3985   17.7511 N   0  0  0  0  0  0  0  0  0  0  0  0
    9.6210   -0.6952   24.0976 C   0  0  0  0  0  0  0  0  0  0  0  0
    7.0792   -9.0217   17.1429 C   0  0  0  0  0  0  0  0  0  0  0  0
    3.1713  -10.1816   17.6634 C   0  0  0  0  0  0  0  0  0  0  0  0
    2.7878   -8.3822   16.2137 C   0  0  0  0  0  0  0  0  0  0  0  0
    9.4601   -2.6590   25.6528 C   0  0  0  0  0  0  0  0  0  0  0  0
   10.1182   -1.5672   23.1165 C   0  0  0  0  0  0  0  0  0  0  0  0
    1.0552   -9.6360   17.0650 C   0  0  0  0  0  0  0  0  0  0  0  0
    3.6519   -9.1783   16.9039 C   0  0  0  0  0  0  0  0  0  0  0  0
    7.8675   -7.0096   15.9415 C   0  0  0  0  0  0  0  0  0  0  0  0
    5.9733   -9.6553   17.3832 N   0  0  0  0  0  0  0  0  0  0  0  0
   10.2411   -2.9363   23.4301 C   0  0  0  0  0  0  0  0  0  0  0  0
   10.7288   -3.8197   19.9525 C   0  0  0  0  0  0  0  0  0  0  0  0
   10.1189   -5.0054   19.6987 C   0  0  0  0  0  0  0  0  0  0  0  0
  1  3  4  0
  1  7  4  0
  2 21  4  0
  2 27  4  0
  3  9  4  0
  3 10  4  0
  4  8  4  0
  4 18  4  0
  4 25  1  0
  5  9  4  0
  5 12  4  0
  6 13  1  0
  6 27  1  0
  7 28  4  0
  8 11  4  0
  9 29  4  0
 10 12  4  0
 11 24  1  0
 11 26  4  0
 12 25  1  0
 13 28  1  0
 14 20  4  0
 14 23  4  0
 15 17  4  0
 15 21  4  0
 16 19  4  0
 16 23  4  0
 17 22  4  0
 18 26  4  0
 19 24  4  0
 20 24  4  0
 22 27  4  0
 28 29  4  0
M  END
$$$$

 Created by Python create_sdf_string function

 29 33  0  0  0  0  0  0  0  0999 V2000
   10.7215   -3.3326   17.6437 C   0  0  0  0  0  0  0  0  0  0  0  0
    9.9489   -3.4675   24.6487 N   0  0  0  0  0  0  0  0  0  0  0  0
   10.0172   -4.4740   17.4101 C   0  0  0  0  0  0  0  0  0  0  0  0
    6.9051   -7.9575   16.4222 C   0  0  0  0  0  0  0  0  0  0  0  0
    8.9969   -6.3552   17.9668 N   0  0  0  0  0  0  0  0  0  0  0  0
   10.6702   -3.9051   22.4070 C   0  0  0  0  0  0  0  0  0  0  0  0
   11.0625   -3.0028   18.8894 C   0  0  0  0  0  0  0  0  0  0  0  0
    5.6180   -7.9194   16.1754 O   0  0  0  0  0  0  0  0  0  0  0  0
    9.7259   -5.3080   18.4485 C   0  0  0  0  0  0  0  0  0  0  0  0
    9.4578   -5.0200   16.3036 N   0  0  0  0  0  0  0  0  0  0  0  0
    5.0287   -8.9365   16.8223 C   0  0  0  0  0  0  0  0  0  0  0  0
    8.7742   -6.1498   16.6764 C   0  0  0  0  0  0  0  0  0  0  0  0
   10.9418   -3.4032   21.2053 O   0  0  0  0  0  0  0  0  0  0  0  0
    1.4797   -8.6258   16.2950 C   0  0  0  0  0  0  0  0  0  0  0  0
    9.2861   -1.2743   25.3585 C   0  0  0  0  0  0  0  0  0  0  0  0
    1.8892  -10.3985   17.7511 N   0  0  0  0  0  0  0  0  0  0  0  0
    9.6210   -0.6952   24.0976 C   0  0  0  0  0  0  0  0  0  0  0  0
    7.0792   -9.0217   17.1429 C   0  0  0  0  0  0  0  0  0  0  0  0
    3.1713  -10.1816   17.6634 C   0  0  0  0  0  0  0  0  0  0  0  0
    2.7878   -8.3822   16.2137 C   0  0  0  0  0  0  0  0  0  0  0  0
    9.4601   -2.6590   25.6528 C   0  0  0  0  0  0  0  0  0  0  0  0
   10.1182   -1.5672   23.1165 C   0  0  0  0  0  0  0  0  0  0  0  0
    1.0552   -9.6360   17.0650 C   0  0  0  0  0  0  0  0  0  0  0  0
    3.6519   -9.1783   16.9039 C   0  0  0  0  0  0  0  0  0  0  0  0
    7.8675   -7.0096   15.9415 C   0  0  0  0  0  0  0  0  0  0  0  0
    5.9733   -9.6553   17.3832 N   0  0  0  0  0  0  0  0  0  0  0  0
   10.2411   -2.9363   23.4301 C   0  0  0  0  0  0  0  0  0  0  0  0
   10.7288   -3.8197   19.9525 C   0  0  0  0  0  0  0  0  0  0  0  0
   10.1189   -5.0054   19.6987 C   0  0  0  0  0  0  0  0  0  0  0  0
  1  3  4  0
  1  7  4  0
  2 21  4  0
  2 27  4  0
  3  9  4  0
  3 10  4  0
  4  8  4  0
  4 18  4  0
  4 25  1  0
  5  9  4  0
  5 12  4  0
  6 13  1  0
  6 27  1  0
  7 28  4  0
  8 11  4  0
  9 29  4  0
 10 12  4  0
 11 24  1  0
 11 26  4  0
 12 25  1  0
 13 28  1  0
 14 20  4  0
 14 23  4  0
 15 17  4  0
 15 21  4  0
 16 19  4  0
 16 23  4  0
 17 22  4  0
 18 26  4  0
 19 24  4  0
 20 24  4  0
 22 27  4  0
 28 29  4  0
M  END
$$$$

 Created by Python create_sdf_string function

 29 33  0  0  0  0  0  0  0  0999 V2000
   10.7215   -3.3326   17.6437 C   0  0  0  0  0  0  0  0  0  0  0  0
    9.9489   -3.4675   24.6487 N   0  0  0  0  0  0  0  0  0  0  0  0
   10.0172   -4.4740   17.4101 C   0  0  0  0  0  0  0  0  0  0  0  0
    6.9051   -7.9575   16.4222 C   0  0  0  0  0  0  0  0  0  0  0  0
    8.9969   -6.3552   17.9668 N   0  0  0  0  0  0  0  0  0  0  0  0
   10.6702   -3.9051   22.4070 C   0  0  0  0  0  0  0  0  0  0  0  0
   11.0625   -3.0028   18.8894 C   0  0  0  0  0  0  0  0  0  0  0  0
    5.6180   -7.9194   16.1754 O   0  0  0  0  0  0  0  0  0  0  0  0
    9.7259   -5.3080   18.4485 C   0  0  0  0  0  0  0  0  0  0  0  0
    9.4578   -5.0200   16.3036 N   0  0  0  0  0  0  0  0  0  0  0  0
    5.0287   -8.9365   16.8223 C   0  0  0  0  0  0  0  0  0  0  0  0
    8.7742   -6.1498   16.6764 C   0  0  0  0  0  0  0  0  0  0  0  0
   10.9418   -3.4032   21.2053 O   0  0  0  0  0  0  0  0  0  0  0  0
    1.4797   -8.6258   16.2950 C   0  0  0  0  0  0  0  0  0  0  0  0
    9.2861   -1.2743   25.3585 C   0  0  0  0  0  0  0  0  0  0  0  0
    1.8892  -10.3985   17.7511 N   0  0  0  0  0  0  0  0  0  0  0  0
    9.6210   -0.6952   24.0976 C   0  0  0  0  0  0  0  0  0  0  0  0
    7.0792   -9.0217   17.1429 C   0  0  0  0  0  0  0  0  0  0  0  0
    3.1713  -10.1816   17.6634 C   0  0  0  0  0  0  0  0  0  0  0  0
    2.7878   -8.3822   16.2137 C   0  0  0  0  0  0  0  0  0  0  0  0
    9.4601   -2.6590   25.6528 C   0  0  0  0  0  0  0  0  0  0  0  0
   10.1182   -1.5672   23.1165 C   0  0  0  0  0  0  0  0  0  0  0  0
    1.0552   -9.6360   17.0650 C   0  0  0  0  0  0  0  0  0  0  0  0
    3.6519   -9.1783   16.9039 C   0  0  0  0  0  0  0  0  0  0  0  0
    7.8675   -7.0096   15.9415 C   0  0  0  0  0  0  0  0  0  0  0  0
    5.9733   -9.6553   17.3832 N   0  0  0  0  0  0  0  0  0  0  0  0
   10.2411   -2.9363   23.4301 C   0  0  0  0  0  0  0  0  0  0  0  0
   10.7288   -3.8197   19.9525 C   0  0  0  0  0  0  0  0  0  0  0  0
   10.1189   -5.0054   19.6987 C   0  0  0  0  0  0  0  0  0  0  0  0
  1  3  4  0
  1  7  4  0
  2 21  4  0
  2 27  4  0
  3  9  4  0
  3 10  4  0
  4  8  4  0
  4 18  4  0
  4 25  1  0
  5  9  4  0
  5 12  4  0
  6 13  1  0
  6 27  1  0
  7 28  4  0
  8 11  4  0
  9 29  4  0
 10 12  4  0
 11 24  1  0
 11 26  4  0
 12 25  1  0
 13 28  1  0
 14 20  4  0
 14 23  4  0
 15 17  4  0
 15 21  4  0
 16 19  4  0
 16 23  4  0
 17 22  4  0
 18 26  4  0
 19 24  4  0
 20 24  4  0
 22 27  4  0
 28 29  4  0
M  END
$$$$

 Created by Python create_sdf_string function

 29 33  0  0  0  0  0  0  0  0999 V2000
   10.7215   -3.3326   17.6437 C   0  0  0  0  0  0  0  0  0  0  0  0
    9.9489   -3.4675   24.6487 N   0  0  0  0  0  0  0  0  0  0  0  0
   10.0172   -4.4740   17.4101 C   0  0  0  0  0  0  0  0  0  0  0  0
    6.9051   -7.9575   16.4222 C   0  0  0  0  0  0  0  0  0  0  0  0
    8.9969   -6.3552   17.9668 N   0  0  0  0  0  0  0  0  0  0  0  0
   10.6702   -3.9051   22.4070 C   0  0  0  0  0  0  0  0  0  0  0  0
   11.0625   -3.0028   18.8894 C   0  0  0  0  0  0  0  0  0  0  0  0
    5.6180   -7.9194   16.1754 O   0  0  0  0  0  0  0  0  0  0  0  0
    9.7259   -5.3080   18.4485 C   0  0  0  0  0  0  0  0  0  0  0  0
    9.4578   -5.0200   16.3036 N   0  0  0  0  0  0  0  0  0  0  0  0
    5.0287   -8.9365   16.8223 C   0  0  0  0  0  0  0  0  0  0  0  0
    8.7742   -6.1498   16.6764 C   0  0  0  0  0  0  0  0  0  0  0  0
   10.9418   -3.4032   21.2053 O   0  0  0  0  0  0  0  0  0  0  0  0
    1.4797   -8.6258   16.2950 C   0  0  0  0  0  0  0  0  0  0  0  0
    9.2861   -1.2743   25.3585 C   0  0  0  0  0  0  0  0  0  0  0  0
    1.8892  -10.3985   17.7511 N   0  0  0  0  0  0  0  0  0  0  0  0
    9.6210   -0.6952   24.0976 C   0  0  0  0  0  0  0  0  0  0  0  0
    7.0792   -9.0217   17.1429 C   0  0  0  0  0  0  0  0  0  0  0  0
    3.1713  -10.1816   17.6634 C   0  0  0  0  0  0  0  0  0  0  0  0
    2.7878   -8.3822   16.2137 C   0  0  0  0  0  0  0  0  0  0  0  0
    9.4601   -2.6590   25.6528 C   0  0  0  0  0  0  0  0  0  0  0  0
   10.1182   -1.5672   23.1165 C   0  0  0  0  0  0  0  0  0  0  0  0
    1.0552   -9.6360   17.0650 C   0  0  0  0  0  0  0  0  0  0  0  0
    3.6519   -9.1783   16.9039 C   0  0  0  0  0  0  0  0  0  0  0  0
    7.8675   -7.0096   15.9415 C   0  0  0  0  0  0  0  0  0  0  0  0
    5.9733   -9.6553   17.3832 N   0  0  0  0  0  0  0  0  0  0  0  0
   10.2411   -2.9363   23.4301 C   0  0  0  0  0  0  0  0  0  0  0  0
   10.7288   -3.8197   19.9525 C   0  0  0  0  0  0  0  0  0  0  0  0
   10.1189   -5.0054   19.6987 C   0  0  0  0  0  0  0  0  0  0  0  0
  1  3  4  0
  1  7  4  0
  2 21  4  0
  2 27  4  0
  3  9  4  0
  3 10  4  0
  4  8  4  0
  4 18  4  0
  4 25  1  0
  5  9  4  0
  5 12  4  0
  6 13  1  0
  6 27  1  0
  7 28  4  0
  8 11  4  0
  9 29  4  0
 10 12  4  0
 11 24  1  0
 11 26  4  0
 12 25  1  0
 13 28  1  0
 14 20  4  0
 14 23  4  0
 15 17  4  0
 15 21  4  0
 16 19  4  0
 16 23  4  0
 17 22  4  0
 18 26  4  0
 19 24  4  0
 20 24  4  0
 22 27  4  0
 28 29  4  0
M  END
$$$$

 Created by Python create_sdf_string function

 29 33  0  0  0  0  0  0  0  0999 V2000
   10.7215   -3.3326   17.6437 C   0  0  0  0  0  0  0  0  0  0  0  0
    9.9489   -3.4675   24.6487 N   0  0  0  0  0  0  0  0  0  0  0  0
   10.0172   -4.4740   17.4101 C   0  0  0  0  0  0  0  0  0  0  0  0
    6.9051   -7.9575   16.4222 C   0  0  0  0  0  0  0  0  0  0  0  0
    8.9969   -6.3552   17.9668 N   0  0  0  0  0  0  0  0  0  0  0  0
   10.6702   -3.9051   22.4070 C   0  0  0  0  0  0  0  0  0  0  0  0
   11.0625   -3.0028   18.8894 C   0  0  0  0  0  0  0  0  0  0  0  0
    5.6180   -7.9194   16.1754 O   0  0  0  0  0  0  0  0  0  0  0  0
    9.7259   -5.3080   18.4485 C   0  0  0  0  0  0  0  0  0  0  0  0
    9.4578   -5.0200   16.3036 N   0  0  0  0  0  0  0  0  0  0  0  0
    5.0287   -8.9365   16.8223 C   0  0  0  0  0  0  0  0  0  0  0  0
    8.7742   -6.1498   16.6764 C   0  0  0  0  0  0  0  0  0  0  0  0
   10.9418   -3.4032   21.2053 O   0  0  0  0  0  0  0  0  0  0  0  0
    1.4797   -8.6258   16.2950 C   0  0  0  0  0  0  0  0  0  0  0  0
    9.2861   -1.2743   25.3585 C   0  0  0  0  0  0  0  0  0  0  0  0
    1.8892  -10.3985   17.7511 N   0  0  0  0  0  0  0  0  0  0  0  0
    9.6210   -0.6952   24.0976 C   0  0  0  0  0  0  0  0  0  0  0  0
    7.0792   -9.0217   17.1429 C   0  0  0  0  0  0  0  0  0  0  0  0
    3.1713  -10.1816   17.6634 C   0  0  0  0  0  0  0  0  0  0  0  0
    2.7878   -8.3822   16.2137 C   0  0  0  0  0  0  0  0  0  0  0  0
    9.4601   -2.6590   25.6528 C   0  0  0  0  0  0  0  0  0  0  0  0
   10.1182   -1.5672   23.1165 C   0  0  0  0  0  0  0  0  0  0  0  0
    1.0552   -9.6360   17.0650 C   0  0  0  0  0  0  0  0  0  0  0  0
    3.6519   -9.1783   16.9039 C   0  0  0  0  0  0  0  0  0  0  0  0
    7.8675   -7.0096   15.9415 C   0  0  0  0  0  0  0  0  0  0  0  0
    5.9733   -9.6553   17.3832 N   0  0  0  0  0  0  0  0  0  0  0  0
   10.2411   -2.9363   23.4301 C   0  0  0  0  0  0  0  0  0  0  0  0
   10.7288   -3.8197   19.9525 C   0  0  0  0  0  0  0  0  0  0  0  0
   10.1189   -5.0054   19.6987 C   0  0  0  0  0  0  0  0  0  0  0  0
  1  3  4  0
  1  7  4  0
  2 21  4  0
  2 27  4  0
  3  9  4  0
  3 10  4  0
  4  8  4  0
  4 18  4  0
  4 25  1  0
  5  9  4  0
  5 12  4  0
  6 13  1  0
  6 27  1  0
  7 28  4  0
  8 11  4  0
  9 29  4  0
 10 12  4  0
 11 24  1  0
 11 26  4  0
 12 25  1  0
 13 28  1  0
 14 20  4  0
 14 23  4  0
 15 17  4  0
 15 21  4  0
 16 19  4  0
 16 23  4  0
 17 22  4  0
 18 26  4  0
 19 24  4  0
 20 24  4  0
 22 27  4  0
 28 29  4  0
M  END
$$$$

 Created by Python create_sdf_string function

 29 33  0  0  0  0  0  0  0  0999 V2000
   10.7215   -3.3326   17.6437 C   0  0  0  0  0  0  0  0  0  0  0  0
    9.9489   -3.4675   24.6487 N   0  0  0  0  0  0  0  0  0  0  0  0
   10.0172   -4.4740   17.4101 C   0  0  0  0  0  0  0  0  0  0  0  0
    6.9051   -7.9575   16.4222 C   0  0  0  0  0  0  0  0  0  0  0  0
    8.9969   -6.3552   17.9668 N   0  0  0  0  0  0  0  0  0  0  0  0
   10.6702   -3.9051   22.4070 C   0  0  0  0  0  0  0  0  0  0  0  0
   11.0625   -3.0028   18.8894 C   0  0  0  0  0  0  0  0  0  0  0  0
    5.6180   -7.9194   16.1754 O   0  0  0  0  0  0  0  0  0  0  0  0
    9.7259   -5.3080   18.4485 C   0  0  0  0  0  0  0  0  0  0  0  0
    9.4578   -5.0200   16.3036 N   0  0  0  0  0  0  0  0  0  0  0  0
    5.0287   -8.9365   16.8223 C   0  0  0  0  0  0  0  0  0  0  0  0
    8.7742   -6.1498   16.6764 C   0  0  0  0  0  0  0  0  0  0  0  0
   10.9418   -3.4032   21.2053 O   0  0  0  0  0  0  0  0  0  0  0  0
    1.4797   -8.6258   16.2950 C   0  0  0  0  0  0  0  0  0  0  0  0
    9.2861   -1.2743   25.3585 C   0  0  0  0  0  0  0  0  0  0  0  0
    1.8892  -10.3985   17.7511 N   0  0  0  0  0  0  0  0  0  0  0  0
    9.6210   -0.6952   24.0976 C   0  0  0  0  0  0  0  0  0  0  0  0
    7.0792   -9.0217   17.1429 C   0  0  0  0  0  0  0  0  0  0  0  0
    3.1713  -10.1816   17.6634 C   0  0  0  0  0  0  0  0  0  0  0  0
    2.7878   -8.3822   16.2137 C   0  0  0  0  0  0  0  0  0  0  0  0
    9.4601   -2.6590   25.6528 C   0  0  0  0  0  0  0  0  0  0  0  0
   10.1182   -1.5672   23.1165 C   0  0  0  0  0  0  0  0  0  0  0  0
    1.0552   -9.6360   17.0650 C   0  0  0  0  0  0  0  0  0  0  0  0
    3.6519   -9.1783   16.9039 C   0  0  0  0  0  0  0  0  0  0  0  0
    7.8675   -7.0096   15.9415 C   0  0  0  0  0  0  0  0  0  0  0  0
    5.9733   -9.6553   17.3832 N   0  0  0  0  0  0  0  0  0  0  0  0
   10.2411   -2.9363   23.4301 C   0  0  0  0  0  0  0  0  0  0  0  0
   10.7288   -3.8197   19.9525 C   0  0  0  0  0  0  0  0  0  0  0  0
   10.1189   -5.0054   19.6987 C   0  0  0  0  0  0  0  0  0  0  0  0
  1  3  4  0
  1  7  4  0
  2 21  4  0
  2 27  4  0
  3  9  4  0
  3 10  4  0
  4  8  4  0
  4 18  4  0
  4 25  1  0
  5  9  4  0
  5 12  4  0
  6 13  1  0
  6 27  1  0
  7 28  4  0
  8 11  4  0
  9 29  4  0
 10 12  4  0
 11 24  1  0
 11 26  4  0
 12 25  1  0
 13 28  1  0
 14 20  4  0
 14 23  4  0
 15 17  4  0
 15 21  4  0
 16 19  4  0
 16 23  4  0
 17 22  4  0
 18 26  4  0
 19 24  4  0
 20 24  4  0
 22 27  4  0
 28 29  4  0
M  END
$$$$

 Created by Python create_sdf_string function

 29 33  0  0  0  0  0  0  0  0999 V2000
   10.7215   -3.3326   17.6437 C   0  0  0  0  0  0  0  0  0  0  0  0
    9.9489   -3.4675   24.6487 N   0  0  0  0  0  0  0  0  0  0  0  0
   10.0172   -4.4740   17.4101 C   0  0  0  0  0  0  0  0  0  0  0  0
    6.9051   -7.9575   16.4222 C   0  0  0  0  0  0  0  0  0  0  0  0
    8.9969   -6.3552   17.9668 N   0  0  0  0  0  0  0  0  0  0  0  0
   10.6702   -3.9051   22.4070 C   0  0  0  0  0  0  0  0  0  0  0  0
   11.0625   -3.0028   18.8894 C   0  0  0  0  0  0  0  0  0  0  0  0
    5.6180   -7.9194   16.1754 O   0  0  0  0  0  0  0  0  0  0  0  0
    9.7259   -5.3080   18.4485 C   0  0  0  0  0  0  0  0  0  0  0  0
    9.4578   -5.0200   16.3036 N   0  0  0  0  0  0  0  0  0  0  0  0
    5.0287   -8.9365   16.8223 C   0  0  0  0  0  0  0  0  0  0  0  0
    8.7742   -6.1498   16.6764 C   0  0  0  0  0  0  0  0  0  0  0  0
   10.9418   -3.4032   21.2053 O   0  0  0  0  0  0  0  0  0  0  0  0
    1.4797   -8.6258   16.2950 C   0  0  0  0  0  0  0  0  0  0  0  0
    9.2861   -1.2743   25.3585 C   0  0  0  0  0  0  0  0  0  0  0  0
    1.8892  -10.3985   17.7511 N   0  0  0  0  0  0  0  0  0  0  0  0
    9.6210   -0.6952   24.0976 C   0  0  0  0  0  0  0  0  0  0  0  0
    7.0792   -9.0217   17.1429 C   0  0  0  0  0  0  0  0  0  0  0  0
    3.1713  -10.1816   17.6634 C   0  0  0  0  0  0  0  0  0  0  0  0
    2.7878   -8.3822   16.2137 C   0  0  0  0  0  0  0  0  0  0  0  0
    9.4601   -2.6590   25.6528 C   0  0  0  0  0  0  0  0  0  0  0  0
   10.1182   -1.5672   23.1165 C   0  0  0  0  0  0  0  0  0  0  0  0
    1.0552   -9.6360   17.0650 C   0  0  0  0  0  0  0  0  0  0  0  0
    3.6519   -9.1783   16.9039 C   0  0  0  0  0  0  0  0  0  0  0  0
    7.8675   -7.0096   15.9415 C   0  0  0  0  0  0  0  0  0  0  0  0
    5.9733   -9.6553   17.3832 N   0  0  0  0  0  0  0  0  0  0  0  0
   10.2411   -2.9363   23.4301 C   0  0  0  0  0  0  0  0  0  0  0  0
   10.7288   -3.8197   19.9525 C   0  0  0  0  0  0  0  0  0  0  0  0
   10.1189   -5.0054   19.6987 C   0  0  0  0  0  0  0  0  0  0  0  0
  1  3  4  0
  1  7  4  0
  2 21  4  0
  2 27  4  0
  3  9  4  0
  3 10  4  0
  4  8  4  0
  4 18  4  0
  4 25  1  0
  5  9  4  0
  5 12  4  0
  6 13  1  0
  6 27  1  0
  7 28  4  0
  8 11  4  0
  9 29  4  0
 10 12  4  0
 11 24  1  0
 11 26  4  0
 12 25  1  0
 13 28  1  0
 14 20  4  0
 14 23  4  0
 15 17  4  0
 15 21  4  0
 16 19  4  0
 16 23  4  0
 17 22  4  0
 18 26  4  0
 19 24  4  0
 20 24  4  0
 22 27  4  0
 28 29  4  0
M  END
$$$$

 Created by Python create_sdf_string function

 29 33  0  0  0  0  0  0  0  0999 V2000
   10.7215   -3.3326   17.6437 C   0  0  0  0  0  0  0  0  0  0  0  0
    9.9489   -3.4675   24.6487 N   0  0  0  0  0  0  0  0  0  0  0  0
   10.0172   -4.4740   17.4101 C   0  0  0  0  0  0  0  0  0  0  0  0
    6.9051   -7.9575   16.4222 C   0  0  0  0  0  0  0  0  0  0  0  0
    8.9969   -6.3552   17.9668 N   0  0  0  0  0  0  0  0  0  0  0  0
   10.6702   -3.9051   22.4070 C   0  0  0  0  0  0  0  0  0  0  0  0
   11.0625   -3.0028   18.8894 C   0  0  0  0  0  0  0  0  0  0  0  0
    5.6180   -7.9194   16.1754 O   0  0  0  0  0  0  0  0  0  0  0  0
    9.7259   -5.3080   18.4485 C   0  0  0  0  0  0  0  0  0  0  0  0
    9.4578   -5.0200   16.3036 N   0  0  0  0  0  0  0  0  0  0  0  0
    5.0287   -8.9365   16.8223 C   0  0  0  0  0  0  0  0  0  0  0  0
    8.7742   -6.1498   16.6764 C   0  0  0  0  0  0  0  0  0  0  0  0
   10.9418   -3.4032   21.2053 O   0  0  0  0  0  0  0  0  0  0  0  0
    1.4797   -8.6258   16.2950 C   0  0  0  0  0  0  0  0  0  0  0  0
    9.2861   -1.2743   25.3585 C   0  0  0  0  0  0  0  0  0  0  0  0
    1.8892  -10.3985   17.7511 N   0  0  0  0  0  0  0  0  0  0  0  0
    9.6210   -0.6952   24.0976 C   0  0  0  0  0  0  0  0  0  0  0  0
    7.0792   -9.0217   17.1429 C   0  0  0  0  0  0  0  0  0  0  0  0
    3.1713  -10.1816   17.6634 C   0  0  0  0  0  0  0  0  0  0  0  0
    2.7878   -8.3822   16.2137 C   0  0  0  0  0  0  0  0  0  0  0  0
    9.4601   -2.6590   25.6528 C   0  0  0  0  0  0  0  0  0  0  0  0
   10.1182   -1.5672   23.1165 C   0  0  0  0  0  0  0  0  0  0  0  0
    1.0552   -9.6360   17.0650 C   0  0  0  0  0  0  0  0  0  0  0  0
    3.6519   -9.1783   16.9039 C   0  0  0  0  0  0  0  0  0  0  0  0
    7.8675   -7.0096   15.9415 C   0  0  0  0  0  0  0  0  0  0  0  0
    5.9733   -9.6553   17.3832 N   0  0  0  0  0  0  0  0  0  0  0  0
   10.2411   -2.9363   23.4301 C   0  0  0  0  0  0  0  0  0  0  0  0
   10.7288   -3.8197   19.9525 C   0  0  0  0  0  0  0  0  0  0  0  0
   10.1189   -5.0054   19.6987 C   0  0  0  0  0  0  0  0  0  0  0  0
  1  3  4  0
  1  7  4  0
  2 21  4  0
  2 27  4  0
  3  9  4  0
  3 10  4  0
  4  8  4  0
  4 18  4  0
  4 25  1  0
  5  9  4  0
  5 12  4  0
  6 13  1  0
  6 27  1  0
  7 28  4  0
  8 11  4  0
  9 29  4  0
 10 12  4  0
 11 24  1  0
 11 26  4  0
 12 25  1  0
 13 28  1  0
 14 20  4  0
 14 23  4  0
 15 17  4  0
 15 21  4  0
 16 19  4  0
 16 23  4  0
 17 22  4  0
 18 26  4  0
 19 24  4  0
 20 24  4  0
 22 27  4  0
 28 29  4  0
M  END
$$$$

 Created by Python create_sdf_string function

 29 33  0  0  0  0  0  0  0  0999 V2000
   10.7215   -3.3326   17.6437 C   0  0  0  0  0  0  0  0  0  0  0  0
    9.9489   -3.4675   24.6487 N   0  0  0  0  0  0  0  0  0  0  0  0
   10.0172   -4.4740   17.4101 C   0  0  0  0  0  0  0  0  0  0  0  0
    6.9051   -7.9575   16.4222 C   0  0  0  0  0  0  0  0  0  0  0  0
    8.9969   -6.3552   17.9668 N   0  0  0  0  0  0  0  0  0  0  0  0
   10.6702   -3.9051   22.4070 C   0  0  0  0  0  0  0  0  0  0  0  0
   11.0625   -3.0028   18.8894 C   0  0  0  0  0  0  0  0  0  0  0  0
    5.6180   -7.9194   16.1754 O   0  0  0  0  0  0  0  0  0  0  0  0
    9.7259   -5.3080   18.4485 C   0  0  0  0  0  0  0  0  0  0  0  0
    9.4578   -5.0200   16.3036 N   0  0  0  0  0  0  0  0  0  0  0  0
    5.0287   -8.9365   16.8223 C   0  0  0  0  0  0  0  0  0  0  0  0
    8.7742   -6.1498   16.6764 C   0  0  0  0  0  0  0  0  0  0  0  0
   10.9418   -3.4032   21.2053 O   0  0  0  0  0  0  0  0  0  0  0  0
    1.4797   -8.6258   16.2950 C   0  0  0  0  0  0  0  0  0  0  0  0
    9.2861   -1.2743   25.3585 C   0  0  0  0  0  0  0  0  0  0  0  0
    1.8892  -10.3985   17.7511 N   0  0  0  0  0  0  0  0  0  0  0  0
    9.6210   -0.6952   24.0976 C   0  0  0  0  0  0  0  0  0  0  0  0
    7.0792   -9.0217   17.1429 C   0  0  0  0  0  0  0  0  0  0  0  0
    3.1713  -10.1816   17.6634 C   0  0  0  0  0  0  0  0  0  0  0  0
    2.7878   -8.3822   16.2137 C   0  0  0  0  0  0  0  0  0  0  0  0
    9.4601   -2.6590   25.6528 C   0  0  0  0  0  0  0  0  0  0  0  0
   10.1182   -1.5672   23.1165 C   0  0  0  0  0  0  0  0  0  0  0  0
    1.0552   -9.6360   17.0650 C   0  0  0  0  0  0  0  0  0  0  0  0
    3.6519   -9.1783   16.9039 C   0  0  0  0  0  0  0  0  0  0  0  0
    7.8675   -7.0096   15.9415 C   0  0  0  0  0  0  0  0  0  0  0  0
    5.9733   -9.6553   17.3832 N   0  0  0  0  0  0  0  0  0  0  0  0
   10.2411   -2.9363   23.4301 C   0  0  0  0  0  0  0  0  0  0  0  0
   10.7288   -3.8197   19.9525 C   0  0  0  0  0  0  0  0  0  0  0  0
   10.1189   -5.0054   19.6987 C   0  0  0  0  0  0  0  0  0  0  0  0
  1  3  4  0
  1  7  4  0
  2 21  4  0
  2 27  4  0
  3  9  4  0
  3 10  4  0
  4  8  4  0
  4 18  4  0
  4 25  1  0
  5  9  4  0
  5 12  4  0
  6 13  1  0
  6 27  1  0
  7 28  4  0
  8 11  4  0
  9 29  4  0
 10 12  4  0
 11 24  1  0
 11 26  4  0
 12 25  1  0
 13 28  1  0
 14 20  4  0
 14 23  4  0
 15 17  4  0
 15 21  4  0
 16 19  4  0
 16 23  4  0
 17 22  4  0
 18 26  4  0
 19 24  4  0
 20 24  4  0
 22 27  4  0
 28 29  4  0
M  END
$$$$

 Created by Python create_sdf_string function

 29 33  0  0  0  0  0  0  0  0999 V2000
   10.7215   -3.3326   17.6437 C   0  0  0  0  0  0  0  0  0  0  0  0
    9.9489   -3.4675   24.6487 N   0  0  0  0  0  0  0  0  0  0  0  0
   10.0172   -4.4740   17.4101 C   0  0  0  0  0  0  0  0  0  0  0  0
    6.9051   -7.9575   16.4222 C   0  0  0  0  0  0  0  0  0  0  0  0
    8.9969   -6.3552   17.9668 N   0  0  0  0  0  0  0  0  0  0  0  0
   10.6702   -3.9051   22.4070 C   0  0  0  0  0  0  0  0  0  0  0  0
   11.0625   -3.0028   18.8894 C   0  0  0  0  0  0  0  0  0  0  0  0
    5.6180   -7.9194   16.1754 O   0  0  0  0  0  0  0  0  0  0  0  0
    9.7259   -5.3080   18.4485 C   0  0  0  0  0  0  0  0  0  0  0  0
    9.4578   -5.0200   16.3036 N   0  0  0  0  0  0  0  0  0  0  0  0
    5.0287   -8.9365   16.8223 C   0  0  0  0  0  0  0  0  0  0  0  0
    8.7742   -6.1498   16.6764 C   0  0  0  0  0  0  0  0  0  0  0  0
   10.9418   -3.4032   21.2053 O   0  0  0  0  0  0  0  0  0  0  0  0
    1.4797   -8.6258   16.2950 C   0  0  0  0  0  0  0  0  0  0  0  0
    9.2861   -1.2743   25.3585 C   0  0  0  0  0  0  0  0  0  0  0  0
    1.8892  -10.3985   17.7511 N   0  0  0  0  0  0  0  0  0  0  0  0
    9.6210   -0.6952   24.0976 C   0  0  0  0  0  0  0  0  0  0  0  0
    7.0792   -9.0217   17.1429 C   0  0  0  0  0  0  0  0  0  0  0  0
    3.1713  -10.1816   17.6634 C   0  0  0  0  0  0  0  0  0  0  0  0
    2.7878   -8.3822   16.2137 C   0  0  0  0  0  0  0  0  0  0  0  0
    9.4601   -2.6590   25.6528 C   0  0  0  0  0  0  0  0  0  0  0  0
   10.1182   -1.5672   23.1165 C   0  0  0  0  0  0  0  0  0  0  0  0
    1.0552   -9.6360   17.0650 C   0  0  0  0  0  0  0  0  0  0  0  0
    3.6519   -9.1783   16.9039 C   0  0  0  0  0  0  0  0  0  0  0  0
    7.8675   -7.0096   15.9415 C   0  0  0  0  0  0  0  0  0  0  0  0
    5.9733   -9.6553   17.3832 N   0  0  0  0  0  0  0  0  0  0  0  0
   10.2411   -2.9363   23.4301 C   0  0  0  0  0  0  0  0  0  0  0  0
   10.7288   -3.8197   19.9525 C   0  0  0  0  0  0  0  0  0  0  0  0
   10.1189   -5.0054   19.6987 C   0  0  0  0  0  0  0  0  0  0  0  0
  1  3  4  0
  1  7  4  0
  2 21  4  0
  2 27  4  0
  3  9  4  0
  3 10  4  0
  4  8  4  0
  4 18  4  0
  4 25  1  0
  5  9  4  0
  5 12  4  0
  6 13  1  0
  6 27  1  0
  7 28  4  0
  8 11  4  0
  9 29  4  0
 10 12  4  0
 11 24  1  0
 11 26  4  0
 12 25  1  0
 13 28  1  0
 14 20  4  0
 14 23  4  0
 15 17  4  0
 15 21  4  0
 16 19  4  0
 16 23  4  0
 17 22  4  0
 18 26  4  0
 19 24  4  0
 20 24  4  0
 22 27  4  0
 28 29  4  0
M  END
$$$$

 Created by Python create_sdf_string function

 29 33  0  0  0  0  0  0  0  0999 V2000
   10.7215   -3.3326   17.6437 C   0  0  0  0  0  0  0  0  0  0  0  0
    9.9489   -3.4675   24.6487 N   0  0  0  0  0  0  0  0  0  0  0  0
   10.0172   -4.4740   17.4101 C   0  0  0  0  0  0  0  0  0  0  0  0
    6.9051   -7.9575   16.4222 C   0  0  0  0  0  0  0  0  0  0  0  0
    8.9969   -6.3552   17.9668 N   0  0  0  0  0  0  0  0  0  0  0  0
   10.6702   -3.9051   22.4070 C   0  0  0  0  0  0  0  0  0  0  0  0
   11.0625   -3.0028   18.8894 C   0  0  0  0  0  0  0  0  0  0  0  0
    5.6180   -7.9194   16.1754 O   0  0  0  0  0  0  0  0  0  0  0  0
    9.7259   -5.3080   18.4485 C   0  0  0  0  0  0  0  0  0  0  0  0
    9.4578   -5.0200   16.3036 N   0  0  0  0  0  0  0  0  0  0  0  0
    5.0287   -8.9365   16.8223 C   0  0  0  0  0  0  0  0  0  0  0  0
    8.7742   -6.1498   16.6764 C   0  0  0  0  0  0  0  0  0  0  0  0
   10.9418   -3.4032   21.2053 O   0  0  0  0  0  0  0  0  0  0  0  0
    1.4797   -8.6258   16.2950 C   0  0  0  0  0  0  0  0  0  0  0  0
    9.2861   -1.2743   25.3585 C   0  0  0  0  0  0  0  0  0  0  0  0
    1.8892  -10.3985   17.7511 N   0  0  0  0  0  0  0  0  0  0  0  0
    9.6210   -0.6952   24.0976 C   0  0  0  0  0  0  0  0  0  0  0  0
    7.0792   -9.0217   17.1429 C   0  0  0  0  0  0  0  0  0  0  0  0
    3.1713  -10.1816   17.6634 C   0  0  0  0  0  0  0  0  0  0  0  0
    2.7878   -8.3822   16.2137 C   0  0  0  0  0  0  0  0  0  0  0  0
    9.4601   -2.6590   25.6528 C   0  0  0  0  0  0  0  0  0  0  0  0
   10.1182   -1.5672   23.1165 C   0  0  0  0  0  0  0  0  0  0  0  0
    1.0552   -9.6360   17.0650 C   0  0  0  0  0  0  0  0  0  0  0  0
    3.6519   -9.1783   16.9039 C   0  0  0  0  0  0  0  0  0  0  0  0
    7.8675   -7.0096   15.9415 C   0  0  0  0  0  0  0  0  0  0  0  0
    5.9733   -9.6553   17.3832 N   0  0  0  0  0  0  0  0  0  0  0  0
   10.2411   -2.9363   23.4301 C   0  0  0  0  0  0  0  0  0  0  0  0
   10.7288   -3.8197   19.9525 C   0  0  0  0  0  0  0  0  0  0  0  0
   10.1189   -5.0054   19.6987 C   0  0  0  0  0  0  0  0  0  0  0  0
  1  3  4  0
  1  7  4  0
  2 21  4  0
  2 27  4  0
  3  9  4  0
  3 10  4  0
  4  8  4  0
  4 18  4  0
  4 25  1  0
  5  9  4  0
  5 12  4  0
  6 13  1  0
  6 27  1  0
  7 28  4  0
  8 11  4  0
  9 29  4  0
 10 12  4  0
 11 24  1  0
 11 26  4  0
 12 25  1  0
 13 28  1  0
 14 20  4  0
 14 23  4  0
 15 17  4  0
 15 21  4  0
 16 19  4  0
 16 23  4  0
 17 22  4  0
 18 26  4  0
 19 24  4  0
 20 24  4  0
 22 27  4  0
 28 29  4  0
M  END
$$$$

 Created by Python create_sdf_string function

 29 33  0  0  0  0  0  0  0  0999 V2000
   10.7215   -3.3326   17.6437 C   0  0  0  0  0  0  0  0  0  0  0  0
    9.9489   -3.4675   24.6487 N   0  0  0  0  0  0  0  0  0  0  0  0
   10.0172   -4.4740   17.4101 C   0  0  0  0  0  0  0  0  0  0  0  0
    6.9051   -7.9575   16.4222 C   0  0  0  0  0  0  0  0  0  0  0  0
    8.9969   -6.3552   17.9668 N   0  0  0  0  0  0  0  0  0  0  0  0
   10.6702   -3.9051   22.4070 C   0  0  0  0  0  0  0  0  0  0  0  0
   11.0625   -3.0028   18.8894 C   0  0  0  0  0  0  0  0  0  0  0  0
    5.6180   -7.9194   16.1754 O   0  0  0  0  0  0  0  0  0  0  0  0
    9.7259   -5.3080   18.4485 C   0  0  0  0  0  0  0  0  0  0  0  0
    9.4578   -5.0200   16.3036 N   0  0  0  0  0  0  0  0  0  0  0  0
    5.0287   -8.9365   16.8223 C   0  0  0  0  0  0  0  0  0  0  0  0
    8.7742   -6.1498   16.6764 C   0  0  0  0  0  0  0  0  0  0  0  0
   10.9418   -3.4032   21.2053 O   0  0  0  0  0  0  0  0  0  0  0  0
    1.4797   -8.6258   16.2950 C   0  0  0  0  0  0  0  0  0  0  0  0
    9.2861   -1.2743   25.3585 C   0  0  0  0  0  0  0  0  0  0  0  0
    1.8892  -10.3985   17.7511 N   0  0  0  0  0  0  0  0  0  0  0  0
    9.6210   -0.6952   24.0976 C   0  0  0  0  0  0  0  0  0  0  0  0
    7.0792   -9.0217   17.1429 C   0  0  0  0  0  0  0  0  0  0  0  0
    3.1713  -10.1816   17.6634 C   0  0  0  0  0  0  0  0  0  0  0  0
    2.7878   -8.3822   16.2137 C   0  0  0  0  0  0  0  0  0  0  0  0
    9.4601   -2.6590   25.6528 C   0  0  0  0  0  0  0  0  0  0  0  0
   10.1182   -1.5672   23.1165 C   0  0  0  0  0  0  0  0  0  0  0  0
    1.0552   -9.6360   17.0650 C   0  0  0  0  0  0  0  0  0  0  0  0
    3.6519   -9.1783   16.9039 C   0  0  0  0  0  0  0  0  0  0  0  0
    7.8675   -7.0096   15.9415 C   0  0  0  0  0  0  0  0  0  0  0  0
    5.9733   -9.6553   17.3832 N   0  0  0  0  0  0  0  0  0  0  0  0
   10.2411   -2.9363   23.4301 C   0  0  0  0  0  0  0  0  0  0  0  0
   10.7288   -3.8197   19.9525 C   0  0  0  0  0  0  0  0  0  0  0  0
   10.1189   -5.0054   19.6987 C   0  0  0  0  0  0  0  0  0  0  0  0
  1  3  4  0
  1  7  4  0
  2 21  4  0
  2 27  4  0
  3  9  4  0
  3 10  4  0
  4  8  4  0
  4 18  4  0
  4 25  1  0
  5  9  4  0
  5 12  4  0
  6 13  1  0
  6 27  1  0
  7 28  4  0
  8 11  4  0
  9 29  4  0
 10 12  4  0
 11 24  1  0
 11 26  4  0
 12 25  1  0
 13 28  1  0
 14 20  4  0
 14 23  4  0
 15 17  4  0
 15 21  4  0
 16 19  4  0
 16 23  4  0
 17 22  4  0
 18 26  4  0
 19 24  4  0
 20 24  4  0
 22 27  4  0
 28 29  4  0
M  END
$$$$

 Created by Python create_sdf_string function

 29 33  0  0  0  0  0  0  0  0999 V2000
   10.7215   -3.3326   17.6437 C   0  0  0  0  0  0  0  0  0  0  0  0
    9.9489   -3.4675   24.6487 N   0  0  0  0  0  0  0  0  0  0  0  0
   10.0172   -4.4740   17.4101 C   0  0  0  0  0  0  0  0  0  0  0  0
    6.9051   -7.9575   16.4222 C   0  0  0  0  0  0  0  0  0  0  0  0
    8.9969   -6.3552   17.9668 N   0  0  0  0  0  0  0  0  0  0  0  0
   10.6702   -3.9051   22.4070 C   0  0  0  0  0  0  0  0  0  0  0  0
   11.0625   -3.0028   18.8894 C   0  0  0  0  0  0  0  0  0  0  0  0
    5.6180   -7.9194   16.1754 O   0  0  0  0  0  0  0  0  0  0  0  0
    9.7259   -5.3080   18.4485 C   0  0  0  0  0  0  0  0  0  0  0  0
    9.4578   -5.0200   16.3036 N   0  0  0  0  0  0  0  0  0  0  0  0
    5.0287   -8.9365   16.8223 C   0  0  0  0  0  0  0  0  0  0  0  0
    8.7742   -6.1498   16.6764 C   0  0  0  0  0  0  0  0  0  0  0  0
   10.9418   -3.4032   21.2053 O   0  0  0  0  0  0  0  0  0  0  0  0
    1.4797   -8.6258   16.2950 C   0  0  0  0  0  0  0  0  0  0  0  0
    9.2861   -1.2743   25.3585 C   0  0  0  0  0  0  0  0  0  0  0  0
    1.8892  -10.3985   17.7511 N   0  0  0  0  0  0  0  0  0  0  0  0
    9.6210   -0.6952   24.0976 C   0  0  0  0  0  0  0  0  0  0  0  0
    7.0792   -9.0217   17.1429 C   0  0  0  0  0  0  0  0  0  0  0  0
    3.1713  -10.1816   17.6634 C   0  0  0  0  0  0  0  0  0  0  0  0
    2.7878   -8.3822   16.2137 C   0  0  0  0  0  0  0  0  0  0  0  0
    9.4601   -2.6590   25.6528 C   0  0  0  0  0  0  0  0  0  0  0  0
   10.1182   -1.5672   23.1165 C   0  0  0  0  0  0  0  0  0  0  0  0
    1.0552   -9.6360   17.0650 C   0  0  0  0  0  0  0  0  0  0  0  0
    3.6519   -9.1783   16.9039 C   0  0  0  0  0  0  0  0  0  0  0  0
    7.8675   -7.0096   15.9415 C   0  0  0  0  0  0  0  0  0  0  0  0
    5.9733   -9.6553   17.3832 N   0  0  0  0  0  0  0  0  0  0  0  0
   10.2411   -2.9363   23.4301 C   0  0  0  0  0  0  0  0  0  0  0  0
   10.7288   -3.8197   19.9525 C   0  0  0  0  0  0  0  0  0  0  0  0
   10.1189   -5.0054   19.6987 C   0  0  0  0  0  0  0  0  0  0  0  0
  1  3  4  0
  1  7  4  0
  2 21  4  0
  2 27  4  0
  3  9  4  0
  3 10  4  0
  4  8  4  0
  4 18  4  0
  4 25  1  0
  5  9  4  0
  5 12  4  0
  6 13  1  0
  6 27  1  0
  7 28  4  0
  8 11  4  0
  9 29  4  0
 10 12  4  0
 11 24  1  0
 11 26  4  0
 12 25  1  0
 13 28  1  0
 14 20  4  0
 14 23  4  0
 15 17  4  0
 15 21  4  0
 16 19  4  0
 16 23  4  0
 17 22  4  0
 18 26  4  0
 19 24  4  0
 20 24  4  0
 22 27  4  0
 28 29  4  0
M  END
$$$$

 Created by Python create_sdf_string function

 29 33  0  0  0  0  0  0  0  0999 V2000
   10.7215   -3.3326   17.6437 C   0  0  0  0  0  0  0  0  0  0  0  0
    9.9489   -3.4675   24.6487 N   0  0  0  0  0  0  0  0  0  0  0  0
   10.0172   -4.4740   17.4101 C   0  0  0  0  0  0  0  0  0  0  0  0
    6.9051   -7.9575   16.4222 C   0  0  0  0  0  0  0  0  0  0  0  0
    8.9969   -6.3552   17.9668 N   0  0  0  0  0  0  0  0  0  0  0  0
   10.6702   -3.9051   22.4070 C   0  0  0  0  0  0  0  0  0  0  0  0
   11.0625   -3.0028   18.8894 C   0  0  0  0  0  0  0  0  0  0  0  0
    5.6180   -7.9194   16.1754 O   0  0  0  0  0  0  0  0  0  0  0  0
    9.7259   -5.3080   18.4485 C   0  0  0  0  0  0  0  0  0  0  0  0
    9.4578   -5.0200   16.3036 N   0  0  0  0  0  0  0  0  0  0  0  0
    5.0287   -8.9365   16.8223 C   0  0  0  0  0  0  0  0  0  0  0  0
    8.7742   -6.1498   16.6764 C   0  0  0  0  0  0  0  0  0  0  0  0
   10.9418   -3.4032   21.2053 O   0  0  0  0  0  0  0  0  0  0  0  0
    1.4797   -8.6258   16.2950 C   0  0  0  0  0  0  0  0  0  0  0  0
    9.2861   -1.2743   25.3585 C   0  0  0  0  0  0  0  0  0  0  0  0
    1.8892  -10.3985   17.7511 N   0  0  0  0  0  0  0  0  0  0  0  0
    9.6210   -0.6952   24.0976 C   0  0  0  0  0  0  0  0  0  0  0  0
    7.0792   -9.0217   17.1429 C   0  0  0  0  0  0  0  0  0  0  0  0
    3.1713  -10.1816   17.6634 C   0  0  0  0  0  0  0  0  0  0  0  0
    2.7878   -8.3822   16.2137 C   0  0  0  0  0  0  0  0  0  0  0  0
    9.4601   -2.6590   25.6528 C   0  0  0  0  0  0  0  0  0  0  0  0
   10.1182   -1.5672   23.1165 C   0  0  0  0  0  0  0  0  0  0  0  0
    1.0552   -9.6360   17.0650 C   0  0  0  0  0  0  0  0  0  0  0  0
    3.6519   -9.1783   16.9039 C   0  0  0  0  0  0  0  0  0  0  0  0
    7.8675   -7.0096   15.9415 C   0  0  0  0  0  0  0  0  0  0  0  0
    5.9733   -9.6553   17.3832 N   0  0  0  0  0  0  0  0  0  0  0  0
   10.2411   -2.9363   23.4301 C   0  0  0  0  0  0  0  0  0  0  0  0
   10.7288   -3.8197   19.9525 C   0  0  0  0  0  0  0  0  0  0  0  0
   10.1189   -5.0054   19.6987 C   0  0  0  0  0  0  0  0  0  0  0  0
  1  3  4  0
  1  7  4  0
  2 21  4  0
  2 27  4  0
  3  9  4  0
  3 10  4  0
  4  8  4  0
  4 18  4  0
  4 25  1  0
  5  9  4  0
  5 12  4  0
  6 13  1  0
  6 27  1  0
  7 28  4  0
  8 11  4  0
  9 29  4  0
 10 12  4  0
 11 24  1  0
 11 26  4  0
 12 25  1  0
 13 28  1  0
 14 20  4  0
 14 23  4  0
 15 17  4  0
 15 21  4  0
 16 19  4  0
 16 23  4  0
 17 22  4  0
 18 26  4  0
 19 24  4  0
 20 24  4  0
 22 27  4  0
 28 29  4  0
M  END
$$$$

 Created by Python create_sdf_string function

 29 33  0  0  0  0  0  0  0  0999 V2000
   10.7215   -3.3326   17.6437 C   0  0  0  0  0  0  0  0  0  0  0  0
    9.9489   -3.4675   24.6487 N   0  0  0  0  0  0  0  0  0  0  0  0
   10.0172   -4.4740   17.4101 C   0  0  0  0  0  0  0  0  0  0  0  0
    6.9051   -7.9575   16.4222 C   0  0  0  0  0  0  0  0  0  0  0  0
    8.9969   -6.3552   17.9668 N   0  0  0  0  0  0  0  0  0  0  0  0
   10.6702   -3.9051   22.4070 C   0  0  0  0  0  0  0  0  0  0  0  0
   11.0625   -3.0028   18.8894 C   0  0  0  0  0  0  0  0  0  0  0  0
    5.6180   -7.9194   16.1754 O   0  0  0  0  0  0  0  0  0  0  0  0
    9.7259   -5.3080   18.4485 C   0  0  0  0  0  0  0  0  0  0  0  0
    9.4578   -5.0200   16.3036 N   0  0  0  0  0  0  0  0  0  0  0  0
    5.0287   -8.9365   16.8223 C   0  0  0  0  0  0  0  0  0  0  0  0
    8.7742   -6.1498   16.6764 C   0  0  0  0  0  0  0  0  0  0  0  0
   10.9418   -3.4032   21.2053 O   0  0  0  0  0  0  0  0  0  0  0  0
    1.4797   -8.6258   16.2950 C   0  0  0  0  0  0  0  0  0  0  0  0
    9.2861   -1.2743   25.3585 C   0  0  0  0  0  0  0  0  0  0  0  0
    1.8892  -10.3985   17.7511 N   0  0  0  0  0  0  0  0  0  0  0  0
    9.6210   -0.6952   24.0976 C   0  0  0  0  0  0  0  0  0  0  0  0
    7.0792   -9.0217   17.1429 C   0  0  0  0  0  0  0  0  0  0  0  0
    3.1713  -10.1816   17.6634 C   0  0  0  0  0  0  0  0  0  0  0  0
    2.7878   -8.3822   16.2137 C   0  0  0  0  0  0  0  0  0  0  0  0
    9.4601   -2.6590   25.6528 C   0  0  0  0  0  0  0  0  0  0  0  0
   10.1182   -1.5672   23.1165 C   0  0  0  0  0  0  0  0  0  0  0  0
    1.0552   -9.6360   17.0650 C   0  0  0  0  0  0  0  0  0  0  0  0
    3.6519   -9.1783   16.9039 C   0  0  0  0  0  0  0  0  0  0  0  0
    7.8675   -7.0096   15.9415 C   0  0  0  0  0  0  0  0  0  0  0  0
    5.9733   -9.6553   17.3832 N   0  0  0  0  0  0  0  0  0  0  0  0
   10.2411   -2.9363   23.4301 C   0  0  0  0  0  0  0  0  0  0  0  0
   10.7288   -3.8197   19.9525 C   0  0  0  0  0  0  0  0  0  0  0  0
   10.1189   -5.0054   19.6987 C   0  0  0  0  0  0  0  0  0  0  0  0
  1  3  4  0
  1  7  4  0
  2 21  4  0
  2 27  4  0
  3  9  4  0
  3 10  4  0
  4  8  4  0
  4 18  4  0
  4 25  1  0
  5  9  4  0
  5 12  4  0
  6 13  1  0
  6 27  1  0
  7 28  4  0
  8 11  4  0
  9 29  4  0
 10 12  4  0
 11 24  1  0
 11 26  4  0
 12 25  1  0
 13 28  1  0
 14 20  4  0
 14 23  4  0
 15 17  4  0
 15 21  4  0
 16 19  4  0
 16 23  4  0
 17 22  4  0
 18 26  4  0
 19 24  4  0
 20 24  4  0
 22 27  4  0
 28 29  4  0
M  END
$$$$

 Created by Python create_sdf_string function

 29 33  0  0  0  0  0  0  0  0999 V2000
   10.7215   -3.3326   17.6437 C   0  0  0  0  0  0  0  0  0  0  0  0
    9.9489   -3.4675   24.6487 N   0  0  0  0  0  0  0  0  0  0  0  0
   10.0172   -4.4740   17.4101 C   0  0  0  0  0  0  0  0  0  0  0  0
    6.9051   -7.9575   16.4222 C   0  0  0  0  0  0  0  0  0  0  0  0
    8.9969   -6.3552   17.9668 N   0  0  0  0  0  0  0  0  0  0  0  0
   10.6702   -3.9051   22.4070 C   0  0  0  0  0  0  0  0  0  0  0  0
   11.0625   -3.0028   18.8894 C   0  0  0  0  0  0  0  0  0  0  0  0
    5.6180   -7.9194   16.1754 O   0  0  0  0  0  0  0  0  0  0  0  0
    9.7259   -5.3080   18.4485 C   0  0  0  0  0  0  0  0  0  0  0  0
    9.4578   -5.0200   16.3036 N   0  0  0  0  0  0  0  0  0  0  0  0
    5.0287   -8.9365   16.8223 C   0  0  0  0  0  0  0  0  0  0  0  0
    8.7742   -6.1498   16.6764 C   0  0  0  0  0  0  0  0  0  0  0  0
   10.9418   -3.4032   21.2053 O   0  0  0  0  0  0  0  0  0  0  0  0
    1.4797   -8.6258   16.2950 C   0  0  0  0  0  0  0  0  0  0  0  0
    9.2861   -1.2743   25.3585 C   0  0  0  0  0  0  0  0  0  0  0  0
    1.8892  -10.3985   17.7511 N   0  0  0  0  0  0  0  0  0  0  0  0
    9.6210   -0.6952   24.0976 C   0  0  0  0  0  0  0  0  0  0  0  0
    7.0792   -9.0217   17.1429 C   0  0  0  0  0  0  0  0  0  0  0  0
    3.1713  -10.1816   17.6634 C   0  0  0  0  0  0  0  0  0  0  0  0
    2.7878   -8.3822   16.2137 C   0  0  0  0  0  0  0  0  0  0  0  0
    9.4601   -2.6590   25.6528 C   0  0  0  0  0  0  0  0  0  0  0  0
   10.1182   -1.5672   23.1165 C   0  0  0  0  0  0  0  0  0  0  0  0
    1.0552   -9.6360   17.0650 C   0  0  0  0  0  0  0  0  0  0  0  0
    3.6519   -9.1783   16.9039 C   0  0  0  0  0  0  0  0  0  0  0  0
    7.8675   -7.0096   15.9415 C   0  0  0  0  0  0  0  0  0  0  0  0
    5.9733   -9.6553   17.3832 N   0  0  0  0  0  0  0  0  0  0  0  0
   10.2411   -2.9363   23.4301 C   0  0  0  0  0  0  0  0  0  0  0  0
   10.7288   -3.8197   19.9525 C   0  0  0  0  0  0  0  0  0  0  0  0
   10.1189   -5.0054   19.6987 C   0  0  0  0  0  0  0  0  0  0  0  0
  1  3  4  0
  1  7  4  0
  2 21  4  0
  2 27  4  0
  3  9  4  0
  3 10  4  0
  4  8  4  0
  4 18  4  0
  4 25  1  0
  5  9  4  0
  5 12  4  0
  6 13  1  0
  6 27  1  0
  7 28  4  0
  8 11  4  0
  9 29  4  0
 10 12  4  0
 11 24  1  0
 11 26  4  0
 12 25  1  0
 13 28  1  0
 14 20  4  0
 14 23  4  0
 15 17  4  0
 15 21  4  0
 16 19  4  0
 16 23  4  0
 17 22  4  0
 18 26  4  0
 19 24  4  0
 20 24  4  0
 22 27  4  0
 28 29  4  0
M  END
$$$$

 Created by Python create_sdf_string function

 29 33  0  0  0  0  0  0  0  0999 V2000
   10.7215   -3.3326   17.6437 C   0  0  0  0  0  0  0  0  0  0  0  0
    9.9489   -3.4675   24.6487 N   0  0  0  0  0  0  0  0  0  0  0  0
   10.0172   -4.4740   17.4101 C   0  0  0  0  0  0  0  0  0  0  0  0
    6.9051   -7.9575   16.4222 C   0  0  0  0  0  0  0  0  0  0  0  0
    8.9969   -6.3552   17.9668 N   0  0  0  0  0  0  0  0  0  0  0  0
   10.6702   -3.9051   22.4070 C   0  0  0  0  0  0  0  0  0  0  0  0
   11.0625   -3.0028   18.8894 C   0  0  0  0  0  0  0  0  0  0  0  0
    5.6180   -7.9194   16.1754 O   0  0  0  0  0  0  0  0  0  0  0  0
    9.7259   -5.3080   18.4485 C   0  0  0  0  0  0  0  0  0  0  0  0
    9.4578   -5.0200   16.3036 N   0  0  0  0  0  0  0  0  0  0  0  0
    5.0287   -8.9365   16.8223 C   0  0  0  0  0  0  0  0  0  0  0  0
    8.7742   -6.1498   16.6764 C   0  0  0  0  0  0  0  0  0  0  0  0
   10.9418   -3.4032   21.2053 O   0  0  0  0  0  0  0  0  0  0  0  0
    1.4797   -8.6258   16.2950 C   0  0  0  0  0  0  0  0  0  0  0  0
    9.2861   -1.2743   25.3585 C   0  0  0  0  0  0  0  0  0  0  0  0
    1.8892  -10.3985   17.7511 N   0  0  0  0  0  0  0  0  0  0  0  0
    9.6210   -0.6952   24.0976 C   0  0  0  0  0  0  0  0  0  0  0  0
    7.0792   -9.0217   17.1429 C   0  0  0  0  0  0  0  0  0  0  0  0
    3.1713  -10.1816   17.6634 C   0  0  0  0  0  0  0  0  0  0  0  0
    2.7878   -8.3822   16.2137 C   0  0  0  0  0  0  0  0  0  0  0  0
    9.4601   -2.6590   25.6528 C   0  0  0  0  0  0  0  0  0  0  0  0
   10.1182   -1.5672   23.1165 C   0  0  0  0  0  0  0  0  0  0  0  0
    1.0552   -9.6360   17.0650 C   0  0  0  0  0  0  0  0  0  0  0  0
    3.6519   -9.1783   16.9039 C   0  0  0  0  0  0  0  0  0  0  0  0
    7.8675   -7.0096   15.9415 C   0  0  0  0  0  0  0  0  0  0  0  0
    5.9733   -9.6553   17.3832 N   0  0  0  0  0  0  0  0  0  0  0  0
   10.2411   -2.9363   23.4301 C   0  0  0  0  0  0  0  0  0  0  0  0
   10.7288   -3.8197   19.9525 C   0  0  0  0  0  0  0  0  0  0  0  0
   10.1189   -5.0054   19.6987 C   0  0  0  0  0  0  0  0  0  0  0  0
  1  3  4  0
  1  7  4  0
  2 21  4  0
  2 27  4  0
  3  9  4  0
  3 10  4  0
  4  8  4  0
  4 18  4  0
  4 25  1  0
  5  9  4  0
  5 12  4  0
  6 13  1  0
  6 27  1  0
  7 28  4  0
  8 11  4  0
  9 29  4  0
 10 12  4  0
 11 24  1  0
 11 26  4  0
 12 25  1  0
 13 28  1  0
 14 20  4  0
 14 23  4  0
 15 17  4  0
 15 21  4  0
 16 19  4  0
 16 23  4  0
 17 22  4  0
 18 26  4  0
 19 24  4  0
 20 24  4  0
 22 27  4  0
 28 29  4  0
M  END
$$$$

 Created by Python create_sdf_string function

 29 33  0  0  0  0  0  0  0  0999 V2000
   10.7215   -3.3326   17.6437 C   0  0  0  0  0  0  0  0  0  0  0  0
    9.9489   -3.4675   24.6487 N   0  0  0  0  0  0  0  0  0  0  0  0
   10.0172   -4.4740   17.4101 C   0  0  0  0  0  0  0  0  0  0  0  0
    6.9051   -7.9575   16.4222 C   0  0  0  0  0  0  0  0  0  0  0  0
    8.9969   -6.3552   17.9668 N   0  0  0  0  0  0  0  0  0  0  0  0
   10.6702   -3.9051   22.4070 C   0  0  0  0  0  0  0  0  0  0  0  0
   11.0625   -3.0028   18.8894 C   0  0  0  0  0  0  0  0  0  0  0  0
    5.6180   -7.9194   16.1754 O   0  0  0  0  0  0  0  0  0  0  0  0
    9.7259   -5.3080   18.4485 C   0  0  0  0  0  0  0  0  0  0  0  0
    9.4578   -5.0200   16.3036 N   0  0  0  0  0  0  0  0  0  0  0  0
    5.0287   -8.9365   16.8223 C   0  0  0  0  0  0  0  0  0  0  0  0
    8.7742   -6.1498   16.6764 C   0  0  0  0  0  0  0  0  0  0  0  0
   10.9418   -3.4032   21.2053 O   0  0  0  0  0  0  0  0  0  0  0  0
    1.4797   -8.6258   16.2950 C   0  0  0  0  0  0  0  0  0  0  0  0
    9.2861   -1.2743   25.3585 C   0  0  0  0  0  0  0  0  0  0  0  0
    1.8892  -10.3985   17.7511 N   0  0  0  0  0  0  0  0  0  0  0  0
    9.6210   -0.6952   24.0976 C   0  0  0  0  0  0  0  0  0  0  0  0
    7.0792   -9.0217   17.1429 C   0  0  0  0  0  0  0  0  0  0  0  0
    3.1713  -10.1816   17.6634 C   0  0  0  0  0  0  0  0  0  0  0  0
    2.7878   -8.3822   16.2137 C   0  0  0  0  0  0  0  0  0  0  0  0
    9.4601   -2.6590   25.6528 C   0  0  0  0  0  0  0  0  0  0  0  0
   10.1182   -1.5672   23.1165 C   0  0  0  0  0  0  0  0  0  0  0  0
    1.0552   -9.6360   17.0650 C   0  0  0  0  0  0  0  0  0  0  0  0
    3.6519   -9.1783   16.9039 C   0  0  0  0  0  0  0  0  0  0  0  0
    7.8675   -7.0096   15.9415 C   0  0  0  0  0  0  0  0  0  0  0  0
    5.9733   -9.6553   17.3832 N   0  0  0  0  0  0  0  0  0  0  0  0
   10.2411   -2.9363   23.4301 C   0  0  0  0  0  0  0  0  0  0  0  0
   10.7288   -3.8197   19.9525 C   0  0  0  0  0  0  0  0  0  0  0  0
   10.1189   -5.0054   19.6987 C   0  0  0  0  0  0  0  0  0  0  0  0
  1  3  4  0
  1  7  4  0
  2 21  4  0
  2 27  4  0
  3  9  4  0
  3 10  4  0
  4  8  4  0
  4 18  4  0
  4 25  1  0
  5  9  4  0
  5 12  4  0
  6 13  1  0
  6 27  1  0
  7 28  4  0
  8 11  4  0
  9 29  4  0
 10 12  4  0
 11 24  1  0
 11 26  4  0
 12 25  1  0
 13 28  1  0
 14 20  4  0
 14 23  4  0
 15 17  4  0
 15 21  4  0
 16 19  4  0
 16 23  4  0
 17 22  4  0
 18 26  4  0
 19 24  4  0
 20 24  4  0
 22 27  4  0
 28 29  4  0
M  END
$$$$

 Created by Python create_sdf_string function

 29 33  0  0  0  0  0  0  0  0999 V2000
   10.7215   -3.3326   17.6437 C   0  0  0  0  0  0  0  0  0  0  0  0
    9.9489   -3.4675   24.6487 N   0  0  0  0  0  0  0  0  0  0  0  0
   10.0172   -4.4740   17.4101 C   0  0  0  0  0  0  0  0  0  0  0  0
    6.9051   -7.9575   16.4222 C   0  0  0  0  0  0  0  0  0  0  0  0
    8.9969   -6.3552   17.9668 N   0  0  0  0  0  0  0  0  0  0  0  0
   10.6702   -3.9051   22.4070 C   0  0  0  0  0  0  0  0  0  0  0  0
   11.0625   -3.0028   18.8894 C   0  0  0  0  0  0  0  0  0  0  0  0
    5.6180   -7.9194   16.1754 O   0  0  0  0  0  0  0  0  0  0  0  0
    9.7259   -5.3080   18.4485 C   0  0  0  0  0  0  0  0  0  0  0  0
    9.4578   -5.0200   16.3036 N   0  0  0  0  0  0  0  0  0  0  0  0
    5.0287   -8.9365   16.8223 C   0  0  0  0  0  0  0  0  0  0  0  0
    8.7742   -6.1498   16.6764 C   0  0  0  0  0  0  0  0  0  0  0  0
   10.9418   -3.4032   21.2053 O   0  0  0  0  0  0  0  0  0  0  0  0
    1.4797   -8.6258   16.2950 C   0  0  0  0  0  0  0  0  0  0  0  0
    9.2861   -1.2743   25.3585 C   0  0  0  0  0  0  0  0  0  0  0  0
    1.8892  -10.3985   17.7511 N   0  0  0  0  0  0  0  0  0  0  0  0
    9.6210   -0.6952   24.0976 C   0  0  0  0  0  0  0  0  0  0  0  0
    7.0792   -9.0217   17.1429 C   0  0  0  0  0  0  0  0  0  0  0  0
    3.1713  -10.1816   17.6634 C   0  0  0  0  0  0  0  0  0  0  0  0
    2.7878   -8.3822   16.2137 C   0  0  0  0  0  0  0  0  0  0  0  0
    9.4601   -2.6590   25.6528 C   0  0  0  0  0  0  0  0  0  0  0  0
   10.1182   -1.5672   23.1165 C   0  0  0  0  0  0  0  0  0  0  0  0
    1.0552   -9.6360   17.0650 C   0  0  0  0  0  0  0  0  0  0  0  0
    3.6519   -9.1783   16.9039 C   0  0  0  0  0  0  0  0  0  0  0  0
    7.8675   -7.0096   15.9415 C   0  0  0  0  0  0  0  0  0  0  0  0
    5.9733   -9.6553   17.3832 N   0  0  0  0  0  0  0  0  0  0  0  0
   10.2411   -2.9363   23.4301 C   0  0  0  0  0  0  0  0  0  0  0  0
   10.7288   -3.8197   19.9525 C   0  0  0  0  0  0  0  0  0  0  0  0
   10.1189   -5.0054   19.6987 C   0  0  0  0  0  0  0  0  0  0  0  0
  1  3  4  0
  1  7  4  0
  2 21  4  0
  2 27  4  0
  3  9  4  0
  3 10  4  0
  4  8  4  0
  4 18  4  0
  4 25  1  0
  5  9  4  0
  5 12  4  0
  6 13  1  0
  6 27  1  0
  7 28  4  0
  8 11  4  0
  9 29  4  0
 10 12  4  0
 11 24  1  0
 11 26  4  0
 12 25  1  0
 13 28  1  0
 14 20  4  0
 14 23  4  0
 15 17  4  0
 15 21  4  0
 16 19  4  0
 16 23  4  0
 17 22  4  0
 18 26  4  0
 19 24  4  0
 20 24  4  0
 22 27  4  0
 28 29  4  0
M  END
$$$$

 Created by Python create_sdf_string function

 29 33  0  0  0  0  0  0  0  0999 V2000
   10.7215   -3.3326   17.6437 C   0  0  0  0  0  0  0  0  0  0  0  0
    9.9489   -3.4675   24.6487 N   0  0  0  0  0  0  0  0  0  0  0  0
   10.0172   -4.4740   17.4101 C   0  0  0  0  0  0  0  0  0  0  0  0
    6.9051   -7.9575   16.4222 C   0  0  0  0  0  0  0  0  0  0  0  0
    8.9969   -6.3552   17.9668 N   0  0  0  0  0  0  0  0  0  0  0  0
   10.6702   -3.9051   22.4070 C   0  0  0  0  0  0  0  0  0  0  0  0
   11.0625   -3.0028   18.8894 C   0  0  0  0  0  0  0  0  0  0  0  0
    5.6180   -7.9194   16.1754 O   0  0  0  0  0  0  0  0  0  0  0  0
    9.7259   -5.3080   18.4485 C   0  0  0  0  0  0  0  0  0  0  0  0
    9.4578   -5.0200   16.3036 N   0  0  0  0  0  0  0  0  0  0  0  0
    5.0287   -8.9365   16.8223 C   0  0  0  0  0  0  0  0  0  0  0  0
    8.7742   -6.1498   16.6764 C   0  0  0  0  0  0  0  0  0  0  0  0
   10.9418   -3.4032   21.2053 O   0  0  0  0  0  0  0  0  0  0  0  0
    1.4797   -8.6258   16.2950 C   0  0  0  0  0  0  0  0  0  0  0  0
    9.2861   -1.2743   25.3585 C   0  0  0  0  0  0  0  0  0  0  0  0
    1.8892  -10.3985   17.7511 N   0  0  0  0  0  0  0  0  0  0  0  0
    9.6210   -0.6952   24.0976 C   0  0  0  0  0  0  0  0  0  0  0  0
    7.0792   -9.0217   17.1429 C   0  0  0  0  0  0  0  0  0  0  0  0
    3.1713  -10.1816   17.6634 C   0  0  0  0  0  0  0  0  0  0  0  0
    2.7878   -8.3822   16.2137 C   0  0  0  0  0  0  0  0  0  0  0  0
    9.4601   -2.6590   25.6528 C   0  0  0  0  0  0  0  0  0  0  0  0
   10.1182   -1.5672   23.1165 C   0  0  0  0  0  0  0  0  0  0  0  0
    1.0552   -9.6360   17.0650 C   0  0  0  0  0  0  0  0  0  0  0  0
    3.6519   -9.1783   16.9039 C   0  0  0  0  0  0  0  0  0  0  0  0
    7.8675   -7.0096   15.9415 C   0  0  0  0  0  0  0  0  0  0  0  0
    5.9733   -9.6553   17.3832 N   0  0  0  0  0  0  0  0  0  0  0  0
   10.2411   -2.9363   23.4301 C   0  0  0  0  0  0  0  0  0  0  0  0
   10.7288   -3.8197   19.9525 C   0  0  0  0  0  0  0  0  0  0  0  0
   10.1189   -5.0054   19.6987 C   0  0  0  0  0  0  0  0  0  0  0  0
  1  3  4  0
  1  7  4  0
  2 21  4  0
  2 27  4  0
  3  9  4  0
  3 10  4  0
  4  8  4  0
  4 18  4  0
  4 25  1  0
  5  9  4  0
  5 12  4  0
  6 13  1  0
  6 27  1  0
  7 28  4  0
  8 11  4  0
  9 29  4  0
 10 12  4  0
 11 24  1  0
 11 26  4  0
 12 25  1  0
 13 28  1  0
 14 20  4  0
 14 23  4  0
 15 17  4  0
 15 21  4  0
 16 19  4  0
 16 23  4  0
 17 22  4  0
 18 26  4  0
 19 24  4  0
 20 24  4  0
 22 27  4  0
 28 29  4  0
M  END
$$$$

 Created by Python create_sdf_string function

 29 33  0  0  0  0  0  0  0  0999 V2000
   10.7215   -3.3326   17.6437 C   0  0  0  0  0  0  0  0  0  0  0  0
    9.9489   -3.4675   24.6487 N   0  0  0  0  0  0  0  0  0  0  0  0
   10.0172   -4.4740   17.4101 C   0  0  0  0  0  0  0  0  0  0  0  0
    6.9051   -7.9575   16.4222 C   0  0  0  0  0  0  0  0  0  0  0  0
    8.9969   -6.3552   17.9668 N   0  0  0  0  0  0  0  0  0  0  0  0
   10.6702   -3.9051   22.4070 C   0  0  0  0  0  0  0  0  0  0  0  0
   11.0625   -3.0028   18.8894 C   0  0  0  0  0  0  0  0  0  0  0  0
    5.6180   -7.9194   16.1754 O   0  0  0  0  0  0  0  0  0  0  0  0
    9.7259   -5.3080   18.4485 C   0  0  0  0  0  0  0  0  0  0  0  0
    9.4578   -5.0200   16.3036 N   0  0  0  0  0  0  0  0  0  0  0  0
    5.0287   -8.9365   16.8223 C   0  0  0  0  0  0  0  0  0  0  0  0
    8.7742   -6.1498   16.6764 C   0  0  0  0  0  0  0  0  0  0  0  0
   10.9418   -3.4032   21.2053 O   0  0  0  0  0  0  0  0  0  0  0  0
    1.4797   -8.6258   16.2950 C   0  0  0  0  0  0  0  0  0  0  0  0
    9.2861   -1.2743   25.3585 C   0  0  0  0  0  0  0  0  0  0  0  0
    1.8892  -10.3985   17.7511 N   0  0  0  0  0  0  0  0  0  0  0  0
    9.6210   -0.6952   24.0976 C   0  0  0  0  0  0  0  0  0  0  0  0
    7.0792   -9.0217   17.1429 C   0  0  0  0  0  0  0  0  0  0  0  0
    3.1713  -10.1816   17.6634 C   0  0  0  0  0  0  0  0  0  0  0  0
    2.7878   -8.3822   16.2137 C   0  0  0  0  0  0  0  0  0  0  0  0
    9.4601   -2.6590   25.6528 C   0  0  0  0  0  0  0  0  0  0  0  0
   10.1182   -1.5672   23.1165 C   0  0  0  0  0  0  0  0  0  0  0  0
    1.0552   -9.6360   17.0650 C   0  0  0  0  0  0  0  0  0  0  0  0
    3.6519   -9.1783   16.9039 C   0  0  0  0  0  0  0  0  0  0  0  0
    7.8675   -7.0096   15.9415 C   0  0  0  0  0  0  0  0  0  0  0  0
    5.9733   -9.6553   17.3832 N   0  0  0  0  0  0  0  0  0  0  0  0
   10.2411   -2.9363   23.4301 C   0  0  0  0  0  0  0  0  0  0  0  0
   10.7288   -3.8197   19.9525 C   0  0  0  0  0  0  0  0  0  0  0  0
   10.1189   -5.0054   19.6987 C   0  0  0  0  0  0  0  0  0  0  0  0
  1  3  4  0
  1  7  4  0
  2 21  4  0
  2 27  4  0
  3  9  4  0
  3 10  4  0
  4  8  4  0
  4 18  4  0
  4 25  1  0
  5  9  4  0
  5 12  4  0
  6 13  1  0
  6 27  1  0
  7 28  4  0
  8 11  4  0
  9 29  4  0
 10 12  4  0
 11 24  1  0
 11 26  4  0
 12 25  1  0
 13 28  1  0
 14 20  4  0
 14 23  4  0
 15 17  4  0
 15 21  4  0
 16 19  4  0
 16 23  4  0
 17 22  4  0
 18 26  4  0
 19 24  4  0
 20 24  4  0
 22 27  4  0
 28 29  4  0
M  END
$$$$

 Created by Python create_sdf_string function

 29 33  0  0  0  0  0  0  0  0999 V2000
   10.7215   -3.3326   17.6437 C   0  0  0  0  0  0  0  0  0  0  0  0
    9.9489   -3.4675   24.6487 N   0  0  0  0  0  0  0  0  0  0  0  0
   10.0172   -4.4740   17.4101 C   0  0  0  0  0  0  0  0  0  0  0  0
    6.9051   -7.9575   16.4222 C   0  0  0  0  0  0  0  0  0  0  0  0
    8.9969   -6.3552   17.9668 N   0  0  0  0  0  0  0  0  0  0  0  0
   10.6702   -3.9051   22.4070 C   0  0  0  0  0  0  0  0  0  0  0  0
   11.0625   -3.0028   18.8894 C   0  0  0  0  0  0  0  0  0  0  0  0
    5.6180   -7.9194   16.1754 O   0  0  0  0  0  0  0  0  0  0  0  0
    9.7259   -5.3080   18.4485 C   0  0  0  0  0  0  0  0  0  0  0  0
    9.4578   -5.0200   16.3036 N   0  0  0  0  0  0  0  0  0  0  0  0
    5.0287   -8.9365   16.8223 C   0  0  0  0  0  0  0  0  0  0  0  0
    8.7742   -6.1498   16.6764 C   0  0  0  0  0  0  0  0  0  0  0  0
   10.9418   -3.4032   21.2053 O   0  0  0  0  0  0  0  0  0  0  0  0
    1.4797   -8.6258   16.2950 C   0  0  0  0  0  0  0  0  0  0  0  0
    9.2861   -1.2743   25.3585 C   0  0  0  0  0  0  0  0  0  0  0  0
    1.8892  -10.3985   17.7511 N   0  0  0  0  0  0  0  0  0  0  0  0
    9.6210   -0.6952   24.0976 C   0  0  0  0  0  0  0  0  0  0  0  0
    7.0792   -9.0217   17.1429 C   0  0  0  0  0  0  0  0  0  0  0  0
    3.1713  -10.1816   17.6634 C   0  0  0  0  0  0  0  0  0  0  0  0
    2.7878   -8.3822   16.2137 C   0  0  0  0  0  0  0  0  0  0  0  0
    9.4601   -2.6590   25.6528 C   0  0  0  0  0  0  0  0  0  0  0  0
   10.1182   -1.5672   23.1165 C   0  0  0  0  0  0  0  0  0  0  0  0
    1.0552   -9.6360   17.0650 C   0  0  0  0  0  0  0  0  0  0  0  0
    3.6519   -9.1783   16.9039 C   0  0  0  0  0  0  0  0  0  0  0  0
    7.8675   -7.0096   15.9415 C   0  0  0  0  0  0  0  0  0  0  0  0
    5.9733   -9.6553   17.3832 N   0  0  0  0  0  0  0  0  0  0  0  0
   10.2411   -2.9363   23.4301 C   0  0  0  0  0  0  0  0  0  0  0  0
   10.7288   -3.8197   19.9525 C   0  0  0  0  0  0  0  0  0  0  0  0
   10.1189   -5.0054   19.6987 C   0  0  0  0  0  0  0  0  0  0  0  0
  1  3  4  0
  1  7  4  0
  2 21  4  0
  2 27  4  0
  3  9  4  0
  3 10  4  0
  4  8  4  0
  4 18  4  0
  4 25  1  0
  5  9  4  0
  5 12  4  0
  6 13  1  0
  6 27  1  0
  7 28  4  0
  8 11  4  0
  9 29  4  0
 10 12  4  0
 11 24  1  0
 11 26  4  0
 12 25  1  0
 13 28  1  0
 14 20  4  0
 14 23  4  0
 15 17  4  0
 15 21  4  0
 16 19  4  0
 16 23  4  0
 17 22  4  0
 18 26  4  0
 19 24  4  0
 20 24  4  0
 22 27  4  0
 28 29  4  0
M  END
$$$$

 Created by Python create_sdf_string function

 29 33  0  0  0  0  0  0  0  0999 V2000
   10.7215   -3.3326   17.6437 C   0  0  0  0  0  0  0  0  0  0  0  0
    9.9489   -3.4675   24.6487 N   0  0  0  0  0  0  0  0  0  0  0  0
   10.0172   -4.4740   17.4101 C   0  0  0  0  0  0  0  0  0  0  0  0
    6.9051   -7.9575   16.4222 C   0  0  0  0  0  0  0  0  0  0  0  0
    8.9969   -6.3552   17.9668 N   0  0  0  0  0  0  0  0  0  0  0  0
   10.6702   -3.9051   22.4070 C   0  0  0  0  0  0  0  0  0  0  0  0
   11.0625   -3.0028   18.8894 C   0  0  0  0  0  0  0  0  0  0  0  0
    5.6180   -7.9194   16.1754 O   0  0  0  0  0  0  0  0  0  0  0  0
    9.7259   -5.3080   18.4485 C   0  0  0  0  0  0  0  0  0  0  0  0
    9.4578   -5.0200   16.3036 N   0  0  0  0  0  0  0  0  0  0  0  0
    5.0287   -8.9365   16.8223 C   0  0  0  0  0  0  0  0  0  0  0  0
    8.7742   -6.1498   16.6764 C   0  0  0  0  0  0  0  0  0  0  0  0
   10.9418   -3.4032   21.2053 O   0  0  0  0  0  0  0  0  0  0  0  0
    1.4797   -8.6258   16.2950 C   0  0  0  0  0  0  0  0  0  0  0  0
    9.2861   -1.2743   25.3585 C   0  0  0  0  0  0  0  0  0  0  0  0
    1.8892  -10.3985   17.7511 N   0  0  0  0  0  0  0  0  0  0  0  0
    9.6210   -0.6952   24.0976 C   0  0  0  0  0  0  0  0  0  0  0  0
    7.0792   -9.0217   17.1429 C   0  0  0  0  0  0  0  0  0  0  0  0
    3.1713  -10.1816   17.6634 C   0  0  0  0  0  0  0  0  0  0  0  0
    2.7878   -8.3822   16.2137 C   0  0  0  0  0  0  0  0  0  0  0  0
    9.4601   -2.6590   25.6528 C   0  0  0  0  0  0  0  0  0  0  0  0
   10.1182   -1.5672   23.1165 C   0  0  0  0  0  0  0  0  0  0  0  0
    1.0552   -9.6360   17.0650 C   0  0  0  0  0  0  0  0  0  0  0  0
    3.6519   -9.1783   16.9039 C   0  0  0  0  0  0  0  0  0  0  0  0
    7.8675   -7.0096   15.9415 C   0  0  0  0  0  0  0  0  0  0  0  0
    5.9733   -9.6553   17.3832 N   0  0  0  0  0  0  0  0  0  0  0  0
   10.2411   -2.9363   23.4301 C   0  0  0  0  0  0  0  0  0  0  0  0
   10.7288   -3.8197   19.9525 C   0  0  0  0  0  0  0  0  0  0  0  0
   10.1189   -5.0054   19.6987 C   0  0  0  0  0  0  0  0  0  0  0  0
  1  3  4  0
  1  7  4  0
  2 21  4  0
  2 27  4  0
  3  9  4  0
  3 10  4  0
  4  8  4  0
  4 18  4  0
  4 25  1  0
  5  9  4  0
  5 12  4  0
  6 13  1  0
  6 27  1  0
  7 28  4  0
  8 11  4  0
  9 29  4  0
 10 12  4  0
 11 24  1  0
 11 26  4  0
 12 25  1  0
 13 28  1  0
 14 20  4  0
 14 23  4  0
 15 17  4  0
 15 21  4  0
 16 19  4  0
 16 23  4  0
 17 22  4  0
 18 26  4  0
 19 24  4  0
 20 24  4  0
 22 27  4  0
 28 29  4  0
M  END
$$$$

 Created by Python create_sdf_string function

 29 33  0  0  0  0  0  0  0  0999 V2000
   10.7215   -3.3326   17.6437 C   0  0  0  0  0  0  0  0  0  0  0  0
    9.9489   -3.4675   24.6487 N   0  0  0  0  0  0  0  0  0  0  0  0
   10.0172   -4.4740   17.4101 C   0  0  0  0  0  0  0  0  0  0  0  0
    6.9051   -7.9575   16.4222 C   0  0  0  0  0  0  0  0  0  0  0  0
    8.9969   -6.3552   17.9668 N   0  0  0  0  0  0  0  0  0  0  0  0
   10.6702   -3.9051   22.4070 C   0  0  0  0  0  0  0  0  0  0  0  0
   11.0625   -3.0028   18.8894 C   0  0  0  0  0  0  0  0  0  0  0  0
    5.6180   -7.9194   16.1754 O   0  0  0  0  0  0  0  0  0  0  0  0
    9.7259   -5.3080   18.4485 C   0  0  0  0  0  0  0  0  0  0  0  0
    9.4578   -5.0200   16.3036 N   0  0  0  0  0  0  0  0  0  0  0  0
    5.0287   -8.9365   16.8223 C   0  0  0  0  0  0  0  0  0  0  0  0
    8.7742   -6.1498   16.6764 C   0  0  0  0  0  0  0  0  0  0  0  0
   10.9418   -3.4032   21.2053 O   0  0  0  0  0  0  0  0  0  0  0  0
    1.4797   -8.6258   16.2950 C   0  0  0  0  0  0  0  0  0  0  0  0
    9.2861   -1.2743   25.3585 C   0  0  0  0  0  0  0  0  0  0  0  0
    1.8892  -10.3985   17.7511 N   0  0  0  0  0  0  0  0  0  0  0  0
    9.6210   -0.6952   24.0976 C   0  0  0  0  0  0  0  0  0  0  0  0
    7.0792   -9.0217   17.1429 C   0  0  0  0  0  0  0  0  0  0  0  0
    3.1713  -10.1816   17.6634 C   0  0  0  0  0  0  0  0  0  0  0  0
    2.7878   -8.3822   16.2137 C   0  0  0  0  0  0  0  0  0  0  0  0
    9.4601   -2.6590   25.6528 C   0  0  0  0  0  0  0  0  0  0  0  0
   10.1182   -1.5672   23.1165 C   0  0  0  0  0  0  0  0  0  0  0  0
    1.0552   -9.6360   17.0650 C   0  0  0  0  0  0  0  0  0  0  0  0
    3.6519   -9.1783   16.9039 C   0  0  0  0  0  0  0  0  0  0  0  0
    7.8675   -7.0096   15.9415 C   0  0  0  0  0  0  0  0  0  0  0  0
    5.9733   -9.6553   17.3832 N   0  0  0  0  0  0  0  0  0  0  0  0
   10.2411   -2.9363   23.4301 C   0  0  0  0  0  0  0  0  0  0  0  0
   10.7288   -3.8197   19.9525 C   0  0  0  0  0  0  0  0  0  0  0  0
   10.1189   -5.0054   19.6987 C   0  0  0  0  0  0  0  0  0  0  0  0
  1  3  4  0
  1  7  4  0
  2 21  4  0
  2 27  4  0
  3  9  4  0
  3 10  4  0
  4  8  4  0
  4 18  4  0
  4 25  1  0
  5  9  4  0
  5 12  4  0
  6 13  1  0
  6 27  1  0
  7 28  4  0
  8 11  4  0
  9 29  4  0
 10 12  4  0
 11 24  1  0
 11 26  4  0
 12 25  1  0
 13 28  1  0
 14 20  4  0
 14 23  4  0
 15 17  4  0
 15 21  4  0
 16 19  4  0
 16 23  4  0
 17 22  4  0
 18 26  4  0
 19 24  4  0
 20 24  4  0
 22 27  4  0
 28 29  4  0
M  END
$$$$

 Created by Python create_sdf_string function

 29 33  0  0  0  0  0  0  0  0999 V2000
   10.7215   -3.3326   17.6437 C   0  0  0  0  0  0  0  0  0  0  0  0
    9.9489   -3.4675   24.6487 N   0  0  0  0  0  0  0  0  0  0  0  0
   10.0172   -4.4740   17.4101 C   0  0  0  0  0  0  0  0  0  0  0  0
    6.9051   -7.9575   16.4222 C   0  0  0  0  0  0  0  0  0  0  0  0
    8.9969   -6.3552   17.9668 N   0  0  0  0  0  0  0  0  0  0  0  0
   10.6702   -3.9051   22.4070 C   0  0  0  0  0  0  0  0  0  0  0  0
   11.0625   -3.0028   18.8894 C   0  0  0  0  0  0  0  0  0  0  0  0
    5.6180   -7.9194   16.1754 O   0  0  0  0  0  0  0  0  0  0  0  0
    9.7259   -5.3080   18.4485 C   0  0  0  0  0  0  0  0  0  0  0  0
    9.4578   -5.0200   16.3036 N   0  0  0  0  0  0  0  0  0  0  0  0
    5.0287   -8.9365   16.8223 C   0  0  0  0  0  0  0  0  0  0  0  0
    8.7742   -6.1498   16.6764 C   0  0  0  0  0  0  0  0  0  0  0  0
   10.9418   -3.4032   21.2053 O   0  0  0  0  0  0  0  0  0  0  0  0
    1.4797   -8.6258   16.2950 C   0  0  0  0  0  0  0  0  0  0  0  0
    9.2861   -1.2743   25.3585 C   0  0  0  0  0  0  0  0  0  0  0  0
    1.8892  -10.3985   17.7511 N   0  0  0  0  0  0  0  0  0  0  0  0
    9.6210   -0.6952   24.0976 C   0  0  0  0  0  0  0  0  0  0  0  0
    7.0792   -9.0217   17.1429 C   0  0  0  0  0  0  0  0  0  0  0  0
    3.1713  -10.1816   17.6634 C   0  0  0  0  0  0  0  0  0  0  0  0
    2.7878   -8.3822   16.2137 C   0  0  0  0  0  0  0  0  0  0  0  0
    9.4601   -2.6590   25.6528 C   0  0  0  0  0  0  0  0  0  0  0  0
   10.1182   -1.5672   23.1165 C   0  0  0  0  0  0  0  0  0  0  0  0
    1.0552   -9.6360   17.0650 C   0  0  0  0  0  0  0  0  0  0  0  0
    3.6519   -9.1783   16.9039 C   0  0  0  0  0  0  0  0  0  0  0  0
    7.8675   -7.0096   15.9415 C   0  0  0  0  0  0  0  0  0  0  0  0
    5.9733   -9.6553   17.3832 N   0  0  0  0  0  0  0  0  0  0  0  0
   10.2411   -2.9363   23.4301 C   0  0  0  0  0  0  0  0  0  0  0  0
   10.7288   -3.8197   19.9525 C   0  0  0  0  0  0  0  0  0  0  0  0
   10.1189   -5.0054   19.6987 C   0  0  0  0  0  0  0  0  0  0  0  0
  1  3  4  0
  1  7  4  0
  2 21  4  0
  2 27  4  0
  3  9  4  0
  3 10  4  0
  4  8  4  0
  4 18  4  0
  4 25  1  0
  5  9  4  0
  5 12  4  0
  6 13  1  0
  6 27  1  0
  7 28  4  0
  8 11  4  0
  9 29  4  0
 10 12  4  0
 11 24  1  0
 11 26  4  0
 12 25  1  0
 13 28  1  0
 14 20  4  0
 14 23  4  0
 15 17  4  0
 15 21  4  0
 16 19  4  0
 16 23  4  0
 17 22  4  0
 18 26  4  0
 19 24  4  0
 20 24  4  0
 22 27  4  0
 28 29  4  0
M  END
$$$$

 Created by Python create_sdf_string function

 29 33  0  0  0  0  0  0  0  0999 V2000
   10.7215   -3.3326   17.6437 C   0  0  0  0  0  0  0  0  0  0  0  0
    9.9489   -3.4675   24.6487 N   0  0  0  0  0  0  0  0  0  0  0  0
   10.0172   -4.4740   17.4101 C   0  0  0  0  0  0  0  0  0  0  0  0
    6.9051   -7.9575   16.4222 C   0  0  0  0  0  0  0  0  0  0  0  0
    8.9969   -6.3552   17.9668 N   0  0  0  0  0  0  0  0  0  0  0  0
   10.6702   -3.9051   22.4070 C   0  0  0  0  0  0  0  0  0  0  0  0
   11.0625   -3.0028   18.8894 C   0  0  0  0  0  0  0  0  0  0  0  0
    5.6180   -7.9194   16.1754 O   0  0  0  0  0  0  0  0  0  0  0  0
    9.7259   -5.3080   18.4485 C   0  0  0  0  0  0  0  0  0  0  0  0
    9.4578   -5.0200   16.3036 N   0  0  0  0  0  0  0  0  0  0  0  0
    5.0287   -8.9365   16.8223 C   0  0  0  0  0  0  0  0  0  0  0  0
    8.7742   -6.1498   16.6764 C   0  0  0  0  0  0  0  0  0  0  0  0
   10.9418   -3.4032   21.2053 O   0  0  0  0  0  0  0  0  0  0  0  0
    1.4797   -8.6258   16.2950 C   0  0  0  0  0  0  0  0  0  0  0  0
    9.2861   -1.2743   25.3585 C   0  0  0  0  0  0  0  0  0  0  0  0
    1.8892  -10.3985   17.7511 N   0  0  0  0  0  0  0  0  0  0  0  0
    9.6210   -0.6952   24.0976 C   0  0  0  0  0  0  0  0  0  0  0  0
    7.0792   -9.0217   17.1429 C   0  0  0  0  0  0  0  0  0  0  0  0
    3.1713  -10.1816   17.6634 C   0  0  0  0  0  0  0  0  0  0  0  0
    2.7878   -8.3822   16.2137 C   0  0  0  0  0  0  0  0  0  0  0  0
    9.4601   -2.6590   25.6528 C   0  0  0  0  0  0  0  0  0  0  0  0
   10.1182   -1.5672   23.1165 C   0  0  0  0  0  0  0  0  0  0  0  0
    1.0552   -9.6360   17.0650 C   0  0  0  0  0  0  0  0  0  0  0  0
    3.6519   -9.1783   16.9039 C   0  0  0  0  0  0  0  0  0  0  0  0
    7.8675   -7.0096   15.9415 C   0  0  0  0  0  0  0  0  0  0  0  0
    5.9733   -9.6553   17.3832 N   0  0  0  0  0  0  0  0  0  0  0  0
   10.2411   -2.9363   23.4301 C   0  0  0  0  0  0  0  0  0  0  0  0
   10.7288   -3.8197   19.9525 C   0  0  0  0  0  0  0  0  0  0  0  0
   10.1189   -5.0054   19.6987 C   0  0  0  0  0  0  0  0  0  0  0  0
  1  3  4  0
  1  7  4  0
  2 21  4  0
  2 27  4  0
  3  9  4  0
  3 10  4  0
  4  8  4  0
  4 18  4  0
  4 25  1  0
  5  9  4  0
  5 12  4  0
  6 13  1  0
  6 27  1  0
  7 28  4  0
  8 11  4  0
  9 29  4  0
 10 12  4  0
 11 24  1  0
 11 26  4  0
 12 25  1  0
 13 28  1  0
 14 20  4  0
 14 23  4  0
 15 17  4  0
 15 21  4  0
 16 19  4  0
 16 23  4  0
 17 22  4  0
 18 26  4  0
 19 24  4  0
 20 24  4  0
 22 27  4  0
 28 29  4  0
M  END
$$$$

 Created by Python create_sdf_string function

 29 33  0  0  0  0  0  0  0  0999 V2000
   10.7215   -3.3326   17.6437 C   0  0  0  0  0  0  0  0  0  0  0  0
    9.9489   -3.4675   24.6487 N   0  0  0  0  0  0  0  0  0  0  0  0
   10.0172   -4.4740   17.4101 C   0  0  0  0  0  0  0  0  0  0  0  0
    6.9051   -7.9575   16.4222 C   0  0  0  0  0  0  0  0  0  0  0  0
    8.9969   -6.3552   17.9668 N   0  0  0  0  0  0  0  0  0  0  0  0
   10.6702   -3.9051   22.4070 C   0  0  0  0  0  0  0  0  0  0  0  0
   11.0625   -3.0028   18.8894 C   0  0  0  0  0  0  0  0  0  0  0  0
    5.6180   -7.9194   16.1754 O   0  0  0  0  0  0  0  0  0  0  0  0
    9.7259   -5.3080   18.4485 C   0  0  0  0  0  0  0  0  0  0  0  0
    9.4578   -5.0200   16.3036 N   0  0  0  0  0  0  0  0  0  0  0  0
    5.0287   -8.9365   16.8223 C   0  0  0  0  0  0  0  0  0  0  0  0
    8.7742   -6.1498   16.6764 C   0  0  0  0  0  0  0  0  0  0  0  0
   10.9418   -3.4032   21.2053 O   0  0  0  0  0  0  0  0  0  0  0  0
    1.4797   -8.6258   16.2950 C   0  0  0  0  0  0  0  0  0  0  0  0
    9.2861   -1.2743   25.3585 C   0  0  0  0  0  0  0  0  0  0  0  0
    1.8892  -10.3985   17.7511 N   0  0  0  0  0  0  0  0  0  0  0  0
    9.6210   -0.6952   24.0976 C   0  0  0  0  0  0  0  0  0  0  0  0
    7.0792   -9.0217   17.1429 C   0  0  0  0  0  0  0  0  0  0  0  0
    3.1713  -10.1816   17.6634 C   0  0  0  0  0  0  0  0  0  0  0  0
    2.7878   -8.3822   16.2137 C   0  0  0  0  0  0  0  0  0  0  0  0
    9.4601   -2.6590   25.6528 C   0  0  0  0  0  0  0  0  0  0  0  0
   10.1182   -1.5672   23.1165 C   0  0  0  0  0  0  0  0  0  0  0  0
    1.0552   -9.6360   17.0650 C   0  0  0  0  0  0  0  0  0  0  0  0
    3.6519   -9.1783   16.9039 C   0  0  0  0  0  0  0  0  0  0  0  0
    7.8675   -7.0096   15.9415 C   0  0  0  0  0  0  0  0  0  0  0  0
    5.9733   -9.6553   17.3832 N   0  0  0  0  0  0  0  0  0  0  0  0
   10.2411   -2.9363   23.4301 C   0  0  0  0  0  0  0  0  0  0  0  0
   10.7288   -3.8197   19.9525 C   0  0  0  0  0  0  0  0  0  0  0  0
   10.1189   -5.0054   19.6987 C   0  0  0  0  0  0  0  0  0  0  0  0
  1  3  4  0
  1  7  4  0
  2 21  4  0
  2 27  4  0
  3  9  4  0
  3 10  4  0
  4  8  4  0
  4 18  4  0
  4 25  1  0
  5  9  4  0
  5 12  4  0
  6 13  1  0
  6 27  1  0
  7 28  4  0
  8 11  4  0
  9 29  4  0
 10 12  4  0
 11 24  1  0
 11 26  4  0
 12 25  1  0
 13 28  1  0
 14 20  4  0
 14 23  4  0
 15 17  4  0
 15 21  4  0
 16 19  4  0
 16 23  4  0
 17 22  4  0
 18 26  4  0
 19 24  4  0
 20 24  4  0
 22 27  4  0
 28 29  4  0
M  END
$$$$

 Created by Python create_sdf_string function

 29 33  0  0  0  0  0  0  0  0999 V2000
   10.7215   -3.3326   17.6437 C   0  0  0  0  0  0  0  0  0  0  0  0
    9.9489   -3.4675   24.6487 N   0  0  0  0  0  0  0  0  0  0  0  0
   10.0172   -4.4740   17.4101 C   0  0  0  0  0  0  0  0  0  0  0  0
    6.9051   -7.9575   16.4222 C   0  0  0  0  0  0  0  0  0  0  0  0
    8.9969   -6.3552   17.9668 N   0  0  0  0  0  0  0  0  0  0  0  0
   10.6702   -3.9051   22.4070 C   0  0  0  0  0  0  0  0  0  0  0  0
   11.0625   -3.0028   18.8894 C   0  0  0  0  0  0  0  0  0  0  0  0
    5.6180   -7.9194   16.1754 O   0  0  0  0  0  0  0  0  0  0  0  0
    9.7259   -5.3080   18.4485 C   0  0  0  0  0  0  0  0  0  0  0  0
    9.4578   -5.0200   16.3036 N   0  0  0  0  0  0  0  0  0  0  0  0
    5.0287   -8.9365   16.8223 C   0  0  0  0  0  0  0  0  0  0  0  0
    8.7742   -6.1498   16.6764 C   0  0  0  0  0  0  0  0  0  0  0  0
   10.9418   -3.4032   21.2053 O   0  0  0  0  0  0  0  0  0  0  0  0
    1.4797   -8.6258   16.2950 C   0  0  0  0  0  0  0  0  0  0  0  0
    9.2861   -1.2743   25.3585 C   0  0  0  0  0  0  0  0  0  0  0  0
    1.8892  -10.3985   17.7511 N   0  0  0  0  0  0  0  0  0  0  0  0
    9.6210   -0.6952   24.0976 C   0  0  0  0  0  0  0  0  0  0  0  0
    7.0792   -9.0217   17.1429 C   0  0  0  0  0  0  0  0  0  0  0  0
    3.1713  -10.1816   17.6634 C   0  0  0  0  0  0  0  0  0  0  0  0
    2.7878   -8.3822   16.2137 C   0  0  0  0  0  0  0  0  0  0  0  0
    9.4601   -2.6590   25.6528 C   0  0  0  0  0  0  0  0  0  0  0  0
   10.1182   -1.5672   23.1165 C   0  0  0  0  0  0  0  0  0  0  0  0
    1.0552   -9.6360   17.0650 C   0  0  0  0  0  0  0  0  0  0  0  0
    3.6519   -9.1783   16.9039 C   0  0  0  0  0  0  0  0  0  0  0  0
    7.8675   -7.0096   15.9415 C   0  0  0  0  0  0  0  0  0  0  0  0
    5.9733   -9.6553   17.3832 N   0  0  0  0  0  0  0  0  0  0  0  0
   10.2411   -2.9363   23.4301 C   0  0  0  0  0  0  0  0  0  0  0  0
   10.7288   -3.8197   19.9525 C   0  0  0  0  0  0  0  0  0  0  0  0
   10.1189   -5.0054   19.6987 C   0  0  0  0  0  0  0  0  0  0  0  0
  1  3  4  0
  1  7  4  0
  2 21  4  0
  2 27  4  0
  3  9  4  0
  3 10  4  0
  4  8  4  0
  4 18  4  0
  4 25  1  0
  5  9  4  0
  5 12  4  0
  6 13  1  0
  6 27  1  0
  7 28  4  0
  8 11  4  0
  9 29  4  0
 10 12  4  0
 11 24  1  0
 11 26  4  0
 12 25  1  0
 13 28  1  0
 14 20  4  0
 14 23  4  0
 15 17  4  0
 15 21  4  0
 16 19  4  0
 16 23  4  0
 17 22  4  0
 18 26  4  0
 19 24  4  0
 20 24  4  0
 22 27  4  0
 28 29  4  0
M  END
$$$$

 Created by Python create_sdf_string function

 29 33  0  0  0  0  0  0  0  0999 V2000
   10.7215   -3.3326   17.6437 C   0  0  0  0  0  0  0  0  0  0  0  0
    9.9489   -3.4675   24.6487 N   0  0  0  0  0  0  0  0  0  0  0  0
   10.0172   -4.4740   17.4101 C   0  0  0  0  0  0  0  0  0  0  0  0
    6.9051   -7.9575   16.4222 C   0  0  0  0  0  0  0  0  0  0  0  0
    8.9969   -6.3552   17.9668 N   0  0  0  0  0  0  0  0  0  0  0  0
   10.6702   -3.9051   22.4070 C   0  0  0  0  0  0  0  0  0  0  0  0
   11.0625   -3.0028   18.8894 C   0  0  0  0  0  0  0  0  0  0  0  0
    5.6180   -7.9194   16.1754 O   0  0  0  0  0  0  0  0  0  0  0  0
    9.7259   -5.3080   18.4485 C   0  0  0  0  0  0  0  0  0  0  0  0
    9.4578   -5.0200   16.3036 N   0  0  0  0  0  0  0  0  0  0  0  0
    5.0287   -8.9365   16.8223 C   0  0  0  0  0  0  0  0  0  0  0  0
    8.7742   -6.1498   16.6764 C   0  0  0  0  0  0  0  0  0  0  0  0
   10.9418   -3.4032   21.2053 O   0  0  0  0  0  0  0  0  0  0  0  0
    1.4797   -8.6258   16.2950 C   0  0  0  0  0  0  0  0  0  0  0  0
    9.2861   -1.2743   25.3585 C   0  0  0  0  0  0  0  0  0  0  0  0
    1.8892  -10.3985   17.7511 N   0  0  0  0  0  0  0  0  0  0  0  0
    9.6210   -0.6952   24.0976 C   0  0  0  0  0  0  0  0  0  0  0  0
    7.0792   -9.0217   17.1429 C   0  0  0  0  0  0  0  0  0  0  0  0
    3.1713  -10.1816   17.6634 C   0  0  0  0  0  0  0  0  0  0  0  0
    2.7878   -8.3822   16.2137 C   0  0  0  0  0  0  0  0  0  0  0  0
    9.4601   -2.6590   25.6528 C   0  0  0  0  0  0  0  0  0  0  0  0
   10.1182   -1.5672   23.1165 C   0  0  0  0  0  0  0  0  0  0  0  0
    1.0552   -9.6360   17.0650 C   0  0  0  0  0  0  0  0  0  0  0  0
    3.6519   -9.1783   16.9039 C   0  0  0  0  0  0  0  0  0  0  0  0
    7.8675   -7.0096   15.9415 C   0  0  0  0  0  0  0  0  0  0  0  0
    5.9733   -9.6553   17.3832 N   0  0  0  0  0  0  0  0  0  0  0  0
   10.2411   -2.9363   23.4301 C   0  0  0  0  0  0  0  0  0  0  0  0
   10.7288   -3.8197   19.9525 C   0  0  0  0  0  0  0  0  0  0  0  0
   10.1189   -5.0054   19.6987 C   0  0  0  0  0  0  0  0  0  0  0  0
  1  3  4  0
  1  7  4  0
  2 21  4  0
  2 27  4  0
  3  9  4  0
  3 10  4  0
  4  8  4  0
  4 18  4  0
  4 25  1  0
  5  9  4  0
  5 12  4  0
  6 13  1  0
  6 27  1  0
  7 28  4  0
  8 11  4  0
  9 29  4  0
 10 12  4  0
 11 24  1  0
 11 26  4  0
 12 25  1  0
 13 28  1  0
 14 20  4  0
 14 23  4  0
 15 17  4  0
 15 21  4  0
 16 19  4  0
 16 23  4  0
 17 22  4  0
 18 26  4  0
 19 24  4  0
 20 24  4  0
 22 27  4  0
 28 29  4  0
M  END
$$$$

 Created by Python create_sdf_string function

 29 33  0  0  0  0  0  0  0  0999 V2000
   10.7215   -3.3326   17.6437 C   0  0  0  0  0  0  0  0  0  0  0  0
    9.9489   -3.4675   24.6487 N   0  0  0  0  0  0  0  0  0  0  0  0
   10.0172   -4.4740   17.4101 C   0  0  0  0  0  0  0  0  0  0  0  0
    6.9051   -7.9575   16.4222 C   0  0  0  0  0  0  0  0  0  0  0  0
    8.9969   -6.3552   17.9668 N   0  0  0  0  0  0  0  0  0  0  0  0
   10.6702   -3.9051   22.4070 C   0  0  0  0  0  0  0  0  0  0  0  0
   11.0625   -3.0028   18.8894 C   0  0  0  0  0  0  0  0  0  0  0  0
    5.6180   -7.9194   16.1754 O   0  0  0  0  0  0  0  0  0  0  0  0
    9.7259   -5.3080   18.4485 C   0  0  0  0  0  0  0  0  0  0  0  0
    9.4578   -5.0200   16.3036 N   0  0  0  0  0  0  0  0  0  0  0  0
    5.0287   -8.9365   16.8223 C   0  0  0  0  0  0  0  0  0  0  0  0
    8.7742   -6.1498   16.6764 C   0  0  0  0  0  0  0  0  0  0  0  0
   10.9418   -3.4032   21.2053 O   0  0  0  0  0  0  0  0  0  0  0  0
    1.4797   -8.6258   16.2950 C   0  0  0  0  0  0  0  0  0  0  0  0
    9.2861   -1.2743   25.3585 C   0  0  0  0  0  0  0  0  0  0  0  0
    1.8892  -10.3985   17.7511 N   0  0  0  0  0  0  0  0  0  0  0  0
    9.6210   -0.6952   24.0976 C   0  0  0  0  0  0  0  0  0  0  0  0
    7.0792   -9.0217   17.1429 C   0  0  0  0  0  0  0  0  0  0  0  0
    3.1713  -10.1816   17.6634 C   0  0  0  0  0  0  0  0  0  0  0  0
    2.7878   -8.3822   16.2137 C   0  0  0  0  0  0  0  0  0  0  0  0
    9.4601   -2.6590   25.6528 C   0  0  0  0  0  0  0  0  0  0  0  0
   10.1182   -1.5672   23.1165 C   0  0  0  0  0  0  0  0  0  0  0  0
    1.0552   -9.6360   17.0650 C   0  0  0  0  0  0  0  0  0  0  0  0
    3.6519   -9.1783   16.9039 C   0  0  0  0  0  0  0  0  0  0  0  0
    7.8675   -7.0096   15.9415 C   0  0  0  0  0  0  0  0  0  0  0  0
    5.9733   -9.6553   17.3832 N   0  0  0  0  0  0  0  0  0  0  0  0
   10.2411   -2.9363   23.4301 C   0  0  0  0  0  0  0  0  0  0  0  0
   10.7288   -3.8197   19.9525 C   0  0  0  0  0  0  0  0  0  0  0  0
   10.1189   -5.0054   19.6987 C   0  0  0  0  0  0  0  0  0  0  0  0
  1  3  4  0
  1  7  4  0
  2 21  4  0
  2 27  4  0
  3  9  4  0
  3 10  4  0
  4  8  4  0
  4 18  4  0
  4 25  1  0
  5  9  4  0
  5 12  4  0
  6 13  1  0
  6 27  1  0
  7 28  4  0
  8 11  4  0
  9 29  4  0
 10 12  4  0
 11 24  1  0
 11 26  4  0
 12 25  1  0
 13 28  1  0
 14 20  4  0
 14 23  4  0
 15 17  4  0
 15 21  4  0
 16 19  4  0
 16 23  4  0
 17 22  4  0
 18 26  4  0
 19 24  4  0
 20 24  4  0
 22 27  4  0
 28 29  4  0
M  END
$$$$

 Created by Python create_sdf_string function

 29 33  0  0  0  0  0  0  0  0999 V2000
   10.7215   -3.3326   17.6437 C   0  0  0  0  0  0  0  0  0  0  0  0
    9.9489   -3.4675   24.6487 N   0  0  0  0  0  0  0  0  0  0  0  0
   10.0172   -4.4740   17.4101 C   0  0  0  0  0  0  0  0  0  0  0  0
    6.9051   -7.9575   16.4222 C   0  0  0  0  0  0  0  0  0  0  0  0
    8.9969   -6.3552   17.9668 N   0  0  0  0  0  0  0  0  0  0  0  0
   10.6702   -3.9051   22.4070 C   0  0  0  0  0  0  0  0  0  0  0  0
   11.0625   -3.0028   18.8894 C   0  0  0  0  0  0  0  0  0  0  0  0
    5.6180   -7.9194   16.1754 O   0  0  0  0  0  0  0  0  0  0  0  0
    9.7259   -5.3080   18.4485 C   0  0  0  0  0  0  0  0  0  0  0  0
    9.4578   -5.0200   16.3036 N   0  0  0  0  0  0  0  0  0  0  0  0
    5.0287   -8.9365   16.8223 C   0  0  0  0  0  0  0  0  0  0  0  0
    8.7742   -6.1498   16.6764 C   0  0  0  0  0  0  0  0  0  0  0  0
   10.9418   -3.4032   21.2053 O   0  0  0  0  0  0  0  0  0  0  0  0
    1.4797   -8.6258   16.2950 C   0  0  0  0  0  0  0  0  0  0  0  0
    9.2861   -1.2743   25.3585 C   0  0  0  0  0  0  0  0  0  0  0  0
    1.8892  -10.3985   17.7511 N   0  0  0  0  0  0  0  0  0  0  0  0
    9.6210   -0.6952   24.0976 C   0  0  0  0  0  0  0  0  0  0  0  0
    7.0792   -9.0217   17.1429 C   0  0  0  0  0  0  0  0  0  0  0  0
    3.1713  -10.1816   17.6634 C   0  0  0  0  0  0  0  0  0  0  0  0
    2.7878   -8.3822   16.2137 C   0  0  0  0  0  0  0  0  0  0  0  0
    9.4601   -2.6590   25.6528 C   0  0  0  0  0  0  0  0  0  0  0  0
   10.1182   -1.5672   23.1165 C   0  0  0  0  0  0  0  0  0  0  0  0
    1.0552   -9.6360   17.0650 C   0  0  0  0  0  0  0  0  0  0  0  0
    3.6519   -9.1783   16.9039 C   0  0  0  0  0  0  0  0  0  0  0  0
    7.8675   -7.0096   15.9415 C   0  0  0  0  0  0  0  0  0  0  0  0
    5.9733   -9.6553   17.3832 N   0  0  0  0  0  0  0  0  0  0  0  0
   10.2411   -2.9363   23.4301 C   0  0  0  0  0  0  0  0  0  0  0  0
   10.7288   -3.8197   19.9525 C   0  0  0  0  0  0  0  0  0  0  0  0
   10.1189   -5.0054   19.6987 C   0  0  0  0  0  0  0  0  0  0  0  0
  1  3  4  0
  1  7  4  0
  2 21  4  0
  2 27  4  0
  3  9  4  0
  3 10  4  0
  4  8  4  0
  4 18  4  0
  4 25  1  0
  5  9  4  0
  5 12  4  0
  6 13  1  0
  6 27  1  0
  7 28  4  0
  8 11  4  0
  9 29  4  0
 10 12  4  0
 11 24  1  0
 11 26  4  0
 12 25  1  0
 13 28  1  0
 14 20  4  0
 14 23  4  0
 15 17  4  0
 15 21  4  0
 16 19  4  0
 16 23  4  0
 17 22  4  0
 18 26  4  0
 19 24  4  0
 20 24  4  0
 22 27  4  0
 28 29  4  0
M  END
$$$$

 Created by Python create_sdf_string function

 29 33  0  0  0  0  0  0  0  0999 V2000
   10.7215   -3.3326   17.6437 C   0  0  0  0  0  0  0  0  0  0  0  0
    9.9489   -3.4675   24.6487 N   0  0  0  0  0  0  0  0  0  0  0  0
   10.0172   -4.4740   17.4101 C   0  0  0  0  0  0  0  0  0  0  0  0
    6.9051   -7.9575   16.4222 C   0  0  0  0  0  0  0  0  0  0  0  0
    8.9969   -6.3552   17.9668 N   0  0  0  0  0  0  0  0  0  0  0  0
   10.6702   -3.9051   22.4070 C   0  0  0  0  0  0  0  0  0  0  0  0
   11.0625   -3.0028   18.8894 C   0  0  0  0  0  0  0  0  0  0  0  0
    5.6180   -7.9194   16.1754 O   0  0  0  0  0  0  0  0  0  0  0  0
    9.7259   -5.3080   18.4485 C   0  0  0  0  0  0  0  0  0  0  0  0
    9.4578   -5.0200   16.3036 N   0  0  0  0  0  0  0  0  0  0  0  0
    5.0287   -8.9365   16.8223 C   0  0  0  0  0  0  0  0  0  0  0  0
    8.7742   -6.1498   16.6764 C   0  0  0  0  0  0  0  0  0  0  0  0
   10.9418   -3.4032   21.2053 O   0  0  0  0  0  0  0  0  0  0  0  0
    1.4797   -8.6258   16.2950 C   0  0  0  0  0  0  0  0  0  0  0  0
    9.2861   -1.2743   25.3585 C   0  0  0  0  0  0  0  0  0  0  0  0
    1.8892  -10.3985   17.7511 N   0  0  0  0  0  0  0  0  0  0  0  0
    9.6210   -0.6952   24.0976 C   0  0  0  0  0  0  0  0  0  0  0  0
    7.0792   -9.0217   17.1429 C   0  0  0  0  0  0  0  0  0  0  0  0
    3.1713  -10.1816   17.6634 C   0  0  0  0  0  0  0  0  0  0  0  0
    2.7878   -8.3822   16.2137 C   0  0  0  0  0  0  0  0  0  0  0  0
    9.4601   -2.6590   25.6528 C   0  0  0  0  0  0  0  0  0  0  0  0
   10.1182   -1.5672   23.1165 C   0  0  0  0  0  0  0  0  0  0  0  0
    1.0552   -9.6360   17.0650 C   0  0  0  0  0  0  0  0  0  0  0  0
    3.6519   -9.1783   16.9039 C   0  0  0  0  0  0  0  0  0  0  0  0
    7.8675   -7.0096   15.9415 C   0  0  0  0  0  0  0  0  0  0  0  0
    5.9733   -9.6553   17.3832 N   0  0  0  0  0  0  0  0  0  0  0  0
   10.2411   -2.9363   23.4301 C   0  0  0  0  0  0  0  0  0  0  0  0
   10.7288   -3.8197   19.9525 C   0  0  0  0  0  0  0  0  0  0  0  0
   10.1189   -5.0054   19.6987 C   0  0  0  0  0  0  0  0  0  0  0  0
  1  3  4  0
  1  7  4  0
  2 21  4  0
  2 27  4  0
  3  9  4  0
  3 10  4  0
  4  8  4  0
  4 18  4  0
  4 25  1  0
  5  9  4  0
  5 12  4  0
  6 13  1  0
  6 27  1  0
  7 28  4  0
  8 11  4  0
  9 29  4  0
 10 12  4  0
 11 24  1  0
 11 26  4  0
 12 25  1  0
 13 28  1  0
 14 20  4  0
 14 23  4  0
 15 17  4  0
 15 21  4  0
 16 19  4  0
 16 23  4  0
 17 22  4  0
 18 26  4  0
 19 24  4  0
 20 24  4  0
 22 27  4  0
 28 29  4  0
M  END
$$$$

 Created by Python create_sdf_string function

 29 33  0  0  0  0  0  0  0  0999 V2000
   10.7215   -3.3326   17.6437 C   0  0  0  0  0  0  0  0  0  0  0  0
    9.9489   -3.4675   24.6487 N   0  0  0  0  0  0  0  0  0  0  0  0
   10.0172   -4.4740   17.4101 C   0  0  0  0  0  0  0  0  0  0  0  0
    6.9051   -7.9575   16.4222 C   0  0  0  0  0  0  0  0  0  0  0  0
    8.9969   -6.3552   17.9668 N   0  0  0  0  0  0  0  0  0  0  0  0
   10.6702   -3.9051   22.4070 C   0  0  0  0  0  0  0  0  0  0  0  0
   11.0625   -3.0028   18.8894 C   0  0  0  0  0  0  0  0  0  0  0  0
    5.6180   -7.9194   16.1754 O   0  0  0  0  0  0  0  0  0  0  0  0
    9.7259   -5.3080   18.4485 C   0  0  0  0  0  0  0  0  0  0  0  0
    9.4578   -5.0200   16.3036 N   0  0  0  0  0  0  0  0  0  0  0  0
    5.0287   -8.9365   16.8223 C   0  0  0  0  0  0  0  0  0  0  0  0
    8.7742   -6.1498   16.6764 C   0  0  0  0  0  0  0  0  0  0  0  0
   10.9418   -3.4032   21.2053 O   0  0  0  0  0  0  0  0  0  0  0  0
    1.4797   -8.6258   16.2950 C   0  0  0  0  0  0  0  0  0  0  0  0
    9.2861   -1.2743   25.3585 C   0  0  0  0  0  0  0  0  0  0  0  0
    1.8892  -10.3985   17.7511 N   0  0  0  0  0  0  0  0  0  0  0  0
    9.6210   -0.6952   24.0976 C   0  0  0  0  0  0  0  0  0  0  0  0
    7.0792   -9.0217   17.1429 C   0  0  0  0  0  0  0  0  0  0  0  0
    3.1713  -10.1816   17.6634 C   0  0  0  0  0  0  0  0  0  0  0  0
    2.7878   -8.3822   16.2137 C   0  0  0  0  0  0  0  0  0  0  0  0
    9.4601   -2.6590   25.6528 C   0  0  0  0  0  0  0  0  0  0  0  0
   10.1182   -1.5672   23.1165 C   0  0  0  0  0  0  0  0  0  0  0  0
    1.0552   -9.6360   17.0650 C   0  0  0  0  0  0  0  0  0  0  0  0
    3.6519   -9.1783   16.9039 C   0  0  0  0  0  0  0  0  0  0  0  0
    7.8675   -7.0096   15.9415 C   0  0  0  0  0  0  0  0  0  0  0  0
    5.9733   -9.6553   17.3832 N   0  0  0  0  0  0  0  0  0  0  0  0
   10.2411   -2.9363   23.4301 C   0  0  0  0  0  0  0  0  0  0  0  0
   10.7288   -3.8197   19.9525 C   0  0  0  0  0  0  0  0  0  0  0  0
   10.1189   -5.0054   19.6987 C   0  0  0  0  0  0  0  0  0  0  0  0
  1  3  4  0
  1  7  4  0
  2 21  4  0
  2 27  4  0
  3  9  4  0
  3 10  4  0
  4  8  4  0
  4 18  4  0
  4 25  1  0
  5  9  4  0
  5 12  4  0
  6 13  1  0
  6 27  1  0
  7 28  4  0
  8 11  4  0
  9 29  4  0
 10 12  4  0
 11 24  1  0
 11 26  4  0
 12 25  1  0
 13 28  1  0
 14 20  4  0
 14 23  4  0
 15 17  4  0
 15 21  4  0
 16 19  4  0
 16 23  4  0
 17 22  4  0
 18 26  4  0
 19 24  4  0
 20 24  4  0
 22 27  4  0
 28 29  4  0
M  END
$$$$

 Created by Python create_sdf_string function

 29 33  0  0  0  0  0  0  0  0999 V2000
   10.7215   -3.3326   17.6437 C   0  0  0  0  0  0  0  0  0  0  0  0
    9.9489   -3.4675   24.6487 N   0  0  0  0  0  0  0  0  0  0  0  0
   10.0172   -4.4740   17.4101 C   0  0  0  0  0  0  0  0  0  0  0  0
    6.9051   -7.9575   16.4222 C   0  0  0  0  0  0  0  0  0  0  0  0
    8.9969   -6.3552   17.9668 N   0  0  0  0  0  0  0  0  0  0  0  0
   10.6702   -3.9051   22.4070 C   0  0  0  0  0  0  0  0  0  0  0  0
   11.0625   -3.0028   18.8894 C   0  0  0  0  0  0  0  0  0  0  0  0
    5.6180   -7.9194   16.1754 O   0  0  0  0  0  0  0  0  0  0  0  0
    9.7259   -5.3080   18.4485 C   0  0  0  0  0  0  0  0  0  0  0  0
    9.4578   -5.0200   16.3036 N   0  0  0  0  0  0  0  0  0  0  0  0
    5.0287   -8.9365   16.8223 C   0  0  0  0  0  0  0  0  0  0  0  0
    8.7742   -6.1498   16.6764 C   0  0  0  0  0  0  0  0  0  0  0  0
   10.9418   -3.4032   21.2053 O   0  0  0  0  0  0  0  0  0  0  0  0
    1.4797   -8.6258   16.2950 C   0  0  0  0  0  0  0  0  0  0  0  0
    9.2861   -1.2743   25.3585 C   0  0  0  0  0  0  0  0  0  0  0  0
    1.8892  -10.3985   17.7511 N   0  0  0  0  0  0  0  0  0  0  0  0
    9.6210   -0.6952   24.0976 C   0  0  0  0  0  0  0  0  0  0  0  0
    7.0792   -9.0217   17.1429 C   0  0  0  0  0  0  0  0  0  0  0  0
    3.1713  -10.1816   17.6634 C   0  0  0  0  0  0  0  0  0  0  0  0
    2.7878   -8.3822   16.2137 C   0  0  0  0  0  0  0  0  0  0  0  0
    9.4601   -2.6590   25.6528 C   0  0  0  0  0  0  0  0  0  0  0  0
   10.1182   -1.5672   23.1165 C   0  0  0  0  0  0  0  0  0  0  0  0
    1.0552   -9.6360   17.0650 C   0  0  0  0  0  0  0  0  0  0  0  0
    3.6519   -9.1783   16.9039 C   0  0  0  0  0  0  0  0  0  0  0  0
    7.8675   -7.0096   15.9415 C   0  0  0  0  0  0  0  0  0  0  0  0
    5.9733   -9.6553   17.3832 N   0  0  0  0  0  0  0  0  0  0  0  0
   10.2411   -2.9363   23.4301 C   0  0  0  0  0  0  0  0  0  0  0  0
   10.7288   -3.8197   19.9525 C   0  0  0  0  0  0  0  0  0  0  0  0
   10.1189   -5.0054   19.6987 C   0  0  0  0  0  0  0  0  0  0  0  0
  1  3  4  0
  1  7  4  0
  2 21  4  0
  2 27  4  0
  3  9  4  0
  3 10  4  0
  4  8  4  0
  4 18  4  0
  4 25  1  0
  5  9  4  0
  5 12  4  0
  6 13  1  0
  6 27  1  0
  7 28  4  0
  8 11  4  0
  9 29  4  0
 10 12  4  0
 11 24  1  0
 11 26  4  0
 12 25  1  0
 13 28  1  0
 14 20  4  0
 14 23  4  0
 15 17  4  0
 15 21  4  0
 16 19  4  0
 16 23  4  0
 17 22  4  0
 18 26  4  0
 19 24  4  0
 20 24  4  0
 22 27  4  0
 28 29  4  0
M  END
$$$$

 Created by Python create_sdf_string function

 29 33  0  0  0  0  0  0  0  0999 V2000
   10.7215   -3.3326   17.6437 C   0  0  0  0  0  0  0  0  0  0  0  0
    9.9489   -3.4675   24.6487 N   0  0  0  0  0  0  0  0  0  0  0  0
   10.0172   -4.4740   17.4101 C   0  0  0  0  0  0  0  0  0  0  0  0
    6.9051   -7.9575   16.4222 C   0  0  0  0  0  0  0  0  0  0  0  0
    8.9969   -6.3552   17.9668 N   0  0  0  0  0  0  0  0  0  0  0  0
   10.6702   -3.9051   22.4070 C   0  0  0  0  0  0  0  0  0  0  0  0
   11.0625   -3.0028   18.8894 C   0  0  0  0  0  0  0  0  0  0  0  0
    5.6180   -7.9194   16.1754 O   0  0  0  0  0  0  0  0  0  0  0  0
    9.7259   -5.3080   18.4485 C   0  0  0  0  0  0  0  0  0  0  0  0
    9.4578   -5.0200   16.3036 N   0  0  0  0  0  0  0  0  0  0  0  0
    5.0287   -8.9365   16.8223 C   0  0  0  0  0  0  0  0  0  0  0  0
    8.7742   -6.1498   16.6764 C   0  0  0  0  0  0  0  0  0  0  0  0
   10.9418   -3.4032   21.2053 O   0  0  0  0  0  0  0  0  0  0  0  0
    1.4797   -8.6258   16.2950 C   0  0  0  0  0  0  0  0  0  0  0  0
    9.2861   -1.2743   25.3585 C   0  0  0  0  0  0  0  0  0  0  0  0
    1.8892  -10.3985   17.7511 N   0  0  0  0  0  0  0  0  0  0  0  0
    9.6210   -0.6952   24.0976 C   0  0  0  0  0  0  0  0  0  0  0  0
    7.0792   -9.0217   17.1429 C   0  0  0  0  0  0  0  0  0  0  0  0
    3.1713  -10.1816   17.6634 C   0  0  0  0  0  0  0  0  0  0  0  0
    2.7878   -8.3822   16.2137 C   0  0  0  0  0  0  0  0  0  0  0  0
    9.4601   -2.6590   25.6528 C   0  0  0  0  0  0  0  0  0  0  0  0
   10.1182   -1.5672   23.1165 C   0  0  0  0  0  0  0  0  0  0  0  0
    1.0552   -9.6360   17.0650 C   0  0  0  0  0  0  0  0  0  0  0  0
    3.6519   -9.1783   16.9039 C   0  0  0  0  0  0  0  0  0  0  0  0
    7.8675   -7.0096   15.9415 C   0  0  0  0  0  0  0  0  0  0  0  0
    5.9733   -9.6553   17.3832 N   0  0  0  0  0  0  0  0  0  0  0  0
   10.2411   -2.9363   23.4301 C   0  0  0  0  0  0  0  0  0  0  0  0
   10.7288   -3.8197   19.9525 C   0  0  0  0  0  0  0  0  0  0  0  0
   10.1189   -5.0054   19.6987 C   0  0  0  0  0  0  0  0  0  0  0  0
  1  3  4  0
  1  7  4  0
  2 21  4  0
  2 27  4  0
  3  9  4  0
  3 10  4  0
  4  8  4  0
  4 18  4  0
  4 25  1  0
  5  9  4  0
  5 12  4  0
  6 13  1  0
  6 27  1  0
  7 28  4  0
  8 11  4  0
  9 29  4  0
 10 12  4  0
 11 24  1  0
 11 26  4  0
 12 25  1  0
 13 28  1  0
 14 20  4  0
 14 23  4  0
 15 17  4  0
 15 21  4  0
 16 19  4  0
 16 23  4  0
 17 22  4  0
 18 26  4  0
 19 24  4  0
 20 24  4  0
 22 27  4  0
 28 29  4  0
M  END
$$$$

 Created by Python create_sdf_string function

 29 33  0  0  0  0  0  0  0  0999 V2000
   10.7215   -3.3326   17.6437 C   0  0  0  0  0  0  0  0  0  0  0  0
    9.9489   -3.4675   24.6487 N   0  0  0  0  0  0  0  0  0  0  0  0
   10.0172   -4.4740   17.4101 C   0  0  0  0  0  0  0  0  0  0  0  0
    6.9051   -7.9575   16.4222 C   0  0  0  0  0  0  0  0  0  0  0  0
    8.9969   -6.3552   17.9668 N   0  0  0  0  0  0  0  0  0  0  0  0
   10.6702   -3.9051   22.4070 C   0  0  0  0  0  0  0  0  0  0  0  0
   11.0625   -3.0028   18.8894 C   0  0  0  0  0  0  0  0  0  0  0  0
    5.6180   -7.9194   16.1754 O   0  0  0  0  0  0  0  0  0  0  0  0
    9.7259   -5.3080   18.4485 C   0  0  0  0  0  0  0  0  0  0  0  0
    9.4578   -5.0200   16.3036 N   0  0  0  0  0  0  0  0  0  0  0  0
    5.0287   -8.9365   16.8223 C   0  0  0  0  0  0  0  0  0  0  0  0
    8.7742   -6.1498   16.6764 C   0  0  0  0  0  0  0  0  0  0  0  0
   10.9418   -3.4032   21.2053 O   0  0  0  0  0  0  0  0  0  0  0  0
    1.4797   -8.6258   16.2950 C   0  0  0  0  0  0  0  0  0  0  0  0
    9.2861   -1.2743   25.3585 C   0  0  0  0  0  0  0  0  0  0  0  0
    1.8892  -10.3985   17.7511 N   0  0  0  0  0  0  0  0  0  0  0  0
    9.6210   -0.6952   24.0976 C   0  0  0  0  0  0  0  0  0  0  0  0
    7.0792   -9.0217   17.1429 C   0  0  0  0  0  0  0  0  0  0  0  0
    3.1713  -10.1816   17.6634 C   0  0  0  0  0  0  0  0  0  0  0  0
    2.7878   -8.3822   16.2137 C   0  0  0  0  0  0  0  0  0  0  0  0
    9.4601   -2.6590   25.6528 C   0  0  0  0  0  0  0  0  0  0  0  0
   10.1182   -1.5672   23.1165 C   0  0  0  0  0  0  0  0  0  0  0  0
    1.0552   -9.6360   17.0650 C   0  0  0  0  0  0  0  0  0  0  0  0
    3.6519   -9.1783   16.9039 C   0  0  0  0  0  0  0  0  0  0  0  0
    7.8675   -7.0096   15.9415 C   0  0  0  0  0  0  0  0  0  0  0  0
    5.9733   -9.6553   17.3832 N   0  0  0  0  0  0  0  0  0  0  0  0
   10.2411   -2.9363   23.4301 C   0  0  0  0  0  0  0  0  0  0  0  0
   10.7288   -3.8197   19.9525 C   0  0  0  0  0  0  0  0  0  0  0  0
   10.1189   -5.0054   19.6987 C   0  0  0  0  0  0  0  0  0  0  0  0
  1  3  4  0
  1  7  4  0
  2 21  4  0
  2 27  4  0
  3  9  4  0
  3 10  4  0
  4  8  4  0
  4 18  4  0
  4 25  1  0
  5  9  4  0
  5 12  4  0
  6 13  1  0
  6 27  1  0
  7 28  4  0
  8 11  4  0
  9 29  4  0
 10 12  4  0
 11 24  1  0
 11 26  4  0
 12 25  1  0
 13 28  1  0
 14 20  4  0
 14 23  4  0
 15 17  4  0
 15 21  4  0
 16 19  4  0
 16 23  4  0
 17 22  4  0
 18 26  4  0
 19 24  4  0
 20 24  4  0
 22 27  4  0
 28 29  4  0
M  END
$$$$

 Created by Python create_sdf_string function

 29 33  0  0  0  0  0  0  0  0999 V2000
   10.7215   -3.3326   17.6437 C   0  0  0  0  0  0  0  0  0  0  0  0
    9.9489   -3.4675   24.6487 N   0  0  0  0  0  0  0  0  0  0  0  0
   10.0172   -4.4740   17.4101 C   0  0  0  0  0  0  0  0  0  0  0  0
    6.9051   -7.9575   16.4222 C   0  0  0  0  0  0  0  0  0  0  0  0
    8.9969   -6.3552   17.9668 N   0  0  0  0  0  0  0  0  0  0  0  0
   10.6702   -3.9051   22.4070 C   0  0  0  0  0  0  0  0  0  0  0  0
   11.0625   -3.0028   18.8894 C   0  0  0  0  0  0  0  0  0  0  0  0
    5.6180   -7.9194   16.1754 O   0  0  0  0  0  0  0  0  0  0  0  0
    9.7259   -5.3080   18.4485 C   0  0  0  0  0  0  0  0  0  0  0  0
    9.4578   -5.0200   16.3036 N   0  0  0  0  0  0  0  0  0  0  0  0
    5.0287   -8.9365   16.8223 C   0  0  0  0  0  0  0  0  0  0  0  0
    8.7742   -6.1498   16.6764 C   0  0  0  0  0  0  0  0  0  0  0  0
   10.9418   -3.4032   21.2053 O   0  0  0  0  0  0  0  0  0  0  0  0
    1.4797   -8.6258   16.2950 C   0  0  0  0  0  0  0  0  0  0  0  0
    9.2861   -1.2743   25.3585 C   0  0  0  0  0  0  0  0  0  0  0  0
    1.8892  -10.3985   17.7511 N   0  0  0  0  0  0  0  0  0  0  0  0
    9.6210   -0.6952   24.0976 C   0  0  0  0  0  0  0  0  0  0  0  0
    7.0792   -9.0217   17.1429 C   0  0  0  0  0  0  0  0  0  0  0  0
    3.1713  -10.1816   17.6634 C   0  0  0  0  0  0  0  0  0  0  0  0
    2.7878   -8.3822   16.2137 C   0  0  0  0  0  0  0  0  0  0  0  0
    9.4601   -2.6590   25.6528 C   0  0  0  0  0  0  0  0  0  0  0  0
   10.1182   -1.5672   23.1165 C   0  0  0  0  0  0  0  0  0  0  0  0
    1.0552   -9.6360   17.0650 C   0  0  0  0  0  0  0  0  0  0  0  0
    3.6519   -9.1783   16.9039 C   0  0  0  0  0  0  0  0  0  0  0  0
    7.8675   -7.0096   15.9415 C   0  0  0  0  0  0  0  0  0  0  0  0
    5.9733   -9.6553   17.3832 N   0  0  0  0  0  0  0  0  0  0  0  0
   10.2411   -2.9363   23.4301 C   0  0  0  0  0  0  0  0  0  0  0  0
   10.7288   -3.8197   19.9525 C   0  0  0  0  0  0  0  0  0  0  0  0
   10.1189   -5.0054   19.6987 C   0  0  0  0  0  0  0  0  0  0  0  0
  1  3  4  0
  1  7  4  0
  2 21  4  0
  2 27  4  0
  3  9  4  0
  3 10  4  0
  4  8  4  0
  4 18  4  0
  4 25  1  0
  5  9  4  0
  5 12  4  0
  6 13  1  0
  6 27  1  0
  7 28  4  0
  8 11  4  0
  9 29  4  0
 10 12  4  0
 11 24  1  0
 11 26  4  0
 12 25  1  0
 13 28  1  0
 14 20  4  0
 14 23  4  0
 15 17  4  0
 15 21  4  0
 16 19  4  0
 16 23  4  0
 17 22  4  0
 18 26  4  0
 19 24  4  0
 20 24  4  0
 22 27  4  0
 28 29  4  0
M  END
$$$$

 Created by Python create_sdf_string function

 29 33  0  0  0  0  0  0  0  0999 V2000
   10.7215   -3.3326   17.6437 C   0  0  0  0  0  0  0  0  0  0  0  0
    9.9489   -3.4675   24.6487 N   0  0  0  0  0  0  0  0  0  0  0  0
   10.0172   -4.4740   17.4101 C   0  0  0  0  0  0  0  0  0  0  0  0
    6.9051   -7.9575   16.4222 C   0  0  0  0  0  0  0  0  0  0  0  0
    8.9969   -6.3552   17.9668 N   0  0  0  0  0  0  0  0  0  0  0  0
   10.6702   -3.9051   22.4070 C   0  0  0  0  0  0  0  0  0  0  0  0
   11.0625   -3.0028   18.8894 C   0  0  0  0  0  0  0  0  0  0  0  0
    5.6180   -7.9194   16.1754 O   0  0  0  0  0  0  0  0  0  0  0  0
    9.7259   -5.3080   18.4485 C   0  0  0  0  0  0  0  0  0  0  0  0
    9.4578   -5.0200   16.3036 N   0  0  0  0  0  0  0  0  0  0  0  0
    5.0287   -8.9365   16.8223 C   0  0  0  0  0  0  0  0  0  0  0  0
    8.7742   -6.1498   16.6764 C   0  0  0  0  0  0  0  0  0  0  0  0
   10.9418   -3.4032   21.2053 O   0  0  0  0  0  0  0  0  0  0  0  0
    1.4797   -8.6258   16.2950 C   0  0  0  0  0  0  0  0  0  0  0  0
    9.2861   -1.2743   25.3585 C   0  0  0  0  0  0  0  0  0  0  0  0
    1.8892  -10.3985   17.7511 N   0  0  0  0  0  0  0  0  0  0  0  0
    9.6210   -0.6952   24.0976 C   0  0  0  0  0  0  0  0  0  0  0  0
    7.0792   -9.0217   17.1429 C   0  0  0  0  0  0  0  0  0  0  0  0
    3.1713  -10.1816   17.6634 C   0  0  0  0  0  0  0  0  0  0  0  0
    2.7878   -8.3822   16.2137 C   0  0  0  0  0  0  0  0  0  0  0  0
    9.4601   -2.6590   25.6528 C   0  0  0  0  0  0  0  0  0  0  0  0
   10.1182   -1.5672   23.1165 C   0  0  0  0  0  0  0  0  0  0  0  0
    1.0552   -9.6360   17.0650 C   0  0  0  0  0  0  0  0  0  0  0  0
    3.6519   -9.1783   16.9039 C   0  0  0  0  0  0  0  0  0  0  0  0
    7.8675   -7.0096   15.9415 C   0  0  0  0  0  0  0  0  0  0  0  0
    5.9733   -9.6553   17.3832 N   0  0  0  0  0  0  0  0  0  0  0  0
   10.2411   -2.9363   23.4301 C   0  0  0  0  0  0  0  0  0  0  0  0
   10.7288   -3.8197   19.9525 C   0  0  0  0  0  0  0  0  0  0  0  0
   10.1189   -5.0054   19.6987 C   0  0  0  0  0  0  0  0  0  0  0  0
  1  3  4  0
  1  7  4  0
  2 21  4  0
  2 27  4  0
  3  9  4  0
  3 10  4  0
  4  8  4  0
  4 18  4  0
  4 25  1  0
  5  9  4  0
  5 12  4  0
  6 13  1  0
  6 27  1  0
  7 28  4  0
  8 11  4  0
  9 29  4  0
 10 12  4  0
 11 24  1  0
 11 26  4  0
 12 25  1  0
 13 28  1  0
 14 20  4  0
 14 23  4  0
 15 17  4  0
 15 21  4  0
 16 19  4  0
 16 23  4  0
 17 22  4  0
 18 26  4  0
 19 24  4  0
 20 24  4  0
 22 27  4  0
 28 29  4  0
M  END
$$$$

 Created by Python create_sdf_string function

 29 33  0  0  0  0  0  0  0  0999 V2000
   10.7215   -3.3326   17.6437 C   0  0  0  0  0  0  0  0  0  0  0  0
    9.9489   -3.4675   24.6487 N   0  0  0  0  0  0  0  0  0  0  0  0
   10.0172   -4.4740   17.4101 C   0  0  0  0  0  0  0  0  0  0  0  0
    6.9051   -7.9575   16.4222 C   0  0  0  0  0  0  0  0  0  0  0  0
    8.9969   -6.3552   17.9668 N   0  0  0  0  0  0  0  0  0  0  0  0
   10.6702   -3.9051   22.4070 C   0  0  0  0  0  0  0  0  0  0  0  0
   11.0625   -3.0028   18.8894 C   0  0  0  0  0  0  0  0  0  0  0  0
    5.6180   -7.9194   16.1754 O   0  0  0  0  0  0  0  0  0  0  0  0
    9.7259   -5.3080   18.4485 C   0  0  0  0  0  0  0  0  0  0  0  0
    9.4578   -5.0200   16.3036 N   0  0  0  0  0  0  0  0  0  0  0  0
    5.0287   -8.9365   16.8223 C   0  0  0  0  0  0  0  0  0  0  0  0
    8.7742   -6.1498   16.6764 C   0  0  0  0  0  0  0  0  0  0  0  0
   10.9418   -3.4032   21.2053 O   0  0  0  0  0  0  0  0  0  0  0  0
    1.4797   -8.6258   16.2950 C   0  0  0  0  0  0  0  0  0  0  0  0
    9.2861   -1.2743   25.3585 C   0  0  0  0  0  0  0  0  0  0  0  0
    1.8892  -10.3985   17.7511 N   0  0  0  0  0  0  0  0  0  0  0  0
    9.6210   -0.6952   24.0976 C   0  0  0  0  0  0  0  0  0  0  0  0
    7.0792   -9.0217   17.1429 C   0  0  0  0  0  0  0  0  0  0  0  0
    3.1713  -10.1816   17.6634 C   0  0  0  0  0  0  0  0  0  0  0  0
    2.7878   -8.3822   16.2137 C   0  0  0  0  0  0  0  0  0  0  0  0
    9.4601   -2.6590   25.6528 C   0  0  0  0  0  0  0  0  0  0  0  0
   10.1182   -1.5672   23.1165 C   0  0  0  0  0  0  0  0  0  0  0  0
    1.0552   -9.6360   17.0650 C   0  0  0  0  0  0  0  0  0  0  0  0
    3.6519   -9.1783   16.9039 C   0  0  0  0  0  0  0  0  0  0  0  0
    7.8675   -7.0096   15.9415 C   0  0  0  0  0  0  0  0  0  0  0  0
    5.9733   -9.6553   17.3832 N   0  0  0  0  0  0  0  0  0  0  0  0
   10.2411   -2.9363   23.4301 C   0  0  0  0  0  0  0  0  0  0  0  0
   10.7288   -3.8197   19.9525 C   0  0  0  0  0  0  0  0  0  0  0  0
   10.1189   -5.0054   19.6987 C   0  0  0  0  0  0  0  0  0  0  0  0
  1  3  4  0
  1  7  4  0
  2 21  4  0
  2 27  4  0
  3  9  4  0
  3 10  4  0
  4  8  4  0
  4 18  4  0
  4 25  1  0
  5  9  4  0
  5 12  4  0
  6 13  1  0
  6 27  1  0
  7 28  4  0
  8 11  4  0
  9 29  4  0
 10 12  4  0
 11 24  1  0
 11 26  4  0
 12 25  1  0
 13 28  1  0
 14 20  4  0
 14 23  4  0
 15 17  4  0
 15 21  4  0
 16 19  4  0
 16 23  4  0
 17 22  4  0
 18 26  4  0
 19 24  4  0
 20 24  4  0
 22 27  4  0
 28 29  4  0
M  END
$$$$

 Created by Python create_sdf_string function

 29 33  0  0  0  0  0  0  0  0999 V2000
   10.7215   -3.3326   17.6437 C   0  0  0  0  0  0  0  0  0  0  0  0
    9.9489   -3.4675   24.6487 N   0  0  0  0  0  0  0  0  0  0  0  0
   10.0172   -4.4740   17.4101 C   0  0  0  0  0  0  0  0  0  0  0  0
    6.9051   -7.9575   16.4222 C   0  0  0  0  0  0  0  0  0  0  0  0
    8.9969   -6.3552   17.9668 N   0  0  0  0  0  0  0  0  0  0  0  0
   10.6702   -3.9051   22.4070 C   0  0  0  0  0  0  0  0  0  0  0  0
   11.0625   -3.0028   18.8894 C   0  0  0  0  0  0  0  0  0  0  0  0
    5.6180   -7.9194   16.1754 O   0  0  0  0  0  0  0  0  0  0  0  0
    9.7259   -5.3080   18.4485 C   0  0  0  0  0  0  0  0  0  0  0  0
    9.4578   -5.0200   16.3036 N   0  0  0  0  0  0  0  0  0  0  0  0
    5.0287   -8.9365   16.8223 C   0  0  0  0  0  0  0  0  0  0  0  0
    8.7742   -6.1498   16.6764 C   0  0  0  0  0  0  0  0  0  0  0  0
   10.9418   -3.4032   21.2053 O   0  0  0  0  0  0  0  0  0  0  0  0
    1.4797   -8.6258   16.2950 C   0  0  0  0  0  0  0  0  0  0  0  0
    9.2861   -1.2743   25.3585 C   0  0  0  0  0  0  0  0  0  0  0  0
    1.8892  -10.3985   17.7511 N   0  0  0  0  0  0  0  0  0  0  0  0
    9.6210   -0.6952   24.0976 C   0  0  0  0  0  0  0  0  0  0  0  0
    7.0792   -9.0217   17.1429 C   0  0  0  0  0  0  0  0  0  0  0  0
    3.1713  -10.1816   17.6634 C   0  0  0  0  0  0  0  0  0  0  0  0
    2.7878   -8.3822   16.2137 C   0  0  0  0  0  0  0  0  0  0  0  0
    9.4601   -2.6590   25.6528 C   0  0  0  0  0  0  0  0  0  0  0  0
   10.1182   -1.5672   23.1165 C   0  0  0  0  0  0  0  0  0  0  0  0
    1.0552   -9.6360   17.0650 C   0  0  0  0  0  0  0  0  0  0  0  0
    3.6519   -9.1783   16.9039 C   0  0  0  0  0  0  0  0  0  0  0  0
    7.8675   -7.0096   15.9415 C   0  0  0  0  0  0  0  0  0  0  0  0
    5.9733   -9.6553   17.3832 N   0  0  0  0  0  0  0  0  0  0  0  0
   10.2411   -2.9363   23.4301 C   0  0  0  0  0  0  0  0  0  0  0  0
   10.7288   -3.8197   19.9525 C   0  0  0  0  0  0  0  0  0  0  0  0
   10.1189   -5.0054   19.6987 C   0  0  0  0  0  0  0  0  0  0  0  0
  1  3  4  0
  1  7  4  0
  2 21  4  0
  2 27  4  0
  3  9  4  0
  3 10  4  0
  4  8  4  0
  4 18  4  0
  4 25  1  0
  5  9  4  0
  5 12  4  0
  6 13  1  0
  6 27  1  0
  7 28  4  0
  8 11  4  0
  9 29  4  0
 10 12  4  0
 11 24  1  0
 11 26  4  0
 12 25  1  0
 13 28  1  0
 14 20  4  0
 14 23  4  0
 15 17  4  0
 15 21  4  0
 16 19  4  0
 16 23  4  0
 17 22  4  0
 18 26  4  0
 19 24  4  0
 20 24  4  0
 22 27  4  0
 28 29  4  0
M  END
$$$$

 Created by Python create_sdf_string function

 29 33  0  0  0  0  0  0  0  0999 V2000
   10.7215   -3.3326   17.6437 C   0  0  0  0  0  0  0  0  0  0  0  0
    9.9489   -3.4675   24.6487 N   0  0  0  0  0  0  0  0  0  0  0  0
   10.0172   -4.4740   17.4101 C   0  0  0  0  0  0  0  0  0  0  0  0
    6.9051   -7.9575   16.4222 C   0  0  0  0  0  0  0  0  0  0  0  0
    8.9969   -6.3552   17.9668 N   0  0  0  0  0  0  0  0  0  0  0  0
   10.6702   -3.9051   22.4070 C   0  0  0  0  0  0  0  0  0  0  0  0
   11.0625   -3.0028   18.8894 C   0  0  0  0  0  0  0  0  0  0  0  0
    5.6180   -7.9194   16.1754 O   0  0  0  0  0  0  0  0  0  0  0  0
    9.7259   -5.3080   18.4485 C   0  0  0  0  0  0  0  0  0  0  0  0
    9.4578   -5.0200   16.3036 N   0  0  0  0  0  0  0  0  0  0  0  0
    5.0287   -8.9365   16.8223 C   0  0  0  0  0  0  0  0  0  0  0  0
    8.7742   -6.1498   16.6764 C   0  0  0  0  0  0  0  0  0  0  0  0
   10.9418   -3.4032   21.2053 O   0  0  0  0  0  0  0  0  0  0  0  0
    1.4797   -8.6258   16.2950 C   0  0  0  0  0  0  0  0  0  0  0  0
    9.2861   -1.2743   25.3585 C   0  0  0  0  0  0  0  0  0  0  0  0
    1.8892  -10.3985   17.7511 N   0  0  0  0  0  0  0  0  0  0  0  0
    9.6210   -0.6952   24.0976 C   0  0  0  0  0  0  0  0  0  0  0  0
    7.0792   -9.0217   17.1429 C   0  0  0  0  0  0  0  0  0  0  0  0
    3.1713  -10.1816   17.6634 C   0  0  0  0  0  0  0  0  0  0  0  0
    2.7878   -8.3822   16.2137 C   0  0  0  0  0  0  0  0  0  0  0  0
    9.4601   -2.6590   25.6528 C   0  0  0  0  0  0  0  0  0  0  0  0
   10.1182   -1.5672   23.1165 C   0  0  0  0  0  0  0  0  0  0  0  0
    1.0552   -9.6360   17.0650 C   0  0  0  0  0  0  0  0  0  0  0  0
    3.6519   -9.1783   16.9039 C   0  0  0  0  0  0  0  0  0  0  0  0
    7.8675   -7.0096   15.9415 C   0  0  0  0  0  0  0  0  0  0  0  0
    5.9733   -9.6553   17.3832 N   0  0  0  0  0  0  0  0  0  0  0  0
   10.2411   -2.9363   23.4301 C   0  0  0  0  0  0  0  0  0  0  0  0
   10.7288   -3.8197   19.9525 C   0  0  0  0  0  0  0  0  0  0  0  0
   10.1189   -5.0054   19.6987 C   0  0  0  0  0  0  0  0  0  0  0  0
  1  3  4  0
  1  7  4  0
  2 21  4  0
  2 27  4  0
  3  9  4  0
  3 10  4  0
  4  8  4  0
  4 18  4  0
  4 25  1  0
  5  9  4  0
  5 12  4  0
  6 13  1  0
  6 27  1  0
  7 28  4  0
  8 11  4  0
  9 29  4  0
 10 12  4  0
 11 24  1  0
 11 26  4  0
 12 25  1  0
 13 28  1  0
 14 20  4  0
 14 23  4  0
 15 17  4  0
 15 21  4  0
 16 19  4  0
 16 23  4  0
 17 22  4  0
 18 26  4  0
 19 24  4  0
 20 24  4  0
 22 27  4  0
 28 29  4  0
M  END
$$$$

 Created by Python create_sdf_string function

 29 33  0  0  0  0  0  0  0  0999 V2000
   10.7215   -3.3326   17.6437 C   0  0  0  0  0  0  0  0  0  0  0  0
    9.9489   -3.4675   24.6487 N   0  0  0  0  0  0  0  0  0  0  0  0
   10.0172   -4.4740   17.4101 C   0  0  0  0  0  0  0  0  0  0  0  0
    6.9051   -7.9575   16.4222 C   0  0  0  0  0  0  0  0  0  0  0  0
    8.9969   -6.3552   17.9668 N   0  0  0  0  0  0  0  0  0  0  0  0
   10.6702   -3.9051   22.4070 C   0  0  0  0  0  0  0  0  0  0  0  0
   11.0625   -3.0028   18.8894 C   0  0  0  0  0  0  0  0  0  0  0  0
    5.6180   -7.9194   16.1754 O   0  0  0  0  0  0  0  0  0  0  0  0
    9.7259   -5.3080   18.4485 C   0  0  0  0  0  0  0  0  0  0  0  0
    9.4578   -5.0200   16.3036 N   0  0  0  0  0  0  0  0  0  0  0  0
    5.0287   -8.9365   16.8223 C   0  0  0  0  0  0  0  0  0  0  0  0
    8.7742   -6.1498   16.6764 C   0  0  0  0  0  0  0  0  0  0  0  0
   10.9418   -3.4032   21.2053 O   0  0  0  0  0  0  0  0  0  0  0  0
    1.4797   -8.6258   16.2950 C   0  0  0  0  0  0  0  0  0  0  0  0
    9.2861   -1.2743   25.3585 C   0  0  0  0  0  0  0  0  0  0  0  0
    1.8892  -10.3985   17.7511 N   0  0  0  0  0  0  0  0  0  0  0  0
    9.6210   -0.6952   24.0976 C   0  0  0  0  0  0  0  0  0  0  0  0
    7.0792   -9.0217   17.1429 C   0  0  0  0  0  0  0  0  0  0  0  0
    3.1713  -10.1816   17.6634 C   0  0  0  0  0  0  0  0  0  0  0  0
    2.7878   -8.3822   16.2137 C   0  0  0  0  0  0  0  0  0  0  0  0
    9.4601   -2.6590   25.6528 C   0  0  0  0  0  0  0  0  0  0  0  0
   10.1182   -1.5672   23.1165 C   0  0  0  0  0  0  0  0  0  0  0  0
    1.0552   -9.6360   17.0650 C   0  0  0  0  0  0  0  0  0  0  0  0
    3.6519   -9.1783   16.9039 C   0  0  0  0  0  0  0  0  0  0  0  0
    7.8675   -7.0096   15.9415 C   0  0  0  0  0  0  0  0  0  0  0  0
    5.9733   -9.6553   17.3832 N   0  0  0  0  0  0  0  0  0  0  0  0
   10.2411   -2.9363   23.4301 C   0  0  0  0  0  0  0  0  0  0  0  0
   10.7288   -3.8197   19.9525 C   0  0  0  0  0  0  0  0  0  0  0  0
   10.1189   -5.0054   19.6987 C   0  0  0  0  0  0  0  0  0  0  0  0
  1  3  4  0
  1  7  4  0
  2 21  4  0
  2 27  4  0
  3  9  4  0
  3 10  4  0
  4  8  4  0
  4 18  4  0
  4 25  1  0
  5  9  4  0
  5 12  4  0
  6 13  1  0
  6 27  1  0
  7 28  4  0
  8 11  4  0
  9 29  4  0
 10 12  4  0
 11 24  1  0
 11 26  4  0
 12 25  1  0
 13 28  1  0
 14 20  4  0
 14 23  4  0
 15 17  4  0
 15 21  4  0
 16 19  4  0
 16 23  4  0
 17 22  4  0
 18 26  4  0
 19 24  4  0
 20 24  4  0
 22 27  4  0
 28 29  4  0
M  END
$$$$

 Created by Python create_sdf_string function

 29 33  0  0  0  0  0  0  0  0999 V2000
   10.7215   -3.3326   17.6437 C   0  0  0  0  0  0  0  0  0  0  0  0
    9.9489   -3.4675   24.6487 N   0  0  0  0  0  0  0  0  0  0  0  0
   10.0172   -4.4740   17.4101 C   0  0  0  0  0  0  0  0  0  0  0  0
    6.9051   -7.9575   16.4222 C   0  0  0  0  0  0  0  0  0  0  0  0
    8.9969   -6.3552   17.9668 N   0  0  0  0  0  0  0  0  0  0  0  0
   10.6702   -3.9051   22.4070 C   0  0  0  0  0  0  0  0  0  0  0  0
   11.0625   -3.0028   18.8894 C   0  0  0  0  0  0  0  0  0  0  0  0
    5.6180   -7.9194   16.1754 O   0  0  0  0  0  0  0  0  0  0  0  0
    9.7259   -5.3080   18.4485 C   0  0  0  0  0  0  0  0  0  0  0  0
    9.4578   -5.0200   16.3036 N   0  0  0  0  0  0  0  0  0  0  0  0
    5.0287   -8.9365   16.8223 C   0  0  0  0  0  0  0  0  0  0  0  0
    8.7742   -6.1498   16.6764 C   0  0  0  0  0  0  0  0  0  0  0  0
   10.9418   -3.4032   21.2053 O   0  0  0  0  0  0  0  0  0  0  0  0
    1.4797   -8.6258   16.2950 C   0  0  0  0  0  0  0  0  0  0  0  0
    9.2861   -1.2743   25.3585 C   0  0  0  0  0  0  0  0  0  0  0  0
    1.8892  -10.3985   17.7511 N   0  0  0  0  0  0  0  0  0  0  0  0
    9.6210   -0.6952   24.0976 C   0  0  0  0  0  0  0  0  0  0  0  0
    7.0792   -9.0217   17.1429 C   0  0  0  0  0  0  0  0  0  0  0  0
    3.1713  -10.1816   17.6634 C   0  0  0  0  0  0  0  0  0  0  0  0
    2.7878   -8.3822   16.2137 C   0  0  0  0  0  0  0  0  0  0  0  0
    9.4601   -2.6590   25.6528 C   0  0  0  0  0  0  0  0  0  0  0  0
   10.1182   -1.5672   23.1165 C   0  0  0  0  0  0  0  0  0  0  0  0
    1.0552   -9.6360   17.0650 C   0  0  0  0  0  0  0  0  0  0  0  0
    3.6519   -9.1783   16.9039 C   0  0  0  0  0  0  0  0  0  0  0  0
    7.8675   -7.0096   15.9415 C   0  0  0  0  0  0  0  0  0  0  0  0
    5.9733   -9.6553   17.3832 N   0  0  0  0  0  0  0  0  0  0  0  0
   10.2411   -2.9363   23.4301 C   0  0  0  0  0  0  0  0  0  0  0  0
   10.7288   -3.8197   19.9525 C   0  0  0  0  0  0  0  0  0  0  0  0
   10.1189   -5.0054   19.6987 C   0  0  0  0  0  0  0  0  0  0  0  0
  1  3  4  0
  1  7  4  0
  2 21  4  0
  2 27  4  0
  3  9  4  0
  3 10  4  0
  4  8  4  0
  4 18  4  0
  4 25  1  0
  5  9  4  0
  5 12  4  0
  6 13  1  0
  6 27  1  0
  7 28  4  0
  8 11  4  0
  9 29  4  0
 10 12  4  0
 11 24  1  0
 11 26  4  0
 12 25  1  0
 13 28  1  0
 14 20  4  0
 14 23  4  0
 15 17  4  0
 15 21  4  0
 16 19  4  0
 16 23  4  0
 17 22  4  0
 18 26  4  0
 19 24  4  0
 20 24  4  0
 22 27  4  0
 28 29  4  0
M  END
$$$$

 Created by Python create_sdf_string function

 29 33  0  0  0  0  0  0  0  0999 V2000
   10.7215   -3.3326   17.6437 C   0  0  0  0  0  0  0  0  0  0  0  0
    9.9489   -3.4675   24.6487 N   0  0  0  0  0  0  0  0  0  0  0  0
   10.0172   -4.4740   17.4101 C   0  0  0  0  0  0  0  0  0  0  0  0
    6.9051   -7.9575   16.4222 C   0  0  0  0  0  0  0  0  0  0  0  0
    8.9969   -6.3552   17.9668 N   0  0  0  0  0  0  0  0  0  0  0  0
   10.6702   -3.9051   22.4070 C   0  0  0  0  0  0  0  0  0  0  0  0
   11.0625   -3.0028   18.8894 C   0  0  0  0  0  0  0  0  0  0  0  0
    5.6180   -7.9194   16.1754 O   0  0  0  0  0  0  0  0  0  0  0  0
    9.7259   -5.3080   18.4485 C   0  0  0  0  0  0  0  0  0  0  0  0
    9.4578   -5.0200   16.3036 N   0  0  0  0  0  0  0  0  0  0  0  0
    5.0287   -8.9365   16.8223 C   0  0  0  0  0  0  0  0  0  0  0  0
    8.7742   -6.1498   16.6764 C   0  0  0  0  0  0  0  0  0  0  0  0
   10.9418   -3.4032   21.2053 O   0  0  0  0  0  0  0  0  0  0  0  0
    1.4797   -8.6258   16.2950 C   0  0  0  0  0  0  0  0  0  0  0  0
    9.2861   -1.2743   25.3585 C   0  0  0  0  0  0  0  0  0  0  0  0
    1.8892  -10.3985   17.7511 N   0  0  0  0  0  0  0  0  0  0  0  0
    9.6210   -0.6952   24.0976 C   0  0  0  0  0  0  0  0  0  0  0  0
    7.0792   -9.0217   17.1429 C   0  0  0  0  0  0  0  0  0  0  0  0
    3.1713  -10.1816   17.6634 C   0  0  0  0  0  0  0  0  0  0  0  0
    2.7878   -8.3822   16.2137 C   0  0  0  0  0  0  0  0  0  0  0  0
    9.4601   -2.6590   25.6528 C   0  0  0  0  0  0  0  0  0  0  0  0
   10.1182   -1.5672   23.1165 C   0  0  0  0  0  0  0  0  0  0  0  0
    1.0552   -9.6360   17.0650 C   0  0  0  0  0  0  0  0  0  0  0  0
    3.6519   -9.1783   16.9039 C   0  0  0  0  0  0  0  0  0  0  0  0
    7.8675   -7.0096   15.9415 C   0  0  0  0  0  0  0  0  0  0  0  0
    5.9733   -9.6553   17.3832 N   0  0  0  0  0  0  0  0  0  0  0  0
   10.2411   -2.9363   23.4301 C   0  0  0  0  0  0  0  0  0  0  0  0
   10.7288   -3.8197   19.9525 C   0  0  0  0  0  0  0  0  0  0  0  0
   10.1189   -5.0054   19.6987 C   0  0  0  0  0  0  0  0  0  0  0  0
  1  3  4  0
  1  7  4  0
  2 21  4  0
  2 27  4  0
  3  9  4  0
  3 10  4  0
  4  8  4  0
  4 18  4  0
  4 25  1  0
  5  9  4  0
  5 12  4  0
  6 13  1  0
  6 27  1  0
  7 28  4  0
  8 11  4  0
  9 29  4  0
 10 12  4  0
 11 24  1  0
 11 26  4  0
 12 25  1  0
 13 28  1  0
 14 20  4  0
 14 23  4  0
 15 17  4  0
 15 21  4  0
 16 19  4  0
 16 23  4  0
 17 22  4  0
 18 26  4  0
 19 24  4  0
 20 24  4  0
 22 27  4  0
 28 29  4  0
M  END
$$$$

 Created by Python create_sdf_string function

 29 33  0  0  0  0  0  0  0  0999 V2000
   10.7215   -3.3326   17.6437 C   0  0  0  0  0  0  0  0  0  0  0  0
    9.9489   -3.4675   24.6487 N   0  0  0  0  0  0  0  0  0  0  0  0
   10.0172   -4.4740   17.4101 C   0  0  0  0  0  0  0  0  0  0  0  0
    6.9051   -7.9575   16.4222 C   0  0  0  0  0  0  0  0  0  0  0  0
    8.9969   -6.3552   17.9668 N   0  0  0  0  0  0  0  0  0  0  0  0
   10.6702   -3.9051   22.4070 C   0  0  0  0  0  0  0  0  0  0  0  0
   11.0625   -3.0028   18.8894 C   0  0  0  0  0  0  0  0  0  0  0  0
    5.6180   -7.9194   16.1754 O   0  0  0  0  0  0  0  0  0  0  0  0
    9.7259   -5.3080   18.4485 C   0  0  0  0  0  0  0  0  0  0  0  0
    9.4578   -5.0200   16.3036 N   0  0  0  0  0  0  0  0  0  0  0  0
    5.0287   -8.9365   16.8223 C   0  0  0  0  0  0  0  0  0  0  0  0
    8.7742   -6.1498   16.6764 C   0  0  0  0  0  0  0  0  0  0  0  0
   10.9418   -3.4032   21.2053 O   0  0  0  0  0  0  0  0  0  0  0  0
    1.4797   -8.6258   16.2950 C   0  0  0  0  0  0  0  0  0  0  0  0
    9.2861   -1.2743   25.3585 C   0  0  0  0  0  0  0  0  0  0  0  0
    1.8892  -10.3985   17.7511 N   0  0  0  0  0  0  0  0  0  0  0  0
    9.6210   -0.6952   24.0976 C   0  0  0  0  0  0  0  0  0  0  0  0
    7.0792   -9.0217   17.1429 C   0  0  0  0  0  0  0  0  0  0  0  0
    3.1713  -10.1816   17.6634 C   0  0  0  0  0  0  0  0  0  0  0  0
    2.7878   -8.3822   16.2137 C   0  0  0  0  0  0  0  0  0  0  0  0
    9.4601   -2.6590   25.6528 C   0  0  0  0  0  0  0  0  0  0  0  0
   10.1182   -1.5672   23.1165 C   0  0  0  0  0  0  0  0  0  0  0  0
    1.0552   -9.6360   17.0650 C   0  0  0  0  0  0  0  0  0  0  0  0
    3.6519   -9.1783   16.9039 C   0  0  0  0  0  0  0  0  0  0  0  0
    7.8675   -7.0096   15.9415 C   0  0  0  0  0  0  0  0  0  0  0  0
    5.9733   -9.6553   17.3832 N   0  0  0  0  0  0  0  0  0  0  0  0
   10.2411   -2.9363   23.4301 C   0  0  0  0  0  0  0  0  0  0  0  0
   10.7288   -3.8197   19.9525 C   0  0  0  0  0  0  0  0  0  0  0  0
   10.1189   -5.0054   19.6987 C   0  0  0  0  0  0  0  0  0  0  0  0
  1  3  4  0
  1  7  4  0
  2 21  4  0
  2 27  4  0
  3  9  4  0
  3 10  4  0
  4  8  4  0
  4 18  4  0
  4 25  1  0
  5  9  4  0
  5 12  4  0
  6 13  1  0
  6 27  1  0
  7 28  4  0
  8 11  4  0
  9 29  4  0
 10 12  4  0
 11 24  1  0
 11 26  4  0
 12 25  1  0
 13 28  1  0
 14 20  4  0
 14 23  4  0
 15 17  4  0
 15 21  4  0
 16 19  4  0
 16 23  4  0
 17 22  4  0
 18 26  4  0
 19 24  4  0
 20 24  4  0
 22 27  4  0
 28 29  4  0
M  END
$$$$

 Created by Python create_sdf_string function

 29 33  0  0  0  0  0  0  0  0999 V2000
   10.7215   -3.3326   17.6437 C   0  0  0  0  0  0  0  0  0  0  0  0
    9.9489   -3.4675   24.6487 N   0  0  0  0  0  0  0  0  0  0  0  0
   10.0172   -4.4740   17.4101 C   0  0  0  0  0  0  0  0  0  0  0  0
    6.9051   -7.9575   16.4222 C   0  0  0  0  0  0  0  0  0  0  0  0
    8.9969   -6.3552   17.9668 N   0  0  0  0  0  0  0  0  0  0  0  0
   10.6702   -3.9051   22.4070 C   0  0  0  0  0  0  0  0  0  0  0  0
   11.0625   -3.0028   18.8894 C   0  0  0  0  0  0  0  0  0  0  0  0
    5.6180   -7.9194   16.1754 O   0  0  0  0  0  0  0  0  0  0  0  0
    9.7259   -5.3080   18.4485 C   0  0  0  0  0  0  0  0  0  0  0  0
    9.4578   -5.0200   16.3036 N   0  0  0  0  0  0  0  0  0  0  0  0
    5.0287   -8.9365   16.8223 C   0  0  0  0  0  0  0  0  0  0  0  0
    8.7742   -6.1498   16.6764 C   0  0  0  0  0  0  0  0  0  0  0  0
   10.9418   -3.4032   21.2053 O   0  0  0  0  0  0  0  0  0  0  0  0
    1.4797   -8.6258   16.2950 C   0  0  0  0  0  0  0  0  0  0  0  0
    9.2861   -1.2743   25.3585 C   0  0  0  0  0  0  0  0  0  0  0  0
    1.8892  -10.3985   17.7511 N   0  0  0  0  0  0  0  0  0  0  0  0
    9.6210   -0.6952   24.0976 C   0  0  0  0  0  0  0  0  0  0  0  0
    7.0792   -9.0217   17.1429 C   0  0  0  0  0  0  0  0  0  0  0  0
    3.1713  -10.1816   17.6634 C   0  0  0  0  0  0  0  0  0  0  0  0
    2.7878   -8.3822   16.2137 C   0  0  0  0  0  0  0  0  0  0  0  0
    9.4601   -2.6590   25.6528 C   0  0  0  0  0  0  0  0  0  0  0  0
   10.1182   -1.5672   23.1165 C   0  0  0  0  0  0  0  0  0  0  0  0
    1.0552   -9.6360   17.0650 C   0  0  0  0  0  0  0  0  0  0  0  0
    3.6519   -9.1783   16.9039 C   0  0  0  0  0  0  0  0  0  0  0  0
    7.8675   -7.0096   15.9415 C   0  0  0  0  0  0  0  0  0  0  0  0
    5.9733   -9.6553   17.3832 N   0  0  0  0  0  0  0  0  0  0  0  0
   10.2411   -2.9363   23.4301 C   0  0  0  0  0  0  0  0  0  0  0  0
   10.7288   -3.8197   19.9525 C   0  0  0  0  0  0  0  0  0  0  0  0
   10.1189   -5.0054   19.6987 C   0  0  0  0  0  0  0  0  0  0  0  0
  1  3  4  0
  1  7  4  0
  2 21  4  0
  2 27  4  0
  3  9  4  0
  3 10  4  0
  4  8  4  0
  4 18  4  0
  4 25  1  0
  5  9  4  0
  5 12  4  0
  6 13  1  0
  6 27  1  0
  7 28  4  0
  8 11  4  0
  9 29  4  0
 10 12  4  0
 11 24  1  0
 11 26  4  0
 12 25  1  0
 13 28  1  0
 14 20  4  0
 14 23  4  0
 15 17  4  0
 15 21  4  0
 16 19  4  0
 16 23  4  0
 17 22  4  0
 18 26  4  0
 19 24  4  0
 20 24  4  0
 22 27  4  0
 28 29  4  0
M  END
$$$$

 Created by Python create_sdf_string function

 29 33  0  0  0  0  0  0  0  0999 V2000
   10.7215   -3.3326   17.6437 C   0  0  0  0  0  0  0  0  0  0  0  0
    9.9489   -3.4675   24.6487 N   0  0  0  0  0  0  0  0  0  0  0  0
   10.0172   -4.4740   17.4101 C   0  0  0  0  0  0  0  0  0  0  0  0
    6.9051   -7.9575   16.4222 C   0  0  0  0  0  0  0  0  0  0  0  0
    8.9969   -6.3552   17.9668 N   0  0  0  0  0  0  0  0  0  0  0  0
   10.6702   -3.9051   22.4070 C   0  0  0  0  0  0  0  0  0  0  0  0
   11.0625   -3.0028   18.8894 C   0  0  0  0  0  0  0  0  0  0  0  0
    5.6180   -7.9194   16.1754 O   0  0  0  0  0  0  0  0  0  0  0  0
    9.7259   -5.3080   18.4485 C   0  0  0  0  0  0  0  0  0  0  0  0
    9.4578   -5.0200   16.3036 N   0  0  0  0  0  0  0  0  0  0  0  0
    5.0287   -8.9365   16.8223 C   0  0  0  0  0  0  0  0  0  0  0  0
    8.7742   -6.1498   16.6764 C   0  0  0  0  0  0  0  0  0  0  0  0
   10.9418   -3.4032   21.2053 O   0  0  0  0  0  0  0  0  0  0  0  0
    1.4797   -8.6258   16.2950 C   0  0  0  0  0  0  0  0  0  0  0  0
    9.2861   -1.2743   25.3585 C   0  0  0  0  0  0  0  0  0  0  0  0
    1.8892  -10.3985   17.7511 N   0  0  0  0  0  0  0  0  0  0  0  0
    9.6210   -0.6952   24.0976 C   0  0  0  0  0  0  0  0  0  0  0  0
    7.0792   -9.0217   17.1429 C   0  0  0  0  0  0  0  0  0  0  0  0
    3.1713  -10.1816   17.6634 C   0  0  0  0  0  0  0  0  0  0  0  0
    2.7878   -8.3822   16.2137 C   0  0  0  0  0  0  0  0  0  0  0  0
    9.4601   -2.6590   25.6528 C   0  0  0  0  0  0  0  0  0  0  0  0
   10.1182   -1.5672   23.1165 C   0  0  0  0  0  0  0  0  0  0  0  0
    1.0552   -9.6360   17.0650 C   0  0  0  0  0  0  0  0  0  0  0  0
    3.6519   -9.1783   16.9039 C   0  0  0  0  0  0  0  0  0  0  0  0
    7.8675   -7.0096   15.9415 C   0  0  0  0  0  0  0  0  0  0  0  0
    5.9733   -9.6553   17.3832 N   0  0  0  0  0  0  0  0  0  0  0  0
   10.2411   -2.9363   23.4301 C   0  0  0  0  0  0  0  0  0  0  0  0
   10.7288   -3.8197   19.9525 C   0  0  0  0  0  0  0  0  0  0  0  0
   10.1189   -5.0054   19.6987 C   0  0  0  0  0  0  0  0  0  0  0  0
  1  3  4  0
  1  7  4  0
  2 21  4  0
  2 27  4  0
  3  9  4  0
  3 10  4  0
  4  8  4  0
  4 18  4  0
  4 25  1  0
  5  9  4  0
  5 12  4  0
  6 13  1  0
  6 27  1  0
  7 28  4  0
  8 11  4  0
  9 29  4  0
 10 12  4  0
 11 24  1  0
 11 26  4  0
 12 25  1  0
 13 28  1  0
 14 20  4  0
 14 23  4  0
 15 17  4  0
 15 21  4  0
 16 19  4  0
 16 23  4  0
 17 22  4  0
 18 26  4  0
 19 24  4  0
 20 24  4  0
 22 27  4  0
 28 29  4  0
M  END
$$$$

 Created by Python create_sdf_string function

 29 33  0  0  0  0  0  0  0  0999 V2000
   10.7215   -3.3326   17.6437 C   0  0  0  0  0  0  0  0  0  0  0  0
    9.9489   -3.4675   24.6487 N   0  0  0  0  0  0  0  0  0  0  0  0
   10.0172   -4.4740   17.4101 C   0  0  0  0  0  0  0  0  0  0  0  0
    6.9051   -7.9575   16.4222 C   0  0  0  0  0  0  0  0  0  0  0  0
    8.9969   -6.3552   17.9668 N   0  0  0  0  0  0  0  0  0  0  0  0
   10.6702   -3.9051   22.4070 C   0  0  0  0  0  0  0  0  0  0  0  0
   11.0625   -3.0028   18.8894 C   0  0  0  0  0  0  0  0  0  0  0  0
    5.6180   -7.9194   16.1754 O   0  0  0  0  0  0  0  0  0  0  0  0
    9.7259   -5.3080   18.4485 C   0  0  0  0  0  0  0  0  0  0  0  0
    9.4578   -5.0200   16.3036 N   0  0  0  0  0  0  0  0  0  0  0  0
    5.0287   -8.9365   16.8223 C   0  0  0  0  0  0  0  0  0  0  0  0
    8.7742   -6.1498   16.6764 C   0  0  0  0  0  0  0  0  0  0  0  0
   10.9418   -3.4032   21.2053 O   0  0  0  0  0  0  0  0  0  0  0  0
    1.4797   -8.6258   16.2950 C   0  0  0  0  0  0  0  0  0  0  0  0
    9.2861   -1.2743   25.3585 C   0  0  0  0  0  0  0  0  0  0  0  0
    1.8892  -10.3985   17.7511 N   0  0  0  0  0  0  0  0  0  0  0  0
    9.6210   -0.6952   24.0976 C   0  0  0  0  0  0  0  0  0  0  0  0
    7.0792   -9.0217   17.1429 C   0  0  0  0  0  0  0  0  0  0  0  0
    3.1713  -10.1816   17.6634 C   0  0  0  0  0  0  0  0  0  0  0  0
    2.7878   -8.3822   16.2137 C   0  0  0  0  0  0  0  0  0  0  0  0
    9.4601   -2.6590   25.6528 C   0  0  0  0  0  0  0  0  0  0  0  0
   10.1182   -1.5672   23.1165 C   0  0  0  0  0  0  0  0  0  0  0  0
    1.0552   -9.6360   17.0650 C   0  0  0  0  0  0  0  0  0  0  0  0
    3.6519   -9.1783   16.9039 C   0  0  0  0  0  0  0  0  0  0  0  0
    7.8675   -7.0096   15.9415 C   0  0  0  0  0  0  0  0  0  0  0  0
    5.9733   -9.6553   17.3832 N   0  0  0  0  0  0  0  0  0  0  0  0
   10.2411   -2.9363   23.4301 C   0  0  0  0  0  0  0  0  0  0  0  0
   10.7288   -3.8197   19.9525 C   0  0  0  0  0  0  0  0  0  0  0  0
   10.1189   -5.0054   19.6987 C   0  0  0  0  0  0  0  0  0  0  0  0
  1  3  4  0
  1  7  4  0
  2 21  4  0
  2 27  4  0
  3  9  4  0
  3 10  4  0
  4  8  4  0
  4 18  4  0
  4 25  1  0
  5  9  4  0
  5 12  4  0
  6 13  1  0
  6 27  1  0
  7 28  4  0
  8 11  4  0
  9 29  4  0
 10 12  4  0
 11 24  1  0
 11 26  4  0
 12 25  1  0
 13 28  1  0
 14 20  4  0
 14 23  4  0
 15 17  4  0
 15 21  4  0
 16 19  4  0
 16 23  4  0
 17 22  4  0
 18 26  4  0
 19 24  4  0
 20 24  4  0
 22 27  4  0
 28 29  4  0
M  END
$$$$

 Created by Python create_sdf_string function

 29 33  0  0  0  0  0  0  0  0999 V2000
   10.7215   -3.3326   17.6437 C   0  0  0  0  0  0  0  0  0  0  0  0
    9.9489   -3.4675   24.6487 N   0  0  0  0  0  0  0  0  0  0  0  0
   10.0172   -4.4740   17.4101 C   0  0  0  0  0  0  0  0  0  0  0  0
    6.9051   -7.9575   16.4222 C   0  0  0  0  0  0  0  0  0  0  0  0
    8.9969   -6.3552   17.9668 N   0  0  0  0  0  0  0  0  0  0  0  0
   10.6702   -3.9051   22.4070 C   0  0  0  0  0  0  0  0  0  0  0  0
   11.0625   -3.0028   18.8894 C   0  0  0  0  0  0  0  0  0  0  0  0
    5.6180   -7.9194   16.1754 O   0  0  0  0  0  0  0  0  0  0  0  0
    9.7259   -5.3080   18.4485 C   0  0  0  0  0  0  0  0  0  0  0  0
    9.4578   -5.0200   16.3036 N   0  0  0  0  0  0  0  0  0  0  0  0
    5.0287   -8.9365   16.8223 C   0  0  0  0  0  0  0  0  0  0  0  0
    8.7742   -6.1498   16.6764 C   0  0  0  0  0  0  0  0  0  0  0  0
   10.9418   -3.4032   21.2053 O   0  0  0  0  0  0  0  0  0  0  0  0
    1.4797   -8.6258   16.2950 C   0  0  0  0  0  0  0  0  0  0  0  0
    9.2861   -1.2743   25.3585 C   0  0  0  0  0  0  0  0  0  0  0  0
    1.8892  -10.3985   17.7511 N   0  0  0  0  0  0  0  0  0  0  0  0
    9.6210   -0.6952   24.0976 C   0  0  0  0  0  0  0  0  0  0  0  0
    7.0792   -9.0217   17.1429 C   0  0  0  0  0  0  0  0  0  0  0  0
    3.1713  -10.1816   17.6634 C   0  0  0  0  0  0  0  0  0  0  0  0
    2.7878   -8.3822   16.2137 C   0  0  0  0  0  0  0  0  0  0  0  0
    9.4601   -2.6590   25.6528 C   0  0  0  0  0  0  0  0  0  0  0  0
   10.1182   -1.5672   23.1165 C   0  0  0  0  0  0  0  0  0  0  0  0
    1.0552   -9.6360   17.0650 C   0  0  0  0  0  0  0  0  0  0  0  0
    3.6519   -9.1783   16.9039 C   0  0  0  0  0  0  0  0  0  0  0  0
    7.8675   -7.0096   15.9415 C   0  0  0  0  0  0  0  0  0  0  0  0
    5.9733   -9.6553   17.3832 N   0  0  0  0  0  0  0  0  0  0  0  0
   10.2411   -2.9363   23.4301 C   0  0  0  0  0  0  0  0  0  0  0  0
   10.7288   -3.8197   19.9525 C   0  0  0  0  0  0  0  0  0  0  0  0
   10.1189   -5.0054   19.6987 C   0  0  0  0  0  0  0  0  0  0  0  0
  1  3  4  0
  1  7  4  0
  2 21  4  0
  2 27  4  0
  3  9  4  0
  3 10  4  0
  4  8  4  0
  4 18  4  0
  4 25  1  0
  5  9  4  0
  5 12  4  0
  6 13  1  0
  6 27  1  0
  7 28  4  0
  8 11  4  0
  9 29  4  0
 10 12  4  0
 11 24  1  0
 11 26  4  0
 12 25  1  0
 13 28  1  0
 14 20  4  0
 14 23  4  0
 15 17  4  0
 15 21  4  0
 16 19  4  0
 16 23  4  0
 17 22  4  0
 18 26  4  0
 19 24  4  0
 20 24  4  0
 22 27  4  0
 28 29  4  0
M  END
$$$$

 Created by Python create_sdf_string function

 29 33  0  0  0  0  0  0  0  0999 V2000
   10.7215   -3.3326   17.6437 C   0  0  0  0  0  0  0  0  0  0  0  0
    9.9489   -3.4675   24.6487 N   0  0  0  0  0  0  0  0  0  0  0  0
   10.0172   -4.4740   17.4101 C   0  0  0  0  0  0  0  0  0  0  0  0
    6.9051   -7.9575   16.4222 C   0  0  0  0  0  0  0  0  0  0  0  0
    8.9969   -6.3552   17.9668 N   0  0  0  0  0  0  0  0  0  0  0  0
   10.6702   -3.9051   22.4070 C   0  0  0  0  0  0  0  0  0  0  0  0
   11.0625   -3.0028   18.8894 C   0  0  0  0  0  0  0  0  0  0  0  0
    5.6180   -7.9194   16.1754 O   0  0  0  0  0  0  0  0  0  0  0  0
    9.7259   -5.3080   18.4485 C   0  0  0  0  0  0  0  0  0  0  0  0
    9.4578   -5.0200   16.3036 N   0  0  0  0  0  0  0  0  0  0  0  0
    5.0287   -8.9365   16.8223 C   0  0  0  0  0  0  0  0  0  0  0  0
    8.7742   -6.1498   16.6764 C   0  0  0  0  0  0  0  0  0  0  0  0
   10.9418   -3.4032   21.2053 O   0  0  0  0  0  0  0  0  0  0  0  0
    1.4797   -8.6258   16.2950 C   0  0  0  0  0  0  0  0  0  0  0  0
    9.2861   -1.2743   25.3585 C   0  0  0  0  0  0  0  0  0  0  0  0
    1.8892  -10.3985   17.7511 N   0  0  0  0  0  0  0  0  0  0  0  0
    9.6210   -0.6952   24.0976 C   0  0  0  0  0  0  0  0  0  0  0  0
    7.0792   -9.0217   17.1429 C   0  0  0  0  0  0  0  0  0  0  0  0
    3.1713  -10.1816   17.6634 C   0  0  0  0  0  0  0  0  0  0  0  0
    2.7878   -8.3822   16.2137 C   0  0  0  0  0  0  0  0  0  0  0  0
    9.4601   -2.6590   25.6528 C   0  0  0  0  0  0  0  0  0  0  0  0
   10.1182   -1.5672   23.1165 C   0  0  0  0  0  0  0  0  0  0  0  0
    1.0552   -9.6360   17.0650 C   0  0  0  0  0  0  0  0  0  0  0  0
    3.6519   -9.1783   16.9039 C   0  0  0  0  0  0  0  0  0  0  0  0
    7.8675   -7.0096   15.9415 C   0  0  0  0  0  0  0  0  0  0  0  0
    5.9733   -9.6553   17.3832 N   0  0  0  0  0  0  0  0  0  0  0  0
   10.2411   -2.9363   23.4301 C   0  0  0  0  0  0  0  0  0  0  0  0
   10.7288   -3.8197   19.9525 C   0  0  0  0  0  0  0  0  0  0  0  0
   10.1189   -5.0054   19.6987 C   0  0  0  0  0  0  0  0  0  0  0  0
  1  3  4  0
  1  7  4  0
  2 21  4  0
  2 27  4  0
  3  9  4  0
  3 10  4  0
  4  8  4  0
  4 18  4  0
  4 25  1  0
  5  9  4  0
  5 12  4  0
  6 13  1  0
  6 27  1  0
  7 28  4  0
  8 11  4  0
  9 29  4  0
 10 12  4  0
 11 24  1  0
 11 26  4  0
 12 25  1  0
 13 28  1  0
 14 20  4  0
 14 23  4  0
 15 17  4  0
 15 21  4  0
 16 19  4  0
 16 23  4  0
 17 22  4  0
 18 26  4  0
 19 24  4  0
 20 24  4  0
 22 27  4  0
 28 29  4  0
M  END
$$$$

 Created by Python create_sdf_string function

 29 33  0  0  0  0  0  0  0  0999 V2000
   10.7215   -3.3326   17.6437 C   0  0  0  0  0  0  0  0  0  0  0  0
    9.9489   -3.4675   24.6487 N   0  0  0  0  0  0  0  0  0  0  0  0
   10.0172   -4.4740   17.4101 C   0  0  0  0  0  0  0  0  0  0  0  0
    6.9051   -7.9575   16.4222 C   0  0  0  0  0  0  0  0  0  0  0  0
    8.9969   -6.3552   17.9668 N   0  0  0  0  0  0  0  0  0  0  0  0
   10.6702   -3.9051   22.4070 C   0  0  0  0  0  0  0  0  0  0  0  0
   11.0625   -3.0028   18.8894 C   0  0  0  0  0  0  0  0  0  0  0  0
    5.6180   -7.9194   16.1754 O   0  0  0  0  0  0  0  0  0  0  0  0
    9.7259   -5.3080   18.4485 C   0  0  0  0  0  0  0  0  0  0  0  0
    9.4578   -5.0200   16.3036 N   0  0  0  0  0  0  0  0  0  0  0  0
    5.0287   -8.9365   16.8223 C   0  0  0  0  0  0  0  0  0  0  0  0
    8.7742   -6.1498   16.6764 C   0  0  0  0  0  0  0  0  0  0  0  0
   10.9418   -3.4032   21.2053 O   0  0  0  0  0  0  0  0  0  0  0  0
    1.4797   -8.6258   16.2950 C   0  0  0  0  0  0  0  0  0  0  0  0
    9.2861   -1.2743   25.3585 C   0  0  0  0  0  0  0  0  0  0  0  0
    1.8892  -10.3985   17.7511 N   0  0  0  0  0  0  0  0  0  0  0  0
    9.6210   -0.6952   24.0976 C   0  0  0  0  0  0  0  0  0  0  0  0
    7.0792   -9.0217   17.1429 C   0  0  0  0  0  0  0  0  0  0  0  0
    3.1713  -10.1816   17.6634 C   0  0  0  0  0  0  0  0  0  0  0  0
    2.7878   -8.3822   16.2137 C   0  0  0  0  0  0  0  0  0  0  0  0
    9.4601   -2.6590   25.6528 C   0  0  0  0  0  0  0  0  0  0  0  0
   10.1182   -1.5672   23.1165 C   0  0  0  0  0  0  0  0  0  0  0  0
    1.0552   -9.6360   17.0650 C   0  0  0  0  0  0  0  0  0  0  0  0
    3.6519   -9.1783   16.9039 C   0  0  0  0  0  0  0  0  0  0  0  0
    7.8675   -7.0096   15.9415 C   0  0  0  0  0  0  0  0  0  0  0  0
    5.9733   -9.6553   17.3832 N   0  0  0  0  0  0  0  0  0  0  0  0
   10.2411   -2.9363   23.4301 C   0  0  0  0  0  0  0  0  0  0  0  0
   10.7288   -3.8197   19.9525 C   0  0  0  0  0  0  0  0  0  0  0  0
   10.1189   -5.0054   19.6987 C   0  0  0  0  0  0  0  0  0  0  0  0
  1  3  4  0
  1  7  4  0
  2 21  4  0
  2 27  4  0
  3  9  4  0
  3 10  4  0
  4  8  4  0
  4 18  4  0
  4 25  1  0
  5  9  4  0
  5 12  4  0
  6 13  1  0
  6 27  1  0
  7 28  4  0
  8 11  4  0
  9 29  4  0
 10 12  4  0
 11 24  1  0
 11 26  4  0
 12 25  1  0
 13 28  1  0
 14 20  4  0
 14 23  4  0
 15 17  4  0
 15 21  4  0
 16 19  4  0
 16 23  4  0
 17 22  4  0
 18 26  4  0
 19 24  4  0
 20 24  4  0
 22 27  4  0
 28 29  4  0
M  END
$$$$

 Created by Python create_sdf_string function

 29 33  0  0  0  0  0  0  0  0999 V2000
   10.7215   -3.3326   17.6437 C   0  0  0  0  0  0  0  0  0  0  0  0
    9.9489   -3.4675   24.6487 N   0  0  0  0  0  0  0  0  0  0  0  0
   10.0172   -4.4740   17.4101 C   0  0  0  0  0  0  0  0  0  0  0  0
    6.9051   -7.9575   16.4222 C   0  0  0  0  0  0  0  0  0  0  0  0
    8.9969   -6.3552   17.9668 N   0  0  0  0  0  0  0  0  0  0  0  0
   10.6702   -3.9051   22.4070 C   0  0  0  0  0  0  0  0  0  0  0  0
   11.0625   -3.0028   18.8894 C   0  0  0  0  0  0  0  0  0  0  0  0
    5.6180   -7.9194   16.1754 O   0  0  0  0  0  0  0  0  0  0  0  0
    9.7259   -5.3080   18.4485 C   0  0  0  0  0  0  0  0  0  0  0  0
    9.4578   -5.0200   16.3036 N   0  0  0  0  0  0  0  0  0  0  0  0
    5.0287   -8.9365   16.8223 C   0  0  0  0  0  0  0  0  0  0  0  0
    8.7742   -6.1498   16.6764 C   0  0  0  0  0  0  0  0  0  0  0  0
   10.9418   -3.4032   21.2053 O   0  0  0  0  0  0  0  0  0  0  0  0
    1.4797   -8.6258   16.2950 C   0  0  0  0  0  0  0  0  0  0  0  0
    9.2861   -1.2743   25.3585 C   0  0  0  0  0  0  0  0  0  0  0  0
    1.8892  -10.3985   17.7511 N   0  0  0  0  0  0  0  0  0  0  0  0
    9.6210   -0.6952   24.0976 C   0  0  0  0  0  0  0  0  0  0  0  0
    7.0792   -9.0217   17.1429 C   0  0  0  0  0  0  0  0  0  0  0  0
    3.1713  -10.1816   17.6634 C   0  0  0  0  0  0  0  0  0  0  0  0
    2.7878   -8.3822   16.2137 C   0  0  0  0  0  0  0  0  0  0  0  0
    9.4601   -2.6590   25.6528 C   0  0  0  0  0  0  0  0  0  0  0  0
   10.1182   -1.5672   23.1165 C   0  0  0  0  0  0  0  0  0  0  0  0
    1.0552   -9.6360   17.0650 C   0  0  0  0  0  0  0  0  0  0  0  0
    3.6519   -9.1783   16.9039 C   0  0  0  0  0  0  0  0  0  0  0  0
    7.8675   -7.0096   15.9415 C   0  0  0  0  0  0  0  0  0  0  0  0
    5.9733   -9.6553   17.3832 N   0  0  0  0  0  0  0  0  0  0  0  0
   10.2411   -2.9363   23.4301 C   0  0  0  0  0  0  0  0  0  0  0  0
   10.7288   -3.8197   19.9525 C   0  0  0  0  0  0  0  0  0  0  0  0
   10.1189   -5.0054   19.6987 C   0  0  0  0  0  0  0  0  0  0  0  0
  1  3  4  0
  1  7  4  0
  2 21  4  0
  2 27  4  0
  3  9  4  0
  3 10  4  0
  4  8  4  0
  4 18  4  0
  4 25  1  0
  5  9  4  0
  5 12  4  0
  6 13  1  0
  6 27  1  0
  7 28  4  0
  8 11  4  0
  9 29  4  0
 10 12  4  0
 11 24  1  0
 11 26  4  0
 12 25  1  0
 13 28  1  0
 14 20  4  0
 14 23  4  0
 15 17  4  0
 15 21  4  0
 16 19  4  0
 16 23  4  0
 17 22  4  0
 18 26  4  0
 19 24  4  0
 20 24  4  0
 22 27  4  0
 28 29  4  0
M  END
$$$$

 Created by Python create_sdf_string function

 29 33  0  0  0  0  0  0  0  0999 V2000
   10.7215   -3.3326   17.6437 C   0  0  0  0  0  0  0  0  0  0  0  0
    9.9489   -3.4675   24.6487 N   0  0  0  0  0  0  0  0  0  0  0  0
   10.0172   -4.4740   17.4101 C   0  0  0  0  0  0  0  0  0  0  0  0
    6.9051   -7.9575   16.4222 C   0  0  0  0  0  0  0  0  0  0  0  0
    8.9969   -6.3552   17.9668 N   0  0  0  0  0  0  0  0  0  0  0  0
   10.6702   -3.9051   22.4070 C   0  0  0  0  0  0  0  0  0  0  0  0
   11.0625   -3.0028   18.8894 C   0  0  0  0  0  0  0  0  0  0  0  0
    5.6180   -7.9194   16.1754 O   0  0  0  0  0  0  0  0  0  0  0  0
    9.7259   -5.3080   18.4485 C   0  0  0  0  0  0  0  0  0  0  0  0
    9.4578   -5.0200   16.3036 N   0  0  0  0  0  0  0  0  0  0  0  0
    5.0287   -8.9365   16.8223 C   0  0  0  0  0  0  0  0  0  0  0  0
    8.7742   -6.1498   16.6764 C   0  0  0  0  0  0  0  0  0  0  0  0
   10.9418   -3.4032   21.2053 O   0  0  0  0  0  0  0  0  0  0  0  0
    1.4797   -8.6258   16.2950 C   0  0  0  0  0  0  0  0  0  0  0  0
    9.2861   -1.2743   25.3585 C   0  0  0  0  0  0  0  0  0  0  0  0
    1.8892  -10.3985   17.7511 N   0  0  0  0  0  0  0  0  0  0  0  0
    9.6210   -0.6952   24.0976 C   0  0  0  0  0  0  0  0  0  0  0  0
    7.0792   -9.0217   17.1429 C   0  0  0  0  0  0  0  0  0  0  0  0
    3.1713  -10.1816   17.6634 C   0  0  0  0  0  0  0  0  0  0  0  0
    2.7878   -8.3822   16.2137 C   0  0  0  0  0  0  0  0  0  0  0  0
    9.4601   -2.6590   25.6528 C   0  0  0  0  0  0  0  0  0  0  0  0
   10.1182   -1.5672   23.1165 C   0  0  0  0  0  0  0  0  0  0  0  0
    1.0552   -9.6360   17.0650 C   0  0  0  0  0  0  0  0  0  0  0  0
    3.6519   -9.1783   16.9039 C   0  0  0  0  0  0  0  0  0  0  0  0
    7.8675   -7.0096   15.9415 C   0  0  0  0  0  0  0  0  0  0  0  0
    5.9733   -9.6553   17.3832 N   0  0  0  0  0  0  0  0  0  0  0  0
   10.2411   -2.9363   23.4301 C   0  0  0  0  0  0  0  0  0  0  0  0
   10.7288   -3.8197   19.9525 C   0  0  0  0  0  0  0  0  0  0  0  0
   10.1189   -5.0054   19.6987 C   0  0  0  0  0  0  0  0  0  0  0  0
  1  3  4  0
  1  7  4  0
  2 21  4  0
  2 27  4  0
  3  9  4  0
  3 10  4  0
  4  8  4  0
  4 18  4  0
  4 25  1  0
  5  9  4  0
  5 12  4  0
  6 13  1  0
  6 27  1  0
  7 28  4  0
  8 11  4  0
  9 29  4  0
 10 12  4  0
 11 24  1  0
 11 26  4  0
 12 25  1  0
 13 28  1  0
 14 20  4  0
 14 23  4  0
 15 17  4  0
 15 21  4  0
 16 19  4  0
 16 23  4  0
 17 22  4  0
 18 26  4  0
 19 24  4  0
 20 24  4  0
 22 27  4  0
 28 29  4  0
M  END
$$$$

 Created by Python create_sdf_string function

 29 33  0  0  0  0  0  0  0  0999 V2000
   10.7215   -3.3326   17.6437 C   0  0  0  0  0  0  0  0  0  0  0  0
    9.9489   -3.4675   24.6487 N   0  0  0  0  0  0  0  0  0  0  0  0
   10.0172   -4.4740   17.4101 C   0  0  0  0  0  0  0  0  0  0  0  0
    6.9051   -7.9575   16.4222 C   0  0  0  0  0  0  0  0  0  0  0  0
    8.9969   -6.3552   17.9668 N   0  0  0  0  0  0  0  0  0  0  0  0
   10.6702   -3.9051   22.4070 C   0  0  0  0  0  0  0  0  0  0  0  0
   11.0625   -3.0028   18.8894 C   0  0  0  0  0  0  0  0  0  0  0  0
    5.6180   -7.9194   16.1754 O   0  0  0  0  0  0  0  0  0  0  0  0
    9.7259   -5.3080   18.4485 C   0  0  0  0  0  0  0  0  0  0  0  0
    9.4578   -5.0200   16.3036 N   0  0  0  0  0  0  0  0  0  0  0  0
    5.0287   -8.9365   16.8223 C   0  0  0  0  0  0  0  0  0  0  0  0
    8.7742   -6.1498   16.6764 C   0  0  0  0  0  0  0  0  0  0  0  0
   10.9418   -3.4032   21.2053 O   0  0  0  0  0  0  0  0  0  0  0  0
    1.4797   -8.6258   16.2950 C   0  0  0  0  0  0  0  0  0  0  0  0
    9.2861   -1.2743   25.3585 C   0  0  0  0  0  0  0  0  0  0  0  0
    1.8892  -10.3985   17.7511 N   0  0  0  0  0  0  0  0  0  0  0  0
    9.6210   -0.6952   24.0976 C   0  0  0  0  0  0  0  0  0  0  0  0
    7.0792   -9.0217   17.1429 C   0  0  0  0  0  0  0  0  0  0  0  0
    3.1713  -10.1816   17.6634 C   0  0  0  0  0  0  0  0  0  0  0  0
    2.7878   -8.3822   16.2137 C   0  0  0  0  0  0  0  0  0  0  0  0
    9.4601   -2.6590   25.6528 C   0  0  0  0  0  0  0  0  0  0  0  0
   10.1182   -1.5672   23.1165 C   0  0  0  0  0  0  0  0  0  0  0  0
    1.0552   -9.6360   17.0650 C   0  0  0  0  0  0  0  0  0  0  0  0
    3.6519   -9.1783   16.9039 C   0  0  0  0  0  0  0  0  0  0  0  0
    7.8675   -7.0096   15.9415 C   0  0  0  0  0  0  0  0  0  0  0  0
    5.9733   -9.6553   17.3832 N   0  0  0  0  0  0  0  0  0  0  0  0
   10.2411   -2.9363   23.4301 C   0  0  0  0  0  0  0  0  0  0  0  0
   10.7288   -3.8197   19.9525 C   0  0  0  0  0  0  0  0  0  0  0  0
   10.1189   -5.0054   19.6987 C   0  0  0  0  0  0  0  0  0  0  0  0
  1  3  4  0
  1  7  4  0
  2 21  4  0
  2 27  4  0
  3  9  4  0
  3 10  4  0
  4  8  4  0
  4 18  4  0
  4 25  1  0
  5  9  4  0
  5 12  4  0
  6 13  1  0
  6 27  1  0
  7 28  4  0
  8 11  4  0
  9 29  4  0
 10 12  4  0
 11 24  1  0
 11 26  4  0
 12 25  1  0
 13 28  1  0
 14 20  4  0
 14 23  4  0
 15 17  4  0
 15 21  4  0
 16 19  4  0
 16 23  4  0
 17 22  4  0
 18 26  4  0
 19 24  4  0
 20 24  4  0
 22 27  4  0
 28 29  4  0
M  END
$$$$

 Created by Python create_sdf_string function

 29 33  0  0  0  0  0  0  0  0999 V2000
   10.7215   -3.3326   17.6437 C   0  0  0  0  0  0  0  0  0  0  0  0
    9.9489   -3.4675   24.6487 N   0  0  0  0  0  0  0  0  0  0  0  0
   10.0172   -4.4740   17.4101 C   0  0  0  0  0  0  0  0  0  0  0  0
    6.9051   -7.9575   16.4222 C   0  0  0  0  0  0  0  0  0  0  0  0
    8.9969   -6.3552   17.9668 N   0  0  0  0  0  0  0  0  0  0  0  0
   10.6702   -3.9051   22.4070 C   0  0  0  0  0  0  0  0  0  0  0  0
   11.0625   -3.0028   18.8894 C   0  0  0  0  0  0  0  0  0  0  0  0
    5.6180   -7.9194   16.1754 O   0  0  0  0  0  0  0  0  0  0  0  0
    9.7259   -5.3080   18.4485 C   0  0  0  0  0  0  0  0  0  0  0  0
    9.4578   -5.0200   16.3036 N   0  0  0  0  0  0  0  0  0  0  0  0
    5.0287   -8.9365   16.8223 C   0  0  0  0  0  0  0  0  0  0  0  0
    8.7742   -6.1498   16.6764 C   0  0  0  0  0  0  0  0  0  0  0  0
   10.9418   -3.4032   21.2053 O   0  0  0  0  0  0  0  0  0  0  0  0
    1.4797   -8.6258   16.2950 C   0  0  0  0  0  0  0  0  0  0  0  0
    9.2861   -1.2743   25.3585 C   0  0  0  0  0  0  0  0  0  0  0  0
    1.8892  -10.3985   17.7511 N   0  0  0  0  0  0  0  0  0  0  0  0
    9.6210   -0.6952   24.0976 C   0  0  0  0  0  0  0  0  0  0  0  0
    7.0792   -9.0217   17.1429 C   0  0  0  0  0  0  0  0  0  0  0  0
    3.1713  -10.1816   17.6634 C   0  0  0  0  0  0  0  0  0  0  0  0
    2.7878   -8.3822   16.2137 C   0  0  0  0  0  0  0  0  0  0  0  0
    9.4601   -2.6590   25.6528 C   0  0  0  0  0  0  0  0  0  0  0  0
   10.1182   -1.5672   23.1165 C   0  0  0  0  0  0  0  0  0  0  0  0
    1.0552   -9.6360   17.0650 C   0  0  0  0  0  0  0  0  0  0  0  0
    3.6519   -9.1783   16.9039 C   0  0  0  0  0  0  0  0  0  0  0  0
    7.8675   -7.0096   15.9415 C   0  0  0  0  0  0  0  0  0  0  0  0
    5.9733   -9.6553   17.3832 N   0  0  0  0  0  0  0  0  0  0  0  0
   10.2411   -2.9363   23.4301 C   0  0  0  0  0  0  0  0  0  0  0  0
   10.7288   -3.8197   19.9525 C   0  0  0  0  0  0  0  0  0  0  0  0
   10.1189   -5.0054   19.6987 C   0  0  0  0  0  0  0  0  0  0  0  0
  1  3  4  0
  1  7  4  0
  2 21  4  0
  2 27  4  0
  3  9  4  0
  3 10  4  0
  4  8  4  0
  4 18  4  0
  4 25  1  0
  5  9  4  0
  5 12  4  0
  6 13  1  0
  6 27  1  0
  7 28  4  0
  8 11  4  0
  9 29  4  0
 10 12  4  0
 11 24  1  0
 11 26  4  0
 12 25  1  0
 13 28  1  0
 14 20  4  0
 14 23  4  0
 15 17  4  0
 15 21  4  0
 16 19  4  0
 16 23  4  0
 17 22  4  0
 18 26  4  0
 19 24  4  0
 20 24  4  0
 22 27  4  0
 28 29  4  0
M  END
$$$$

 Created by Python create_sdf_string function

 29 33  0  0  0  0  0  0  0  0999 V2000
   10.7215   -3.3326   17.6437 C   0  0  0  0  0  0  0  0  0  0  0  0
    9.9489   -3.4675   24.6487 N   0  0  0  0  0  0  0  0  0  0  0  0
   10.0172   -4.4740   17.4101 C   0  0  0  0  0  0  0  0  0  0  0  0
    6.9051   -7.9575   16.4222 C   0  0  0  0  0  0  0  0  0  0  0  0
    8.9969   -6.3552   17.9668 N   0  0  0  0  0  0  0  0  0  0  0  0
   10.6702   -3.9051   22.4070 C   0  0  0  0  0  0  0  0  0  0  0  0
   11.0625   -3.0028   18.8894 C   0  0  0  0  0  0  0  0  0  0  0  0
    5.6180   -7.9194   16.1754 O   0  0  0  0  0  0  0  0  0  0  0  0
    9.7259   -5.3080   18.4485 C   0  0  0  0  0  0  0  0  0  0  0  0
    9.4578   -5.0200   16.3036 N   0  0  0  0  0  0  0  0  0  0  0  0
    5.0287   -8.9365   16.8223 C   0  0  0  0  0  0  0  0  0  0  0  0
    8.7742   -6.1498   16.6764 C   0  0  0  0  0  0  0  0  0  0  0  0
   10.9418   -3.4032   21.2053 O   0  0  0  0  0  0  0  0  0  0  0  0
    1.4797   -8.6258   16.2950 C   0  0  0  0  0  0  0  0  0  0  0  0
    9.2861   -1.2743   25.3585 C   0  0  0  0  0  0  0  0  0  0  0  0
    1.8892  -10.3985   17.7511 N   0  0  0  0  0  0  0  0  0  0  0  0
    9.6210   -0.6952   24.0976 C   0  0  0  0  0  0  0  0  0  0  0  0
    7.0792   -9.0217   17.1429 C   0  0  0  0  0  0  0  0  0  0  0  0
    3.1713  -10.1816   17.6634 C   0  0  0  0  0  0  0  0  0  0  0  0
    2.7878   -8.3822   16.2137 C   0  0  0  0  0  0  0  0  0  0  0  0
    9.4601   -2.6590   25.6528 C   0  0  0  0  0  0  0  0  0  0  0  0
   10.1182   -1.5672   23.1165 C   0  0  0  0  0  0  0  0  0  0  0  0
    1.0552   -9.6360   17.0650 C   0  0  0  0  0  0  0  0  0  0  0  0
    3.6519   -9.1783   16.9039 C   0  0  0  0  0  0  0  0  0  0  0  0
    7.8675   -7.0096   15.9415 C   0  0  0  0  0  0  0  0  0  0  0  0
    5.9733   -9.6553   17.3832 N   0  0  0  0  0  0  0  0  0  0  0  0
   10.2411   -2.9363   23.4301 C   0  0  0  0  0  0  0  0  0  0  0  0
   10.7288   -3.8197   19.9525 C   0  0  0  0  0  0  0  0  0  0  0  0
   10.1189   -5.0054   19.6987 C   0  0  0  0  0  0  0  0  0  0  0  0
  1  3  4  0
  1  7  4  0
  2 21  4  0
  2 27  4  0
  3  9  4  0
  3 10  4  0
  4  8  4  0
  4 18  4  0
  4 25  1  0
  5  9  4  0
  5 12  4  0
  6 13  1  0
  6 27  1  0
  7 28  4  0
  8 11  4  0
  9 29  4  0
 10 12  4  0
 11 24  1  0
 11 26  4  0
 12 25  1  0
 13 28  1  0
 14 20  4  0
 14 23  4  0
 15 17  4  0
 15 21  4  0
 16 19  4  0
 16 23  4  0
 17 22  4  0
 18 26  4  0
 19 24  4  0
 20 24  4  0
 22 27  4  0
 28 29  4  0
M  END
$$$$

 Created by Python create_sdf_string function

 29 33  0  0  0  0  0  0  0  0999 V2000
   10.7215   -3.3326   17.6437 C   0  0  0  0  0  0  0  0  0  0  0  0
    9.9489   -3.4675   24.6487 N   0  0  0  0  0  0  0  0  0  0  0  0
   10.0172   -4.4740   17.4101 C   0  0  0  0  0  0  0  0  0  0  0  0
    6.9051   -7.9575   16.4222 C   0  0  0  0  0  0  0  0  0  0  0  0
    8.9969   -6.3552   17.9668 N   0  0  0  0  0  0  0  0  0  0  0  0
   10.6702   -3.9051   22.4070 C   0  0  0  0  0  0  0  0  0  0  0  0
   11.0625   -3.0028   18.8894 C   0  0  0  0  0  0  0  0  0  0  0  0
    5.6180   -7.9194   16.1754 O   0  0  0  0  0  0  0  0  0  0  0  0
    9.7259   -5.3080   18.4485 C   0  0  0  0  0  0  0  0  0  0  0  0
    9.4578   -5.0200   16.3036 N   0  0  0  0  0  0  0  0  0  0  0  0
    5.0287   -8.9365   16.8223 C   0  0  0  0  0  0  0  0  0  0  0  0
    8.7742   -6.1498   16.6764 C   0  0  0  0  0  0  0  0  0  0  0  0
   10.9418   -3.4032   21.2053 O   0  0  0  0  0  0  0  0  0  0  0  0
    1.4797   -8.6258   16.2950 C   0  0  0  0  0  0  0  0  0  0  0  0
    9.2861   -1.2743   25.3585 C   0  0  0  0  0  0  0  0  0  0  0  0
    1.8892  -10.3985   17.7511 N   0  0  0  0  0  0  0  0  0  0  0  0
    9.6210   -0.6952   24.0976 C   0  0  0  0  0  0  0  0  0  0  0  0
    7.0792   -9.0217   17.1429 C   0  0  0  0  0  0  0  0  0  0  0  0
    3.1713  -10.1816   17.6634 C   0  0  0  0  0  0  0  0  0  0  0  0
    2.7878   -8.3822   16.2137 C   0  0  0  0  0  0  0  0  0  0  0  0
    9.4601   -2.6590   25.6528 C   0  0  0  0  0  0  0  0  0  0  0  0
   10.1182   -1.5672   23.1165 C   0  0  0  0  0  0  0  0  0  0  0  0
    1.0552   -9.6360   17.0650 C   0  0  0  0  0  0  0  0  0  0  0  0
    3.6519   -9.1783   16.9039 C   0  0  0  0  0  0  0  0  0  0  0  0
    7.8675   -7.0096   15.9415 C   0  0  0  0  0  0  0  0  0  0  0  0
    5.9733   -9.6553   17.3832 N   0  0  0  0  0  0  0  0  0  0  0  0
   10.2411   -2.9363   23.4301 C   0  0  0  0  0  0  0  0  0  0  0  0
   10.7288   -3.8197   19.9525 C   0  0  0  0  0  0  0  0  0  0  0  0
   10.1189   -5.0054   19.6987 C   0  0  0  0  0  0  0  0  0  0  0  0
  1  3  4  0
  1  7  4  0
  2 21  4  0
  2 27  4  0
  3  9  4  0
  3 10  4  0
  4  8  4  0
  4 18  4  0
  4 25  1  0
  5  9  4  0
  5 12  4  0
  6 13  1  0
  6 27  1  0
  7 28  4  0
  8 11  4  0
  9 29  4  0
 10 12  4  0
 11 24  1  0
 11 26  4  0
 12 25  1  0
 13 28  1  0
 14 20  4  0
 14 23  4  0
 15 17  4  0
 15 21  4  0
 16 19  4  0
 16 23  4  0
 17 22  4  0
 18 26  4  0
 19 24  4  0
 20 24  4  0
 22 27  4  0
 28 29  4  0
M  END
$$$$

 Created by Python create_sdf_string function

 29 33  0  0  0  0  0  0  0  0999 V2000
   10.7215   -3.3326   17.6437 C   0  0  0  0  0  0  0  0  0  0  0  0
    9.9489   -3.4675   24.6487 N   0  0  0  0  0  0  0  0  0  0  0  0
   10.0172   -4.4740   17.4101 C   0  0  0  0  0  0  0  0  0  0  0  0
    6.9051   -7.9575   16.4222 C   0  0  0  0  0  0  0  0  0  0  0  0
    8.9969   -6.3552   17.9668 N   0  0  0  0  0  0  0  0  0  0  0  0
   10.6702   -3.9051   22.4070 C   0  0  0  0  0  0  0  0  0  0  0  0
   11.0625   -3.0028   18.8894 C   0  0  0  0  0  0  0  0  0  0  0  0
    5.6180   -7.9194   16.1754 O   0  0  0  0  0  0  0  0  0  0  0  0
    9.7259   -5.3080   18.4485 C   0  0  0  0  0  0  0  0  0  0  0  0
    9.4578   -5.0200   16.3036 N   0  0  0  0  0  0  0  0  0  0  0  0
    5.0287   -8.9365   16.8223 C   0  0  0  0  0  0  0  0  0  0  0  0
    8.7742   -6.1498   16.6764 C   0  0  0  0  0  0  0  0  0  0  0  0
   10.9418   -3.4032   21.2053 O   0  0  0  0  0  0  0  0  0  0  0  0
    1.4797   -8.6258   16.2950 C   0  0  0  0  0  0  0  0  0  0  0  0
    9.2861   -1.2743   25.3585 C   0  0  0  0  0  0  0  0  0  0  0  0
    1.8892  -10.3985   17.7511 N   0  0  0  0  0  0  0  0  0  0  0  0
    9.6210   -0.6952   24.0976 C   0  0  0  0  0  0  0  0  0  0  0  0
    7.0792   -9.0217   17.1429 C   0  0  0  0  0  0  0  0  0  0  0  0
    3.1713  -10.1816   17.6634 C   0  0  0  0  0  0  0  0  0  0  0  0
    2.7878   -8.3822   16.2137 C   0  0  0  0  0  0  0  0  0  0  0  0
    9.4601   -2.6590   25.6528 C   0  0  0  0  0  0  0  0  0  0  0  0
   10.1182   -1.5672   23.1165 C   0  0  0  0  0  0  0  0  0  0  0  0
    1.0552   -9.6360   17.0650 C   0  0  0  0  0  0  0  0  0  0  0  0
    3.6519   -9.1783   16.9039 C   0  0  0  0  0  0  0  0  0  0  0  0
    7.8675   -7.0096   15.9415 C   0  0  0  0  0  0  0  0  0  0  0  0
    5.9733   -9.6553   17.3832 N   0  0  0  0  0  0  0  0  0  0  0  0
   10.2411   -2.9363   23.4301 C   0  0  0  0  0  0  0  0  0  0  0  0
   10.7288   -3.8197   19.9525 C   0  0  0  0  0  0  0  0  0  0  0  0
   10.1189   -5.0054   19.6987 C   0  0  0  0  0  0  0  0  0  0  0  0
  1  3  4  0
  1  7  4  0
  2 21  4  0
  2 27  4  0
  3  9  4  0
  3 10  4  0
  4  8  4  0
  4 18  4  0
  4 25  1  0
  5  9  4  0
  5 12  4  0
  6 13  1  0
  6 27  1  0
  7 28  4  0
  8 11  4  0
  9 29  4  0
 10 12  4  0
 11 24  1  0
 11 26  4  0
 12 25  1  0
 13 28  1  0
 14 20  4  0
 14 23  4  0
 15 17  4  0
 15 21  4  0
 16 19  4  0
 16 23  4  0
 17 22  4  0
 18 26  4  0
 19 24  4  0
 20 24  4  0
 22 27  4  0
 28 29  4  0
M  END
$$$$

 Created by Python create_sdf_string function

 29 33  0  0  0  0  0  0  0  0999 V2000
   10.7215   -3.3326   17.6437 C   0  0  0  0  0  0  0  0  0  0  0  0
    9.9489   -3.4675   24.6487 N   0  0  0  0  0  0  0  0  0  0  0  0
   10.0172   -4.4740   17.4101 C   0  0  0  0  0  0  0  0  0  0  0  0
    6.9051   -7.9575   16.4222 C   0  0  0  0  0  0  0  0  0  0  0  0
    8.9969   -6.3552   17.9668 N   0  0  0  0  0  0  0  0  0  0  0  0
   10.6702   -3.9051   22.4070 C   0  0  0  0  0  0  0  0  0  0  0  0
   11.0625   -3.0028   18.8894 C   0  0  0  0  0  0  0  0  0  0  0  0
    5.6180   -7.9194   16.1754 O   0  0  0  0  0  0  0  0  0  0  0  0
    9.7259   -5.3080   18.4485 C   0  0  0  0  0  0  0  0  0  0  0  0
    9.4578   -5.0200   16.3036 N   0  0  0  0  0  0  0  0  0  0  0  0
    5.0287   -8.9365   16.8223 C   0  0  0  0  0  0  0  0  0  0  0  0
    8.7742   -6.1498   16.6764 C   0  0  0  0  0  0  0  0  0  0  0  0
   10.9418   -3.4032   21.2053 O   0  0  0  0  0  0  0  0  0  0  0  0
    1.4797   -8.6258   16.2950 C   0  0  0  0  0  0  0  0  0  0  0  0
    9.2861   -1.2743   25.3585 C   0  0  0  0  0  0  0  0  0  0  0  0
    1.8892  -10.3985   17.7511 N   0  0  0  0  0  0  0  0  0  0  0  0
    9.6210   -0.6952   24.0976 C   0  0  0  0  0  0  0  0  0  0  0  0
    7.0792   -9.0217   17.1429 C   0  0  0  0  0  0  0  0  0  0  0  0
    3.1713  -10.1816   17.6634 C   0  0  0  0  0  0  0  0  0  0  0  0
    2.7878   -8.3822   16.2137 C   0  0  0  0  0  0  0  0  0  0  0  0
    9.4601   -2.6590   25.6528 C   0  0  0  0  0  0  0  0  0  0  0  0
   10.1182   -1.5672   23.1165 C   0  0  0  0  0  0  0  0  0  0  0  0
    1.0552   -9.6360   17.0650 C   0  0  0  0  0  0  0  0  0  0  0  0
    3.6519   -9.1783   16.9039 C   0  0  0  0  0  0  0  0  0  0  0  0
    7.8675   -7.0096   15.9415 C   0  0  0  0  0  0  0  0  0  0  0  0
    5.9733   -9.6553   17.3832 N   0  0  0  0  0  0  0  0  0  0  0  0
   10.2411   -2.9363   23.4301 C   0  0  0  0  0  0  0  0  0  0  0  0
   10.7288   -3.8197   19.9525 C   0  0  0  0  0  0  0  0  0  0  0  0
   10.1189   -5.0054   19.6987 C   0  0  0  0  0  0  0  0  0  0  0  0
  1  3  4  0
  1  7  4  0
  2 21  4  0
  2 27  4  0
  3  9  4  0
  3 10  4  0
  4  8  4  0
  4 18  4  0
  4 25  1  0
  5  9  4  0
  5 12  4  0
  6 13  1  0
  6 27  1  0
  7 28  4  0
  8 11  4  0
  9 29  4  0
 10 12  4  0
 11 24  1  0
 11 26  4  0
 12 25  1  0
 13 28  1  0
 14 20  4  0
 14 23  4  0
 15 17  4  0
 15 21  4  0
 16 19  4  0
 16 23  4  0
 17 22  4  0
 18 26  4  0
 19 24  4  0
 20 24  4  0
 22 27  4  0
 28 29  4  0
M  END
$$$$

 Created by Python create_sdf_string function

 29 33  0  0  0  0  0  0  0  0999 V2000
   10.7215   -3.3326   17.6437 C   0  0  0  0  0  0  0  0  0  0  0  0
    9.9489   -3.4675   24.6487 N   0  0  0  0  0  0  0  0  0  0  0  0
   10.0172   -4.4740   17.4101 C   0  0  0  0  0  0  0  0  0  0  0  0
    6.9051   -7.9575   16.4222 C   0  0  0  0  0  0  0  0  0  0  0  0
    8.9969   -6.3552   17.9668 N   0  0  0  0  0  0  0  0  0  0  0  0
   10.6702   -3.9051   22.4070 C   0  0  0  0  0  0  0  0  0  0  0  0
   11.0625   -3.0028   18.8894 C   0  0  0  0  0  0  0  0  0  0  0  0
    5.6180   -7.9194   16.1754 O   0  0  0  0  0  0  0  0  0  0  0  0
    9.7259   -5.3080   18.4485 C   0  0  0  0  0  0  0  0  0  0  0  0
    9.4578   -5.0200   16.3036 N   0  0  0  0  0  0  0  0  0  0  0  0
    5.0287   -8.9365   16.8223 C   0  0  0  0  0  0  0  0  0  0  0  0
    8.7742   -6.1498   16.6764 C   0  0  0  0  0  0  0  0  0  0  0  0
   10.9418   -3.4032   21.2053 O   0  0  0  0  0  0  0  0  0  0  0  0
    1.4797   -8.6258   16.2950 C   0  0  0  0  0  0  0  0  0  0  0  0
    9.2861   -1.2743   25.3585 C   0  0  0  0  0  0  0  0  0  0  0  0
    1.8892  -10.3985   17.7511 N   0  0  0  0  0  0  0  0  0  0  0  0
    9.6210   -0.6952   24.0976 C   0  0  0  0  0  0  0  0  0  0  0  0
    7.0792   -9.0217   17.1429 C   0  0  0  0  0  0  0  0  0  0  0  0
    3.1713  -10.1816   17.6634 C   0  0  0  0  0  0  0  0  0  0  0  0
    2.7878   -8.3822   16.2137 C   0  0  0  0  0  0  0  0  0  0  0  0
    9.4601   -2.6590   25.6528 C   0  0  0  0  0  0  0  0  0  0  0  0
   10.1182   -1.5672   23.1165 C   0  0  0  0  0  0  0  0  0  0  0  0
    1.0552   -9.6360   17.0650 C   0  0  0  0  0  0  0  0  0  0  0  0
    3.6519   -9.1783   16.9039 C   0  0  0  0  0  0  0  0  0  0  0  0
    7.8675   -7.0096   15.9415 C   0  0  0  0  0  0  0  0  0  0  0  0
    5.9733   -9.6553   17.3832 N   0  0  0  0  0  0  0  0  0  0  0  0
   10.2411   -2.9363   23.4301 C   0  0  0  0  0  0  0  0  0  0  0  0
   10.7288   -3.8197   19.9525 C   0  0  0  0  0  0  0  0  0  0  0  0
   10.1189   -5.0054   19.6987 C   0  0  0  0  0  0  0  0  0  0  0  0
  1  3  4  0
  1  7  4  0
  2 21  4  0
  2 27  4  0
  3  9  4  0
  3 10  4  0
  4  8  4  0
  4 18  4  0
  4 25  1  0
  5  9  4  0
  5 12  4  0
  6 13  1  0
  6 27  1  0
  7 28  4  0
  8 11  4  0
  9 29  4  0
 10 12  4  0
 11 24  1  0
 11 26  4  0
 12 25  1  0
 13 28  1  0
 14 20  4  0
 14 23  4  0
 15 17  4  0
 15 21  4  0
 16 19  4  0
 16 23  4  0
 17 22  4  0
 18 26  4  0
 19 24  4  0
 20 24  4  0
 22 27  4  0
 28 29  4  0
M  END
$$$$

 Created by Python create_sdf_string function

 29 33  0  0  0  0  0  0  0  0999 V2000
   10.7215   -3.3326   17.6437 C   0  0  0  0  0  0  0  0  0  0  0  0
    9.9489   -3.4675   24.6487 N   0  0  0  0  0  0  0  0  0  0  0  0
   10.0172   -4.4740   17.4101 C   0  0  0  0  0  0  0  0  0  0  0  0
    6.9051   -7.9575   16.4222 C   0  0  0  0  0  0  0  0  0  0  0  0
    8.9969   -6.3552   17.9668 N   0  0  0  0  0  0  0  0  0  0  0  0
   10.6702   -3.9051   22.4070 C   0  0  0  0  0  0  0  0  0  0  0  0
   11.0625   -3.0028   18.8894 C   0  0  0  0  0  0  0  0  0  0  0  0
    5.6180   -7.9194   16.1754 O   0  0  0  0  0  0  0  0  0  0  0  0
    9.7259   -5.3080   18.4485 C   0  0  0  0  0  0  0  0  0  0  0  0
    9.4578   -5.0200   16.3036 N   0  0  0  0  0  0  0  0  0  0  0  0
    5.0287   -8.9365   16.8223 C   0  0  0  0  0  0  0  0  0  0  0  0
    8.7742   -6.1498   16.6764 C   0  0  0  0  0  0  0  0  0  0  0  0
   10.9418   -3.4032   21.2053 O   0  0  0  0  0  0  0  0  0  0  0  0
    1.4797   -8.6258   16.2950 C   0  0  0  0  0  0  0  0  0  0  0  0
    9.2861   -1.2743   25.3585 C   0  0  0  0  0  0  0  0  0  0  0  0
    1.8892  -10.3985   17.7511 N   0  0  0  0  0  0  0  0  0  0  0  0
    9.6210   -0.6952   24.0976 C   0  0  0  0  0  0  0  0  0  0  0  0
    7.0792   -9.0217   17.1429 C   0  0  0  0  0  0  0  0  0  0  0  0
    3.1713  -10.1816   17.6634 C   0  0  0  0  0  0  0  0  0  0  0  0
    2.7878   -8.3822   16.2137 C   0  0  0  0  0  0  0  0  0  0  0  0
    9.4601   -2.6590   25.6528 C   0  0  0  0  0  0  0  0  0  0  0  0
   10.1182   -1.5672   23.1165 C   0  0  0  0  0  0  0  0  0  0  0  0
    1.0552   -9.6360   17.0650 C   0  0  0  0  0  0  0  0  0  0  0  0
    3.6519   -9.1783   16.9039 C   0  0  0  0  0  0  0  0  0  0  0  0
    7.8675   -7.0096   15.9415 C   0  0  0  0  0  0  0  0  0  0  0  0
    5.9733   -9.6553   17.3832 N   0  0  0  0  0  0  0  0  0  0  0  0
   10.2411   -2.9363   23.4301 C   0  0  0  0  0  0  0  0  0  0  0  0
   10.7288   -3.8197   19.9525 C   0  0  0  0  0  0  0  0  0  0  0  0
   10.1189   -5.0054   19.6987 C   0  0  0  0  0  0  0  0  0  0  0  0
  1  3  4  0
  1  7  4  0
  2 21  4  0
  2 27  4  0
  3  9  4  0
  3 10  4  0
  4  8  4  0
  4 18  4  0
  4 25  1  0
  5  9  4  0
  5 12  4  0
  6 13  1  0
  6 27  1  0
  7 28  4  0
  8 11  4  0
  9 29  4  0
 10 12  4  0
 11 24  1  0
 11 26  4  0
 12 25  1  0
 13 28  1  0
 14 20  4  0
 14 23  4  0
 15 17  4  0
 15 21  4  0
 16 19  4  0
 16 23  4  0
 17 22  4  0
 18 26  4  0
 19 24  4  0
 20 24  4  0
 22 27  4  0
 28 29  4  0
M  END
$$$$

 Created by Python create_sdf_string function

 29 33  0  0  0  0  0  0  0  0999 V2000
   10.7215   -3.3326   17.6437 C   0  0  0  0  0  0  0  0  0  0  0  0
    9.9489   -3.4675   24.6487 N   0  0  0  0  0  0  0  0  0  0  0  0
   10.0172   -4.4740   17.4101 C   0  0  0  0  0  0  0  0  0  0  0  0
    6.9051   -7.9575   16.4222 C   0  0  0  0  0  0  0  0  0  0  0  0
    8.9969   -6.3552   17.9668 N   0  0  0  0  0  0  0  0  0  0  0  0
   10.6702   -3.9051   22.4070 C   0  0  0  0  0  0  0  0  0  0  0  0
   11.0625   -3.0028   18.8894 C   0  0  0  0  0  0  0  0  0  0  0  0
    5.6180   -7.9194   16.1754 O   0  0  0  0  0  0  0  0  0  0  0  0
    9.7259   -5.3080   18.4485 C   0  0  0  0  0  0  0  0  0  0  0  0
    9.4578   -5.0200   16.3036 N   0  0  0  0  0  0  0  0  0  0  0  0
    5.0287   -8.9365   16.8223 C   0  0  0  0  0  0  0  0  0  0  0  0
    8.7742   -6.1498   16.6764 C   0  0  0  0  0  0  0  0  0  0  0  0
   10.9418   -3.4032   21.2053 O   0  0  0  0  0  0  0  0  0  0  0  0
    1.4797   -8.6258   16.2950 C   0  0  0  0  0  0  0  0  0  0  0  0
    9.2861   -1.2743   25.3585 C   0  0  0  0  0  0  0  0  0  0  0  0
    1.8892  -10.3985   17.7511 N   0  0  0  0  0  0  0  0  0  0  0  0
    9.6210   -0.6952   24.0976 C   0  0  0  0  0  0  0  0  0  0  0  0
    7.0792   -9.0217   17.1429 C   0  0  0  0  0  0  0  0  0  0  0  0
    3.1713  -10.1816   17.6634 C   0  0  0  0  0  0  0  0  0  0  0  0
    2.7878   -8.3822   16.2137 C   0  0  0  0  0  0  0  0  0  0  0  0
    9.4601   -2.6590   25.6528 C   0  0  0  0  0  0  0  0  0  0  0  0
   10.1182   -1.5672   23.1165 C   0  0  0  0  0  0  0  0  0  0  0  0
    1.0552   -9.6360   17.0650 C   0  0  0  0  0  0  0  0  0  0  0  0
    3.6519   -9.1783   16.9039 C   0  0  0  0  0  0  0  0  0  0  0  0
    7.8675   -7.0096   15.9415 C   0  0  0  0  0  0  0  0  0  0  0  0
    5.9733   -9.6553   17.3832 N   0  0  0  0  0  0  0  0  0  0  0  0
   10.2411   -2.9363   23.4301 C   0  0  0  0  0  0  0  0  0  0  0  0
   10.7288   -3.8197   19.9525 C   0  0  0  0  0  0  0  0  0  0  0  0
   10.1189   -5.0054   19.6987 C   0  0  0  0  0  0  0  0  0  0  0  0
  1  3  4  0
  1  7  4  0
  2 21  4  0
  2 27  4  0
  3  9  4  0
  3 10  4  0
  4  8  4  0
  4 18  4  0
  4 25  1  0
  5  9  4  0
  5 12  4  0
  6 13  1  0
  6 27  1  0
  7 28  4  0
  8 11  4  0
  9 29  4  0
 10 12  4  0
 11 24  1  0
 11 26  4  0
 12 25  1  0
 13 28  1  0
 14 20  4  0
 14 23  4  0
 15 17  4  0
 15 21  4  0
 16 19  4  0
 16 23  4  0
 17 22  4  0
 18 26  4  0
 19 24  4  0
 20 24  4  0
 22 27  4  0
 28 29  4  0
M  END
$$$$

 Created by Python create_sdf_string function

 29 33  0  0  0  0  0  0  0  0999 V2000
   10.7215   -3.3326   17.6437 C   0  0  0  0  0  0  0  0  0  0  0  0
    9.9489   -3.4675   24.6487 N   0  0  0  0  0  0  0  0  0  0  0  0
   10.0172   -4.4740   17.4101 C   0  0  0  0  0  0  0  0  0  0  0  0
    6.9051   -7.9575   16.4222 C   0  0  0  0  0  0  0  0  0  0  0  0
    8.9969   -6.3552   17.9668 N   0  0  0  0  0  0  0  0  0  0  0  0
   10.6702   -3.9051   22.4070 C   0  0  0  0  0  0  0  0  0  0  0  0
   11.0625   -3.0028   18.8894 C   0  0  0  0  0  0  0  0  0  0  0  0
    5.6180   -7.9194   16.1754 O   0  0  0  0  0  0  0  0  0  0  0  0
    9.7259   -5.3080   18.4485 C   0  0  0  0  0  0  0  0  0  0  0  0
    9.4578   -5.0200   16.3036 N   0  0  0  0  0  0  0  0  0  0  0  0
    5.0287   -8.9365   16.8223 C   0  0  0  0  0  0  0  0  0  0  0  0
    8.7742   -6.1498   16.6764 C   0  0  0  0  0  0  0  0  0  0  0  0
   10.9418   -3.4032   21.2053 O   0  0  0  0  0  0  0  0  0  0  0  0
    1.4797   -8.6258   16.2950 C   0  0  0  0  0  0  0  0  0  0  0  0
    9.2861   -1.2743   25.3585 C   0  0  0  0  0  0  0  0  0  0  0  0
    1.8892  -10.3985   17.7511 N   0  0  0  0  0  0  0  0  0  0  0  0
    9.6210   -0.6952   24.0976 C   0  0  0  0  0  0  0  0  0  0  0  0
    7.0792   -9.0217   17.1429 C   0  0  0  0  0  0  0  0  0  0  0  0
    3.1713  -10.1816   17.6634 C   0  0  0  0  0  0  0  0  0  0  0  0
    2.7878   -8.3822   16.2137 C   0  0  0  0  0  0  0  0  0  0  0  0
    9.4601   -2.6590   25.6528 C   0  0  0  0  0  0  0  0  0  0  0  0
   10.1182   -1.5672   23.1165 C   0  0  0  0  0  0  0  0  0  0  0  0
    1.0552   -9.6360   17.0650 C   0  0  0  0  0  0  0  0  0  0  0  0
    3.6519   -9.1783   16.9039 C   0  0  0  0  0  0  0  0  0  0  0  0
    7.8675   -7.0096   15.9415 C   0  0  0  0  0  0  0  0  0  0  0  0
    5.9733   -9.6553   17.3832 N   0  0  0  0  0  0  0  0  0  0  0  0
   10.2411   -2.9363   23.4301 C   0  0  0  0  0  0  0  0  0  0  0  0
   10.7288   -3.8197   19.9525 C   0  0  0  0  0  0  0  0  0  0  0  0
   10.1189   -5.0054   19.6987 C   0  0  0  0  0  0  0  0  0  0  0  0
  1  3  4  0
  1  7  4  0
  2 21  4  0
  2 27  4  0
  3  9  4  0
  3 10  4  0
  4  8  4  0
  4 18  4  0
  4 25  1  0
  5  9  4  0
  5 12  4  0
  6 13  1  0
  6 27  1  0
  7 28  4  0
  8 11  4  0
  9 29  4  0
 10 12  4  0
 11 24  1  0
 11 26  4  0
 12 25  1  0
 13 28  1  0
 14 20  4  0
 14 23  4  0
 15 17  4  0
 15 21  4  0
 16 19  4  0
 16 23  4  0
 17 22  4  0
 18 26  4  0
 19 24  4  0
 20 24  4  0
 22 27  4  0
 28 29  4  0
M  END
$$$$

 Created by Python create_sdf_string function

 29 33  0  0  0  0  0  0  0  0999 V2000
   10.7215   -3.3326   17.6437 C   0  0  0  0  0  0  0  0  0  0  0  0
    9.9489   -3.4675   24.6487 N   0  0  0  0  0  0  0  0  0  0  0  0
   10.0172   -4.4740   17.4101 C   0  0  0  0  0  0  0  0  0  0  0  0
    6.9051   -7.9575   16.4222 C   0  0  0  0  0  0  0  0  0  0  0  0
    8.9969   -6.3552   17.9668 N   0  0  0  0  0  0  0  0  0  0  0  0
   10.6702   -3.9051   22.4070 C   0  0  0  0  0  0  0  0  0  0  0  0
   11.0625   -3.0028   18.8894 C   0  0  0  0  0  0  0  0  0  0  0  0
    5.6180   -7.9194   16.1754 O   0  0  0  0  0  0  0  0  0  0  0  0
    9.7259   -5.3080   18.4485 C   0  0  0  0  0  0  0  0  0  0  0  0
    9.4578   -5.0200   16.3036 N   0  0  0  0  0  0  0  0  0  0  0  0
    5.0287   -8.9365   16.8223 C   0  0  0  0  0  0  0  0  0  0  0  0
    8.7742   -6.1498   16.6764 C   0  0  0  0  0  0  0  0  0  0  0  0
   10.9418   -3.4032   21.2053 O   0  0  0  0  0  0  0  0  0  0  0  0
    1.4797   -8.6258   16.2950 C   0  0  0  0  0  0  0  0  0  0  0  0
    9.2861   -1.2743   25.3585 C   0  0  0  0  0  0  0  0  0  0  0  0
    1.8892  -10.3985   17.7511 N   0  0  0  0  0  0  0  0  0  0  0  0
    9.6210   -0.6952   24.0976 C   0  0  0  0  0  0  0  0  0  0  0  0
    7.0792   -9.0217   17.1429 C   0  0  0  0  0  0  0  0  0  0  0  0
    3.1713  -10.1816   17.6634 C   0  0  0  0  0  0  0  0  0  0  0  0
    2.7878   -8.3822   16.2137 C   0  0  0  0  0  0  0  0  0  0  0  0
    9.4601   -2.6590   25.6528 C   0  0  0  0  0  0  0  0  0  0  0  0
   10.1182   -1.5672   23.1165 C   0  0  0  0  0  0  0  0  0  0  0  0
    1.0552   -9.6360   17.0650 C   0  0  0  0  0  0  0  0  0  0  0  0
    3.6519   -9.1783   16.9039 C   0  0  0  0  0  0  0  0  0  0  0  0
    7.8675   -7.0096   15.9415 C   0  0  0  0  0  0  0  0  0  0  0  0
    5.9733   -9.6553   17.3832 N   0  0  0  0  0  0  0  0  0  0  0  0
   10.2411   -2.9363   23.4301 C   0  0  0  0  0  0  0  0  0  0  0  0
   10.7288   -3.8197   19.9525 C   0  0  0  0  0  0  0  0  0  0  0  0
   10.1189   -5.0054   19.6987 C   0  0  0  0  0  0  0  0  0  0  0  0
  1  3  4  0
  1  7  4  0
  2 21  4  0
  2 27  4  0
  3  9  4  0
  3 10  4  0
  4  8  4  0
  4 18  4  0
  4 25  1  0
  5  9  4  0
  5 12  4  0
  6 13  1  0
  6 27  1  0
  7 28  4  0
  8 11  4  0
  9 29  4  0
 10 12  4  0
 11 24  1  0
 11 26  4  0
 12 25  1  0
 13 28  1  0
 14 20  4  0
 14 23  4  0
 15 17  4  0
 15 21  4  0
 16 19  4  0
 16 23  4  0
 17 22  4  0
 18 26  4  0
 19 24  4  0
 20 24  4  0
 22 27  4  0
 28 29  4  0
M  END
$$$$

 Created by Python create_sdf_string function

 29 33  0  0  0  0  0  0  0  0999 V2000
   10.7215   -3.3326   17.6437 C   0  0  0  0  0  0  0  0  0  0  0  0
    9.9489   -3.4675   24.6487 N   0  0  0  0  0  0  0  0  0  0  0  0
   10.0172   -4.4740   17.4101 C   0  0  0  0  0  0  0  0  0  0  0  0
    6.9051   -7.9575   16.4222 C   0  0  0  0  0  0  0  0  0  0  0  0
    8.9969   -6.3552   17.9668 N   0  0  0  0  0  0  0  0  0  0  0  0
   10.6702   -3.9051   22.4070 C   0  0  0  0  0  0  0  0  0  0  0  0
   11.0625   -3.0028   18.8894 C   0  0  0  0  0  0  0  0  0  0  0  0
    5.6180   -7.9194   16.1754 O   0  0  0  0  0  0  0  0  0  0  0  0
    9.7259   -5.3080   18.4485 C   0  0  0  0  0  0  0  0  0  0  0  0
    9.4578   -5.0200   16.3036 N   0  0  0  0  0  0  0  0  0  0  0  0
    5.0287   -8.9365   16.8223 C   0  0  0  0  0  0  0  0  0  0  0  0
    8.7742   -6.1498   16.6764 C   0  0  0  0  0  0  0  0  0  0  0  0
   10.9418   -3.4032   21.2053 O   0  0  0  0  0  0  0  0  0  0  0  0
    1.4797   -8.6258   16.2950 C   0  0  0  0  0  0  0  0  0  0  0  0
    9.2861   -1.2743   25.3585 C   0  0  0  0  0  0  0  0  0  0  0  0
    1.8892  -10.3985   17.7511 N   0  0  0  0  0  0  0  0  0  0  0  0
    9.6210   -0.6952   24.0976 C   0  0  0  0  0  0  0  0  0  0  0  0
    7.0792   -9.0217   17.1429 C   0  0  0  0  0  0  0  0  0  0  0  0
    3.1713  -10.1816   17.6634 C   0  0  0  0  0  0  0  0  0  0  0  0
    2.7878   -8.3822   16.2137 C   0  0  0  0  0  0  0  0  0  0  0  0
    9.4601   -2.6590   25.6528 C   0  0  0  0  0  0  0  0  0  0  0  0
   10.1182   -1.5672   23.1165 C   0  0  0  0  0  0  0  0  0  0  0  0
    1.0552   -9.6360   17.0650 C   0  0  0  0  0  0  0  0  0  0  0  0
    3.6519   -9.1783   16.9039 C   0  0  0  0  0  0  0  0  0  0  0  0
    7.8675   -7.0096   15.9415 C   0  0  0  0  0  0  0  0  0  0  0  0
    5.9733   -9.6553   17.3832 N   0  0  0  0  0  0  0  0  0  0  0  0
   10.2411   -2.9363   23.4301 C   0  0  0  0  0  0  0  0  0  0  0  0
   10.7288   -3.8197   19.9525 C   0  0  0  0  0  0  0  0  0  0  0  0
   10.1189   -5.0054   19.6987 C   0  0  0  0  0  0  0  0  0  0  0  0
  1  3  4  0
  1  7  4  0
  2 21  4  0
  2 27  4  0
  3  9  4  0
  3 10  4  0
  4  8  4  0
  4 18  4  0
  4 25  1  0
  5  9  4  0
  5 12  4  0
  6 13  1  0
  6 27  1  0
  7 28  4  0
  8 11  4  0
  9 29  4  0
 10 12  4  0
 11 24  1  0
 11 26  4  0
 12 25  1  0
 13 28  1  0
 14 20  4  0
 14 23  4  0
 15 17  4  0
 15 21  4  0
 16 19  4  0
 16 23  4  0
 17 22  4  0
 18 26  4  0
 19 24  4  0
 20 24  4  0
 22 27  4  0
 28 29  4  0
M  END
$$$$

 Created by Python create_sdf_string function

 29 33  0  0  0  0  0  0  0  0999 V2000
   10.7215   -3.3326   17.6437 C   0  0  0  0  0  0  0  0  0  0  0  0
    9.9489   -3.4675   24.6487 N   0  0  0  0  0  0  0  0  0  0  0  0
   10.0172   -4.4740   17.4101 C   0  0  0  0  0  0  0  0  0  0  0  0
    6.9051   -7.9575   16.4222 C   0  0  0  0  0  0  0  0  0  0  0  0
    8.9969   -6.3552   17.9668 N   0  0  0  0  0  0  0  0  0  0  0  0
   10.6702   -3.9051   22.4070 C   0  0  0  0  0  0  0  0  0  0  0  0
   11.0625   -3.0028   18.8894 C   0  0  0  0  0  0  0  0  0  0  0  0
    5.6180   -7.9194   16.1754 O   0  0  0  0  0  0  0  0  0  0  0  0
    9.7259   -5.3080   18.4485 C   0  0  0  0  0  0  0  0  0  0  0  0
    9.4578   -5.0200   16.3036 N   0  0  0  0  0  0  0  0  0  0  0  0
    5.0287   -8.9365   16.8223 C   0  0  0  0  0  0  0  0  0  0  0  0
    8.7742   -6.1498   16.6764 C   0  0  0  0  0  0  0  0  0  0  0  0
   10.9418   -3.4032   21.2053 O   0  0  0  0  0  0  0  0  0  0  0  0
    1.4797   -8.6258   16.2950 C   0  0  0  0  0  0  0  0  0  0  0  0
    9.2861   -1.2743   25.3585 C   0  0  0  0  0  0  0  0  0  0  0  0
    1.8892  -10.3985   17.7511 N   0  0  0  0  0  0  0  0  0  0  0  0
    9.6210   -0.6952   24.0976 C   0  0  0  0  0  0  0  0  0  0  0  0
    7.0792   -9.0217   17.1429 C   0  0  0  0  0  0  0  0  0  0  0  0
    3.1713  -10.1816   17.6634 C   0  0  0  0  0  0  0  0  0  0  0  0
    2.7878   -8.3822   16.2137 C   0  0  0  0  0  0  0  0  0  0  0  0
    9.4601   -2.6590   25.6528 C   0  0  0  0  0  0  0  0  0  0  0  0
   10.1182   -1.5672   23.1165 C   0  0  0  0  0  0  0  0  0  0  0  0
    1.0552   -9.6360   17.0650 C   0  0  0  0  0  0  0  0  0  0  0  0
    3.6519   -9.1783   16.9039 C   0  0  0  0  0  0  0  0  0  0  0  0
    7.8675   -7.0096   15.9415 C   0  0  0  0  0  0  0  0  0  0  0  0
    5.9733   -9.6553   17.3832 N   0  0  0  0  0  0  0  0  0  0  0  0
   10.2411   -2.9363   23.4301 C   0  0  0  0  0  0  0  0  0  0  0  0
   10.7288   -3.8197   19.9525 C   0  0  0  0  0  0  0  0  0  0  0  0
   10.1189   -5.0054   19.6987 C   0  0  0  0  0  0  0  0  0  0  0  0
  1  3  4  0
  1  7  4  0
  2 21  4  0
  2 27  4  0
  3  9  4  0
  3 10  4  0
  4  8  4  0
  4 18  4  0
  4 25  1  0
  5  9  4  0
  5 12  4  0
  6 13  1  0
  6 27  1  0
  7 28  4  0
  8 11  4  0
  9 29  4  0
 10 12  4  0
 11 24  1  0
 11 26  4  0
 12 25  1  0
 13 28  1  0
 14 20  4  0
 14 23  4  0
 15 17  4  0
 15 21  4  0
 16 19  4  0
 16 23  4  0
 17 22  4  0
 18 26  4  0
 19 24  4  0
 20 24  4  0
 22 27  4  0
 28 29  4  0
M  END
$$$$

 Created by Python create_sdf_string function

 29 33  0  0  0  0  0  0  0  0999 V2000
   10.7215   -3.3326   17.6437 C   0  0  0  0  0  0  0  0  0  0  0  0
    9.9489   -3.4675   24.6487 N   0  0  0  0  0  0  0  0  0  0  0  0
   10.0172   -4.4740   17.4101 C   0  0  0  0  0  0  0  0  0  0  0  0
    6.9051   -7.9575   16.4222 C   0  0  0  0  0  0  0  0  0  0  0  0
    8.9969   -6.3552   17.9668 N   0  0  0  0  0  0  0  0  0  0  0  0
   10.6702   -3.9051   22.4070 C   0  0  0  0  0  0  0  0  0  0  0  0
   11.0625   -3.0028   18.8894 C   0  0  0  0  0  0  0  0  0  0  0  0
    5.6180   -7.9194   16.1754 O   0  0  0  0  0  0  0  0  0  0  0  0
    9.7259   -5.3080   18.4485 C   0  0  0  0  0  0  0  0  0  0  0  0
    9.4578   -5.0200   16.3036 N   0  0  0  0  0  0  0  0  0  0  0  0
    5.0287   -8.9365   16.8223 C   0  0  0  0  0  0  0  0  0  0  0  0
    8.7742   -6.1498   16.6764 C   0  0  0  0  0  0  0  0  0  0  0  0
   10.9418   -3.4032   21.2053 O   0  0  0  0  0  0  0  0  0  0  0  0
    1.4797   -8.6258   16.2950 C   0  0  0  0  0  0  0  0  0  0  0  0
    9.2861   -1.2743   25.3585 C   0  0  0  0  0  0  0  0  0  0  0  0
    1.8892  -10.3985   17.7511 N   0  0  0  0  0  0  0  0  0  0  0  0
    9.6210   -0.6952   24.0976 C   0  0  0  0  0  0  0  0  0  0  0  0
    7.0792   -9.0217   17.1429 C   0  0  0  0  0  0  0  0  0  0  0  0
    3.1713  -10.1816   17.6634 C   0  0  0  0  0  0  0  0  0  0  0  0
    2.7878   -8.3822   16.2137 C   0  0  0  0  0  0  0  0  0  0  0  0
    9.4601   -2.6590   25.6528 C   0  0  0  0  0  0  0  0  0  0  0  0
   10.1182   -1.5672   23.1165 C   0  0  0  0  0  0  0  0  0  0  0  0
    1.0552   -9.6360   17.0650 C   0  0  0  0  0  0  0  0  0  0  0  0
    3.6519   -9.1783   16.9039 C   0  0  0  0  0  0  0  0  0  0  0  0
    7.8675   -7.0096   15.9415 C   0  0  0  0  0  0  0  0  0  0  0  0
    5.9733   -9.6553   17.3832 N   0  0  0  0  0  0  0  0  0  0  0  0
   10.2411   -2.9363   23.4301 C   0  0  0  0  0  0  0  0  0  0  0  0
   10.7288   -3.8197   19.9525 C   0  0  0  0  0  0  0  0  0  0  0  0
   10.1189   -5.0054   19.6987 C   0  0  0  0  0  0  0  0  0  0  0  0
  1  3  4  0
  1  7  4  0
  2 21  4  0
  2 27  4  0
  3  9  4  0
  3 10  4  0
  4  8  4  0
  4 18  4  0
  4 25  1  0
  5  9  4  0
  5 12  4  0
  6 13  1  0
  6 27  1  0
  7 28  4  0
  8 11  4  0
  9 29  4  0
 10 12  4  0
 11 24  1  0
 11 26  4  0
 12 25  1  0
 13 28  1  0
 14 20  4  0
 14 23  4  0
 15 17  4  0
 15 21  4  0
 16 19  4  0
 16 23  4  0
 17 22  4  0
 18 26  4  0
 19 24  4  0
 20 24  4  0
 22 27  4  0
 28 29  4  0
M  END
$$$$

 Created by Python create_sdf_string function

 29 33  0  0  0  0  0  0  0  0999 V2000
   10.7215   -3.3326   17.6437 C   0  0  0  0  0  0  0  0  0  0  0  0
    9.9489   -3.4675   24.6487 N   0  0  0  0  0  0  0  0  0  0  0  0
   10.0172   -4.4740   17.4101 C   0  0  0  0  0  0  0  0  0  0  0  0
    6.9051   -7.9575   16.4222 C   0  0  0  0  0  0  0  0  0  0  0  0
    8.9969   -6.3552   17.9668 N   0  0  0  0  0  0  0  0  0  0  0  0
   10.6702   -3.9051   22.4070 C   0  0  0  0  0  0  0  0  0  0  0  0
   11.0625   -3.0028   18.8894 C   0  0  0  0  0  0  0  0  0  0  0  0
    5.6180   -7.9194   16.1754 O   0  0  0  0  0  0  0  0  0  0  0  0
    9.7259   -5.3080   18.4485 C   0  0  0  0  0  0  0  0  0  0  0  0
    9.4578   -5.0200   16.3036 N   0  0  0  0  0  0  0  0  0  0  0  0
    5.0287   -8.9365   16.8223 C   0  0  0  0  0  0  0  0  0  0  0  0
    8.7742   -6.1498   16.6764 C   0  0  0  0  0  0  0  0  0  0  0  0
   10.9418   -3.4032   21.2053 O   0  0  0  0  0  0  0  0  0  0  0  0
    1.4797   -8.6258   16.2950 C   0  0  0  0  0  0  0  0  0  0  0  0
    9.2861   -1.2743   25.3585 C   0  0  0  0  0  0  0  0  0  0  0  0
    1.8892  -10.3985   17.7511 N   0  0  0  0  0  0  0  0  0  0  0  0
    9.6210   -0.6952   24.0976 C   0  0  0  0  0  0  0  0  0  0  0  0
    7.0792   -9.0217   17.1429 C   0  0  0  0  0  0  0  0  0  0  0  0
    3.1713  -10.1816   17.6634 C   0  0  0  0  0  0  0  0  0  0  0  0
    2.7878   -8.3822   16.2137 C   0  0  0  0  0  0  0  0  0  0  0  0
    9.4601   -2.6590   25.6528 C   0  0  0  0  0  0  0  0  0  0  0  0
   10.1182   -1.5672   23.1165 C   0  0  0  0  0  0  0  0  0  0  0  0
    1.0552   -9.6360   17.0650 C   0  0  0  0  0  0  0  0  0  0  0  0
    3.6519   -9.1783   16.9039 C   0  0  0  0  0  0  0  0  0  0  0  0
    7.8675   -7.0096   15.9415 C   0  0  0  0  0  0  0  0  0  0  0  0
    5.9733   -9.6553   17.3832 N   0  0  0  0  0  0  0  0  0  0  0  0
   10.2411   -2.9363   23.4301 C   0  0  0  0  0  0  0  0  0  0  0  0
   10.7288   -3.8197   19.9525 C   0  0  0  0  0  0  0  0  0  0  0  0
   10.1189   -5.0054   19.6987 C   0  0  0  0  0  0  0  0  0  0  0  0
  1  3  4  0
  1  7  4  0
  2 21  4  0
  2 27  4  0
  3  9  4  0
  3 10  4  0
  4  8  4  0
  4 18  4  0
  4 25  1  0
  5  9  4  0
  5 12  4  0
  6 13  1  0
  6 27  1  0
  7 28  4  0
  8 11  4  0
  9 29  4  0
 10 12  4  0
 11 24  1  0
 11 26  4  0
 12 25  1  0
 13 28  1  0
 14 20  4  0
 14 23  4  0
 15 17  4  0
 15 21  4  0
 16 19  4  0
 16 23  4  0
 17 22  4  0
 18 26  4  0
 19 24  4  0
 20 24  4  0
 22 27  4  0
 28 29  4  0
M  END
$$$$

 Created by Python create_sdf_string function

 29 33  0  0  0  0  0  0  0  0999 V2000
   10.7215   -3.3326   17.6437 C   0  0  0  0  0  0  0  0  0  0  0  0
    9.9489   -3.4675   24.6487 N   0  0  0  0  0  0  0  0  0  0  0  0
   10.0172   -4.4740   17.4101 C   0  0  0  0  0  0  0  0  0  0  0  0
    6.9051   -7.9575   16.4222 C   0  0  0  0  0  0  0  0  0  0  0  0
    8.9969   -6.3552   17.9668 N   0  0  0  0  0  0  0  0  0  0  0  0
   10.6702   -3.9051   22.4070 C   0  0  0  0  0  0  0  0  0  0  0  0
   11.0625   -3.0028   18.8894 C   0  0  0  0  0  0  0  0  0  0  0  0
    5.6180   -7.9194   16.1754 O   0  0  0  0  0  0  0  0  0  0  0  0
    9.7259   -5.3080   18.4485 C   0  0  0  0  0  0  0  0  0  0  0  0
    9.4578   -5.0200   16.3036 N   0  0  0  0  0  0  0  0  0  0  0  0
    5.0287   -8.9365   16.8223 C   0  0  0  0  0  0  0  0  0  0  0  0
    8.7742   -6.1498   16.6764 C   0  0  0  0  0  0  0  0  0  0  0  0
   10.9418   -3.4032   21.2053 O   0  0  0  0  0  0  0  0  0  0  0  0
    1.4797   -8.6258   16.2950 C   0  0  0  0  0  0  0  0  0  0  0  0
    9.2861   -1.2743   25.3585 C   0  0  0  0  0  0  0  0  0  0  0  0
    1.8892  -10.3985   17.7511 N   0  0  0  0  0  0  0  0  0  0  0  0
    9.6210   -0.6952   24.0976 C   0  0  0  0  0  0  0  0  0  0  0  0
    7.0792   -9.0217   17.1429 C   0  0  0  0  0  0  0  0  0  0  0  0
    3.1713  -10.1816   17.6634 C   0  0  0  0  0  0  0  0  0  0  0  0
    2.7878   -8.3822   16.2137 C   0  0  0  0  0  0  0  0  0  0  0  0
    9.4601   -2.6590   25.6528 C   0  0  0  0  0  0  0  0  0  0  0  0
   10.1182   -1.5672   23.1165 C   0  0  0  0  0  0  0  0  0  0  0  0
    1.0552   -9.6360   17.0650 C   0  0  0  0  0  0  0  0  0  0  0  0
    3.6519   -9.1783   16.9039 C   0  0  0  0  0  0  0  0  0  0  0  0
    7.8675   -7.0096   15.9415 C   0  0  0  0  0  0  0  0  0  0  0  0
    5.9733   -9.6553   17.3832 N   0  0  0  0  0  0  0  0  0  0  0  0
   10.2411   -2.9363   23.4301 C   0  0  0  0  0  0  0  0  0  0  0  0
   10.7288   -3.8197   19.9525 C   0  0  0  0  0  0  0  0  0  0  0  0
   10.1189   -5.0054   19.6987 C   0  0  0  0  0  0  0  0  0  0  0  0
  1  3  4  0
  1  7  4  0
  2 21  4  0
  2 27  4  0
  3  9  4  0
  3 10  4  0
  4  8  4  0
  4 18  4  0
  4 25  1  0
  5  9  4  0
  5 12  4  0
  6 13  1  0
  6 27  1  0
  7 28  4  0
  8 11  4  0
  9 29  4  0
 10 12  4  0
 11 24  1  0
 11 26  4  0
 12 25  1  0
 13 28  1  0
 14 20  4  0
 14 23  4  0
 15 17  4  0
 15 21  4  0
 16 19  4  0
 16 23  4  0
 17 22  4  0
 18 26  4  0
 19 24  4  0
 20 24  4  0
 22 27  4  0
 28 29  4  0
M  END
$$$$

 Created by Python create_sdf_string function

 29 33  0  0  0  0  0  0  0  0999 V2000
   10.7215   -3.3326   17.6437 C   0  0  0  0  0  0  0  0  0  0  0  0
    9.9489   -3.4675   24.6487 N   0  0  0  0  0  0  0  0  0  0  0  0
   10.0172   -4.4740   17.4101 C   0  0  0  0  0  0  0  0  0  0  0  0
    6.9051   -7.9575   16.4222 C   0  0  0  0  0  0  0  0  0  0  0  0
    8.9969   -6.3552   17.9668 N   0  0  0  0  0  0  0  0  0  0  0  0
   10.6702   -3.9051   22.4070 C   0  0  0  0  0  0  0  0  0  0  0  0
   11.0625   -3.0028   18.8894 C   0  0  0  0  0  0  0  0  0  0  0  0
    5.6180   -7.9194   16.1754 O   0  0  0  0  0  0  0  0  0  0  0  0
    9.7259   -5.3080   18.4485 C   0  0  0  0  0  0  0  0  0  0  0  0
    9.4578   -5.0200   16.3036 N   0  0  0  0  0  0  0  0  0  0  0  0
    5.0287   -8.9365   16.8223 C   0  0  0  0  0  0  0  0  0  0  0  0
    8.7742   -6.1498   16.6764 C   0  0  0  0  0  0  0  0  0  0  0  0
   10.9418   -3.4032   21.2053 O   0  0  0  0  0  0  0  0  0  0  0  0
    1.4797   -8.6258   16.2950 C   0  0  0  0  0  0  0  0  0  0  0  0
    9.2861   -1.2743   25.3585 C   0  0  0  0  0  0  0  0  0  0  0  0
    1.8892  -10.3985   17.7511 N   0  0  0  0  0  0  0  0  0  0  0  0
    9.6210   -0.6952   24.0976 C   0  0  0  0  0  0  0  0  0  0  0  0
    7.0792   -9.0217   17.1429 C   0  0  0  0  0  0  0  0  0  0  0  0
    3.1713  -10.1816   17.6634 C   0  0  0  0  0  0  0  0  0  0  0  0
    2.7878   -8.3822   16.2137 C   0  0  0  0  0  0  0  0  0  0  0  0
    9.4601   -2.6590   25.6528 C   0  0  0  0  0  0  0  0  0  0  0  0
   10.1182   -1.5672   23.1165 C   0  0  0  0  0  0  0  0  0  0  0  0
    1.0552   -9.6360   17.0650 C   0  0  0  0  0  0  0  0  0  0  0  0
    3.6519   -9.1783   16.9039 C   0  0  0  0  0  0  0  0  0  0  0  0
    7.8675   -7.0096   15.9415 C   0  0  0  0  0  0  0  0  0  0  0  0
    5.9733   -9.6553   17.3832 N   0  0  0  0  0  0  0  0  0  0  0  0
   10.2411   -2.9363   23.4301 C   0  0  0  0  0  0  0  0  0  0  0  0
   10.7288   -3.8197   19.9525 C   0  0  0  0  0  0  0  0  0  0  0  0
   10.1189   -5.0054   19.6987 C   0  0  0  0  0  0  0  0  0  0  0  0
  1  3  4  0
  1  7  4  0
  2 21  4  0
  2 27  4  0
  3  9  4  0
  3 10  4  0
  4  8  4  0
  4 18  4  0
  4 25  1  0
  5  9  4  0
  5 12  4  0
  6 13  1  0
  6 27  1  0
  7 28  4  0
  8 11  4  0
  9 29  4  0
 10 12  4  0
 11 24  1  0
 11 26  4  0
 12 25  1  0
 13 28  1  0
 14 20  4  0
 14 23  4  0
 15 17  4  0
 15 21  4  0
 16 19  4  0
 16 23  4  0
 17 22  4  0
 18 26  4  0
 19 24  4  0
 20 24  4  0
 22 27  4  0
 28 29  4  0
M  END
$$$$

 Created by Python create_sdf_string function

 29 33  0  0  0  0  0  0  0  0999 V2000
   10.7215   -3.3326   17.6437 C   0  0  0  0  0  0  0  0  0  0  0  0
    9.9489   -3.4675   24.6487 N   0  0  0  0  0  0  0  0  0  0  0  0
   10.0172   -4.4740   17.4101 C   0  0  0  0  0  0  0  0  0  0  0  0
    6.9051   -7.9575   16.4222 C   0  0  0  0  0  0  0  0  0  0  0  0
    8.9969   -6.3552   17.9668 N   0  0  0  0  0  0  0  0  0  0  0  0
   10.6702   -3.9051   22.4070 C   0  0  0  0  0  0  0  0  0  0  0  0
   11.0625   -3.0028   18.8894 C   0  0  0  0  0  0  0  0  0  0  0  0
    5.6180   -7.9194   16.1754 O   0  0  0  0  0  0  0  0  0  0  0  0
    9.7259   -5.3080   18.4485 C   0  0  0  0  0  0  0  0  0  0  0  0
    9.4578   -5.0200   16.3036 N   0  0  0  0  0  0  0  0  0  0  0  0
    5.0287   -8.9365   16.8223 C   0  0  0  0  0  0  0  0  0  0  0  0
    8.7742   -6.1498   16.6764 C   0  0  0  0  0  0  0  0  0  0  0  0
   10.9418   -3.4032   21.2053 O   0  0  0  0  0  0  0  0  0  0  0  0
    1.4797   -8.6258   16.2950 C   0  0  0  0  0  0  0  0  0  0  0  0
    9.2861   -1.2743   25.3585 C   0  0  0  0  0  0  0  0  0  0  0  0
    1.8892  -10.3985   17.7511 N   0  0  0  0  0  0  0  0  0  0  0  0
    9.6210   -0.6952   24.0976 C   0  0  0  0  0  0  0  0  0  0  0  0
    7.0792   -9.0217   17.1429 C   0  0  0  0  0  0  0  0  0  0  0  0
    3.1713  -10.1816   17.6634 C   0  0  0  0  0  0  0  0  0  0  0  0
    2.7878   -8.3822   16.2137 C   0  0  0  0  0  0  0  0  0  0  0  0
    9.4601   -2.6590   25.6528 C   0  0  0  0  0  0  0  0  0  0  0  0
   10.1182   -1.5672   23.1165 C   0  0  0  0  0  0  0  0  0  0  0  0
    1.0552   -9.6360   17.0650 C   0  0  0  0  0  0  0  0  0  0  0  0
    3.6519   -9.1783   16.9039 C   0  0  0  0  0  0  0  0  0  0  0  0
    7.8675   -7.0096   15.9415 C   0  0  0  0  0  0  0  0  0  0  0  0
    5.9733   -9.6553   17.3832 N   0  0  0  0  0  0  0  0  0  0  0  0
   10.2411   -2.9363   23.4301 C   0  0  0  0  0  0  0  0  0  0  0  0
   10.7288   -3.8197   19.9525 C   0  0  0  0  0  0  0  0  0  0  0  0
   10.1189   -5.0054   19.6987 C   0  0  0  0  0  0  0  0  0  0  0  0
  1  3  4  0
  1  7  4  0
  2 21  4  0
  2 27  4  0
  3  9  4  0
  3 10  4  0
  4  8  4  0
  4 18  4  0
  4 25  1  0
  5  9  4  0
  5 12  4  0
  6 13  1  0
  6 27  1  0
  7 28  4  0
  8 11  4  0
  9 29  4  0
 10 12  4  0
 11 24  1  0
 11 26  4  0
 12 25  1  0
 13 28  1  0
 14 20  4  0
 14 23  4  0
 15 17  4  0
 15 21  4  0
 16 19  4  0
 16 23  4  0
 17 22  4  0
 18 26  4  0
 19 24  4  0
 20 24  4  0
 22 27  4  0
 28 29  4  0
M  END
$$$$

 Created by Python create_sdf_string function

 29 33  0  0  0  0  0  0  0  0999 V2000
   10.7215   -3.3326   17.6437 C   0  0  0  0  0  0  0  0  0  0  0  0
    9.9489   -3.4675   24.6487 N   0  0  0  0  0  0  0  0  0  0  0  0
   10.0172   -4.4740   17.4101 C   0  0  0  0  0  0  0  0  0  0  0  0
    6.9051   -7.9575   16.4222 C   0  0  0  0  0  0  0  0  0  0  0  0
    8.9969   -6.3552   17.9668 N   0  0  0  0  0  0  0  0  0  0  0  0
   10.6702   -3.9051   22.4070 C   0  0  0  0  0  0  0  0  0  0  0  0
   11.0625   -3.0028   18.8894 C   0  0  0  0  0  0  0  0  0  0  0  0
    5.6180   -7.9194   16.1754 O   0  0  0  0  0  0  0  0  0  0  0  0
    9.7259   -5.3080   18.4485 C   0  0  0  0  0  0  0  0  0  0  0  0
    9.4578   -5.0200   16.3036 N   0  0  0  0  0  0  0  0  0  0  0  0
    5.0287   -8.9365   16.8223 C   0  0  0  0  0  0  0  0  0  0  0  0
    8.7742   -6.1498   16.6764 C   0  0  0  0  0  0  0  0  0  0  0  0
   10.9418   -3.4032   21.2053 O   0  0  0  0  0  0  0  0  0  0  0  0
    1.4797   -8.6258   16.2950 C   0  0  0  0  0  0  0  0  0  0  0  0
    9.2861   -1.2743   25.3585 C   0  0  0  0  0  0  0  0  0  0  0  0
    1.8892  -10.3985   17.7511 N   0  0  0  0  0  0  0  0  0  0  0  0
    9.6210   -0.6952   24.0976 C   0  0  0  0  0  0  0  0  0  0  0  0
    7.0792   -9.0217   17.1429 C   0  0  0  0  0  0  0  0  0  0  0  0
    3.1713  -10.1816   17.6634 C   0  0  0  0  0  0  0  0  0  0  0  0
    2.7878   -8.3822   16.2137 C   0  0  0  0  0  0  0  0  0  0  0  0
    9.4601   -2.6590   25.6528 C   0  0  0  0  0  0  0  0  0  0  0  0
   10.1182   -1.5672   23.1165 C   0  0  0  0  0  0  0  0  0  0  0  0
    1.0552   -9.6360   17.0650 C   0  0  0  0  0  0  0  0  0  0  0  0
    3.6519   -9.1783   16.9039 C   0  0  0  0  0  0  0  0  0  0  0  0
    7.8675   -7.0096   15.9415 C   0  0  0  0  0  0  0  0  0  0  0  0
    5.9733   -9.6553   17.3832 N   0  0  0  0  0  0  0  0  0  0  0  0
   10.2411   -2.9363   23.4301 C   0  0  0  0  0  0  0  0  0  0  0  0
   10.7288   -3.8197   19.9525 C   0  0  0  0  0  0  0  0  0  0  0  0
   10.1189   -5.0054   19.6987 C   0  0  0  0  0  0  0  0  0  0  0  0
  1  3  4  0
  1  7  4  0
  2 21  4  0
  2 27  4  0
  3  9  4  0
  3 10  4  0
  4  8  4  0
  4 18  4  0
  4 25  1  0
  5  9  4  0
  5 12  4  0
  6 13  1  0
  6 27  1  0
  7 28  4  0
  8 11  4  0
  9 29  4  0
 10 12  4  0
 11 24  1  0
 11 26  4  0
 12 25  1  0
 13 28  1  0
 14 20  4  0
 14 23  4  0
 15 17  4  0
 15 21  4  0
 16 19  4  0
 16 23  4  0
 17 22  4  0
 18 26  4  0
 19 24  4  0
 20 24  4  0
 22 27  4  0
 28 29  4  0
M  END
$$$$

 Created by Python create_sdf_string function

 29 33  0  0  0  0  0  0  0  0999 V2000
   10.7215   -3.3326   17.6437 C   0  0  0  0  0  0  0  0  0  0  0  0
    9.9489   -3.4675   24.6487 N   0  0  0  0  0  0  0  0  0  0  0  0
   10.0172   -4.4740   17.4101 C   0  0  0  0  0  0  0  0  0  0  0  0
    6.9051   -7.9575   16.4222 C   0  0  0  0  0  0  0  0  0  0  0  0
    8.9969   -6.3552   17.9668 N   0  0  0  0  0  0  0  0  0  0  0  0
   10.6702   -3.9051   22.4070 C   0  0  0  0  0  0  0  0  0  0  0  0
   11.0625   -3.0028   18.8894 C   0  0  0  0  0  0  0  0  0  0  0  0
    5.6180   -7.9194   16.1754 O   0  0  0  0  0  0  0  0  0  0  0  0
    9.7259   -5.3080   18.4485 C   0  0  0  0  0  0  0  0  0  0  0  0
    9.4578   -5.0200   16.3036 N   0  0  0  0  0  0  0  0  0  0  0  0
    5.0287   -8.9365   16.8223 C   0  0  0  0  0  0  0  0  0  0  0  0
    8.7742   -6.1498   16.6764 C   0  0  0  0  0  0  0  0  0  0  0  0
   10.9418   -3.4032   21.2053 O   0  0  0  0  0  0  0  0  0  0  0  0
    1.4797   -8.6258   16.2950 C   0  0  0  0  0  0  0  0  0  0  0  0
    9.2861   -1.2743   25.3585 C   0  0  0  0  0  0  0  0  0  0  0  0
    1.8892  -10.3985   17.7511 N   0  0  0  0  0  0  0  0  0  0  0  0
    9.6210   -0.6952   24.0976 C   0  0  0  0  0  0  0  0  0  0  0  0
    7.0792   -9.0217   17.1429 C   0  0  0  0  0  0  0  0  0  0  0  0
    3.1713  -10.1816   17.6634 C   0  0  0  0  0  0  0  0  0  0  0  0
    2.7878   -8.3822   16.2137 C   0  0  0  0  0  0  0  0  0  0  0  0
    9.4601   -2.6590   25.6528 C   0  0  0  0  0  0  0  0  0  0  0  0
   10.1182   -1.5672   23.1165 C   0  0  0  0  0  0  0  0  0  0  0  0
    1.0552   -9.6360   17.0650 C   0  0  0  0  0  0  0  0  0  0  0  0
    3.6519   -9.1783   16.9039 C   0  0  0  0  0  0  0  0  0  0  0  0
    7.8675   -7.0096   15.9415 C   0  0  0  0  0  0  0  0  0  0  0  0
    5.9733   -9.6553   17.3832 N   0  0  0  0  0  0  0  0  0  0  0  0
   10.2411   -2.9363   23.4301 C   0  0  0  0  0  0  0  0  0  0  0  0
   10.7288   -3.8197   19.9525 C   0  0  0  0  0  0  0  0  0  0  0  0
   10.1189   -5.0054   19.6987 C   0  0  0  0  0  0  0  0  0  0  0  0
  1  3  4  0
  1  7  4  0
  2 21  4  0
  2 27  4  0
  3  9  4  0
  3 10  4  0
  4  8  4  0
  4 18  4  0
  4 25  1  0
  5  9  4  0
  5 12  4  0
  6 13  1  0
  6 27  1  0
  7 28  4  0
  8 11  4  0
  9 29  4  0
 10 12  4  0
 11 24  1  0
 11 26  4  0
 12 25  1  0
 13 28  1  0
 14 20  4  0
 14 23  4  0
 15 17  4  0
 15 21  4  0
 16 19  4  0
 16 23  4  0
 17 22  4  0
 18 26  4  0
 19 24  4  0
 20 24  4  0
 22 27  4  0
 28 29  4  0
M  END
$$$$

 Created by Python create_sdf_string function

 29 33  0  0  0  0  0  0  0  0999 V2000
   10.7215   -3.3326   17.6437 C   0  0  0  0  0  0  0  0  0  0  0  0
    9.9489   -3.4675   24.6487 N   0  0  0  0  0  0  0  0  0  0  0  0
   10.0172   -4.4740   17.4101 C   0  0  0  0  0  0  0  0  0  0  0  0
    6.9051   -7.9575   16.4222 C   0  0  0  0  0  0  0  0  0  0  0  0
    8.9969   -6.3552   17.9668 N   0  0  0  0  0  0  0  0  0  0  0  0
   10.6702   -3.9051   22.4070 C   0  0  0  0  0  0  0  0  0  0  0  0
   11.0625   -3.0028   18.8894 C   0  0  0  0  0  0  0  0  0  0  0  0
    5.6180   -7.9194   16.1754 O   0  0  0  0  0  0  0  0  0  0  0  0
    9.7259   -5.3080   18.4485 C   0  0  0  0  0  0  0  0  0  0  0  0
    9.4578   -5.0200   16.3036 N   0  0  0  0  0  0  0  0  0  0  0  0
    5.0287   -8.9365   16.8223 C   0  0  0  0  0  0  0  0  0  0  0  0
    8.7742   -6.1498   16.6764 C   0  0  0  0  0  0  0  0  0  0  0  0
   10.9418   -3.4032   21.2053 O   0  0  0  0  0  0  0  0  0  0  0  0
    1.4797   -8.6258   16.2950 C   0  0  0  0  0  0  0  0  0  0  0  0
    9.2861   -1.2743   25.3585 C   0  0  0  0  0  0  0  0  0  0  0  0
    1.8892  -10.3985   17.7511 N   0  0  0  0  0  0  0  0  0  0  0  0
    9.6210   -0.6952   24.0976 C   0  0  0  0  0  0  0  0  0  0  0  0
    7.0792   -9.0217   17.1429 C   0  0  0  0  0  0  0  0  0  0  0  0
    3.1713  -10.1816   17.6634 C   0  0  0  0  0  0  0  0  0  0  0  0
    2.7878   -8.3822   16.2137 C   0  0  0  0  0  0  0  0  0  0  0  0
    9.4601   -2.6590   25.6528 C   0  0  0  0  0  0  0  0  0  0  0  0
   10.1182   -1.5672   23.1165 C   0  0  0  0  0  0  0  0  0  0  0  0
    1.0552   -9.6360   17.0650 C   0  0  0  0  0  0  0  0  0  0  0  0
    3.6519   -9.1783   16.9039 C   0  0  0  0  0  0  0  0  0  0  0  0
    7.8675   -7.0096   15.9415 C   0  0  0  0  0  0  0  0  0  0  0  0
    5.9733   -9.6553   17.3832 N   0  0  0  0  0  0  0  0  0  0  0  0
   10.2411   -2.9363   23.4301 C   0  0  0  0  0  0  0  0  0  0  0  0
   10.7288   -3.8197   19.9525 C   0  0  0  0  0  0  0  0  0  0  0  0
   10.1189   -5.0054   19.6987 C   0  0  0  0  0  0  0  0  0  0  0  0
  1  3  4  0
  1  7  4  0
  2 21  4  0
  2 27  4  0
  3  9  4  0
  3 10  4  0
  4  8  4  0
  4 18  4  0
  4 25  1  0
  5  9  4  0
  5 12  4  0
  6 13  1  0
  6 27  1  0
  7 28  4  0
  8 11  4  0
  9 29  4  0
 10 12  4  0
 11 24  1  0
 11 26  4  0
 12 25  1  0
 13 28  1  0
 14 20  4  0
 14 23  4  0
 15 17  4  0
 15 21  4  0
 16 19  4  0
 16 23  4  0
 17 22  4  0
 18 26  4  0
 19 24  4  0
 20 24  4  0
 22 27  4  0
 28 29  4  0
M  END
$$$$

 Created by Python create_sdf_string function

 29 33  0  0  0  0  0  0  0  0999 V2000
   10.7215   -3.3326   17.6437 C   0  0  0  0  0  0  0  0  0  0  0  0
    9.9489   -3.4675   24.6487 N   0  0  0  0  0  0  0  0  0  0  0  0
   10.0172   -4.4740   17.4101 C   0  0  0  0  0  0  0  0  0  0  0  0
    6.9051   -7.9575   16.4222 C   0  0  0  0  0  0  0  0  0  0  0  0
    8.9969   -6.3552   17.9668 N   0  0  0  0  0  0  0  0  0  0  0  0
   10.6702   -3.9051   22.4070 C   0  0  0  0  0  0  0  0  0  0  0  0
   11.0625   -3.0028   18.8894 C   0  0  0  0  0  0  0  0  0  0  0  0
    5.6180   -7.9194   16.1754 O   0  0  0  0  0  0  0  0  0  0  0  0
    9.7259   -5.3080   18.4485 C   0  0  0  0  0  0  0  0  0  0  0  0
    9.4578   -5.0200   16.3036 N   0  0  0  0  0  0  0  0  0  0  0  0
    5.0287   -8.9365   16.8223 C   0  0  0  0  0  0  0  0  0  0  0  0
    8.7742   -6.1498   16.6764 C   0  0  0  0  0  0  0  0  0  0  0  0
   10.9418   -3.4032   21.2053 O   0  0  0  0  0  0  0  0  0  0  0  0
    1.4797   -8.6258   16.2950 C   0  0  0  0  0  0  0  0  0  0  0  0
    9.2861   -1.2743   25.3585 C   0  0  0  0  0  0  0  0  0  0  0  0
    1.8892  -10.3985   17.7511 N   0  0  0  0  0  0  0  0  0  0  0  0
    9.6210   -0.6952   24.0976 C   0  0  0  0  0  0  0  0  0  0  0  0
    7.0792   -9.0217   17.1429 C   0  0  0  0  0  0  0  0  0  0  0  0
    3.1713  -10.1816   17.6634 C   0  0  0  0  0  0  0  0  0  0  0  0
    2.7878   -8.3822   16.2137 C   0  0  0  0  0  0  0  0  0  0  0  0
    9.4601   -2.6590   25.6528 C   0  0  0  0  0  0  0  0  0  0  0  0
   10.1182   -1.5672   23.1165 C   0  0  0  0  0  0  0  0  0  0  0  0
    1.0552   -9.6360   17.0650 C   0  0  0  0  0  0  0  0  0  0  0  0
    3.6519   -9.1783   16.9039 C   0  0  0  0  0  0  0  0  0  0  0  0
    7.8675   -7.0096   15.9415 C   0  0  0  0  0  0  0  0  0  0  0  0
    5.9733   -9.6553   17.3832 N   0  0  0  0  0  0  0  0  0  0  0  0
   10.2411   -2.9363   23.4301 C   0  0  0  0  0  0  0  0  0  0  0  0
   10.7288   -3.8197   19.9525 C   0  0  0  0  0  0  0  0  0  0  0  0
   10.1189   -5.0054   19.6987 C   0  0  0  0  0  0  0  0  0  0  0  0
  1  3  4  0
  1  7  4  0
  2 21  4  0
  2 27  4  0
  3  9  4  0
  3 10  4  0
  4  8  4  0
  4 18  4  0
  4 25  1  0
  5  9  4  0
  5 12  4  0
  6 13  1  0
  6 27  1  0
  7 28  4  0
  8 11  4  0
  9 29  4  0
 10 12  4  0
 11 24  1  0
 11 26  4  0
 12 25  1  0
 13 28  1  0
 14 20  4  0
 14 23  4  0
 15 17  4  0
 15 21  4  0
 16 19  4  0
 16 23  4  0
 17 22  4  0
 18 26  4  0
 19 24  4  0
 20 24  4  0
 22 27  4  0
 28 29  4  0
M  END
$$$$

 Created by Python create_sdf_string function

 29 33  0  0  0  0  0  0  0  0999 V2000
   10.7215   -3.3326   17.6437 C   0  0  0  0  0  0  0  0  0  0  0  0
    9.9489   -3.4675   24.6487 N   0  0  0  0  0  0  0  0  0  0  0  0
   10.0172   -4.4740   17.4101 C   0  0  0  0  0  0  0  0  0  0  0  0
    6.9051   -7.9575   16.4222 C   0  0  0  0  0  0  0  0  0  0  0  0
    8.9969   -6.3552   17.9668 N   0  0  0  0  0  0  0  0  0  0  0  0
   10.6702   -3.9051   22.4070 C   0  0  0  0  0  0  0  0  0  0  0  0
   11.0625   -3.0028   18.8894 C   0  0  0  0  0  0  0  0  0  0  0  0
    5.6180   -7.9194   16.1754 O   0  0  0  0  0  0  0  0  0  0  0  0
    9.7259   -5.3080   18.4485 C   0  0  0  0  0  0  0  0  0  0  0  0
    9.4578   -5.0200   16.3036 N   0  0  0  0  0  0  0  0  0  0  0  0
    5.0287   -8.9365   16.8223 C   0  0  0  0  0  0  0  0  0  0  0  0
    8.7742   -6.1498   16.6764 C   0  0  0  0  0  0  0  0  0  0  0  0
   10.9418   -3.4032   21.2053 O   0  0  0  0  0  0  0  0  0  0  0  0
    1.4797   -8.6258   16.2950 C   0  0  0  0  0  0  0  0  0  0  0  0
    9.2861   -1.2743   25.3585 C   0  0  0  0  0  0  0  0  0  0  0  0
    1.8892  -10.3985   17.7511 N   0  0  0  0  0  0  0  0  0  0  0  0
    9.6210   -0.6952   24.0976 C   0  0  0  0  0  0  0  0  0  0  0  0
    7.0792   -9.0217   17.1429 C   0  0  0  0  0  0  0  0  0  0  0  0
    3.1713  -10.1816   17.6634 C   0  0  0  0  0  0  0  0  0  0  0  0
    2.7878   -8.3822   16.2137 C   0  0  0  0  0  0  0  0  0  0  0  0
    9.4601   -2.6590   25.6528 C   0  0  0  0  0  0  0  0  0  0  0  0
   10.1182   -1.5672   23.1165 C   0  0  0  0  0  0  0  0  0  0  0  0
    1.0552   -9.6360   17.0650 C   0  0  0  0  0  0  0  0  0  0  0  0
    3.6519   -9.1783   16.9039 C   0  0  0  0  0  0  0  0  0  0  0  0
    7.8675   -7.0096   15.9415 C   0  0  0  0  0  0  0  0  0  0  0  0
    5.9733   -9.6553   17.3832 N   0  0  0  0  0  0  0  0  0  0  0  0
   10.2411   -2.9363   23.4301 C   0  0  0  0  0  0  0  0  0  0  0  0
   10.7288   -3.8197   19.9525 C   0  0  0  0  0  0  0  0  0  0  0  0
   10.1189   -5.0054   19.6987 C   0  0  0  0  0  0  0  0  0  0  0  0
  1  3  4  0
  1  7  4  0
  2 21  4  0
  2 27  4  0
  3  9  4  0
  3 10  4  0
  4  8  4  0
  4 18  4  0
  4 25  1  0
  5  9  4  0
  5 12  4  0
  6 13  1  0
  6 27  1  0
  7 28  4  0
  8 11  4  0
  9 29  4  0
 10 12  4  0
 11 24  1  0
 11 26  4  0
 12 25  1  0
 13 28  1  0
 14 20  4  0
 14 23  4  0
 15 17  4  0
 15 21  4  0
 16 19  4  0
 16 23  4  0
 17 22  4  0
 18 26  4  0
 19 24  4  0
 20 24  4  0
 22 27  4  0
 28 29  4  0
M  END
$$$$

 Created by Python create_sdf_string function

 29 33  0  0  0  0  0  0  0  0999 V2000
   10.7215   -3.3326   17.6437 C   0  0  0  0  0  0  0  0  0  0  0  0
    9.9489   -3.4675   24.6487 N   0  0  0  0  0  0  0  0  0  0  0  0
   10.0172   -4.4740   17.4101 C   0  0  0  0  0  0  0  0  0  0  0  0
    6.9051   -7.9575   16.4222 C   0  0  0  0  0  0  0  0  0  0  0  0
    8.9969   -6.3552   17.9668 N   0  0  0  0  0  0  0  0  0  0  0  0
   10.6702   -3.9051   22.4070 C   0  0  0  0  0  0  0  0  0  0  0  0
   11.0625   -3.0028   18.8894 C   0  0  0  0  0  0  0  0  0  0  0  0
    5.6180   -7.9194   16.1754 O   0  0  0  0  0  0  0  0  0  0  0  0
    9.7259   -5.3080   18.4485 C   0  0  0  0  0  0  0  0  0  0  0  0
    9.4578   -5.0200   16.3036 N   0  0  0  0  0  0  0  0  0  0  0  0
    5.0287   -8.9365   16.8223 C   0  0  0  0  0  0  0  0  0  0  0  0
    8.7742   -6.1498   16.6764 C   0  0  0  0  0  0  0  0  0  0  0  0
   10.9418   -3.4032   21.2053 O   0  0  0  0  0  0  0  0  0  0  0  0
    1.4797   -8.6258   16.2950 C   0  0  0  0  0  0  0  0  0  0  0  0
    9.2861   -1.2743   25.3585 C   0  0  0  0  0  0  0  0  0  0  0  0
    1.8892  -10.3985   17.7511 N   0  0  0  0  0  0  0  0  0  0  0  0
    9.6210   -0.6952   24.0976 C   0  0  0  0  0  0  0  0  0  0  0  0
    7.0792   -9.0217   17.1429 C   0  0  0  0  0  0  0  0  0  0  0  0
    3.1713  -10.1816   17.6634 C   0  0  0  0  0  0  0  0  0  0  0  0
    2.7878   -8.3822   16.2137 C   0  0  0  0  0  0  0  0  0  0  0  0
    9.4601   -2.6590   25.6528 C   0  0  0  0  0  0  0  0  0  0  0  0
   10.1182   -1.5672   23.1165 C   0  0  0  0  0  0  0  0  0  0  0  0
    1.0552   -9.6360   17.0650 C   0  0  0  0  0  0  0  0  0  0  0  0
    3.6519   -9.1783   16.9039 C   0  0  0  0  0  0  0  0  0  0  0  0
    7.8675   -7.0096   15.9415 C   0  0  0  0  0  0  0  0  0  0  0  0
    5.9733   -9.6553   17.3832 N   0  0  0  0  0  0  0  0  0  0  0  0
   10.2411   -2.9363   23.4301 C   0  0  0  0  0  0  0  0  0  0  0  0
   10.7288   -3.8197   19.9525 C   0  0  0  0  0  0  0  0  0  0  0  0
   10.1189   -5.0054   19.6987 C   0  0  0  0  0  0  0  0  0  0  0  0
  1  3  4  0
  1  7  4  0
  2 21  4  0
  2 27  4  0
  3  9  4  0
  3 10  4  0
  4  8  4  0
  4 18  4  0
  4 25  1  0
  5  9  4  0
  5 12  4  0
  6 13  1  0
  6 27  1  0
  7 28  4  0
  8 11  4  0
  9 29  4  0
 10 12  4  0
 11 24  1  0
 11 26  4  0
 12 25  1  0
 13 28  1  0
 14 20  4  0
 14 23  4  0
 15 17  4  0
 15 21  4  0
 16 19  4  0
 16 23  4  0
 17 22  4  0
 18 26  4  0
 19 24  4  0
 20 24  4  0
 22 27  4  0
 28 29  4  0
M  END
$$$$

 Created by Python create_sdf_string function

 29 33  0  0  0  0  0  0  0  0999 V2000
   10.7215   -3.3326   17.6437 C   0  0  0  0  0  0  0  0  0  0  0  0
    9.9489   -3.4675   24.6487 N   0  0  0  0  0  0  0  0  0  0  0  0
   10.0172   -4.4740   17.4101 C   0  0  0  0  0  0  0  0  0  0  0  0
    6.9051   -7.9575   16.4222 C   0  0  0  0  0  0  0  0  0  0  0  0
    8.9969   -6.3552   17.9668 N   0  0  0  0  0  0  0  0  0  0  0  0
   10.6702   -3.9051   22.4070 C   0  0  0  0  0  0  0  0  0  0  0  0
   11.0625   -3.0028   18.8894 C   0  0  0  0  0  0  0  0  0  0  0  0
    5.6180   -7.9194   16.1754 O   0  0  0  0  0  0  0  0  0  0  0  0
    9.7259   -5.3080   18.4485 C   0  0  0  0  0  0  0  0  0  0  0  0
    9.4578   -5.0200   16.3036 N   0  0  0  0  0  0  0  0  0  0  0  0
    5.0287   -8.9365   16.8223 C   0  0  0  0  0  0  0  0  0  0  0  0
    8.7742   -6.1498   16.6764 C   0  0  0  0  0  0  0  0  0  0  0  0
   10.9418   -3.4032   21.2053 O   0  0  0  0  0  0  0  0  0  0  0  0
    1.4797   -8.6258   16.2950 C   0  0  0  0  0  0  0  0  0  0  0  0
    9.2861   -1.2743   25.3585 C   0  0  0  0  0  0  0  0  0  0  0  0
    1.8892  -10.3985   17.7511 N   0  0  0  0  0  0  0  0  0  0  0  0
    9.6210   -0.6952   24.0976 C   0  0  0  0  0  0  0  0  0  0  0  0
    7.0792   -9.0217   17.1429 C   0  0  0  0  0  0  0  0  0  0  0  0
    3.1713  -10.1816   17.6634 C   0  0  0  0  0  0  0  0  0  0  0  0
    2.7878   -8.3822   16.2137 C   0  0  0  0  0  0  0  0  0  0  0  0
    9.4601   -2.6590   25.6528 C   0  0  0  0  0  0  0  0  0  0  0  0
   10.1182   -1.5672   23.1165 C   0  0  0  0  0  0  0  0  0  0  0  0
    1.0552   -9.6360   17.0650 C   0  0  0  0  0  0  0  0  0  0  0  0
    3.6519   -9.1783   16.9039 C   0  0  0  0  0  0  0  0  0  0  0  0
    7.8675   -7.0096   15.9415 C   0  0  0  0  0  0  0  0  0  0  0  0
    5.9733   -9.6553   17.3832 N   0  0  0  0  0  0  0  0  0  0  0  0
   10.2411   -2.9363   23.4301 C   0  0  0  0  0  0  0  0  0  0  0  0
   10.7288   -3.8197   19.9525 C   0  0  0  0  0  0  0  0  0  0  0  0
   10.1189   -5.0054   19.6987 C   0  0  0  0  0  0  0  0  0  0  0  0
  1  3  4  0
  1  7  4  0
  2 21  4  0
  2 27  4  0
  3  9  4  0
  3 10  4  0
  4  8  4  0
  4 18  4  0
  4 25  1  0
  5  9  4  0
  5 12  4  0
  6 13  1  0
  6 27  1  0
  7 28  4  0
  8 11  4  0
  9 29  4  0
 10 12  4  0
 11 24  1  0
 11 26  4  0
 12 25  1  0
 13 28  1  0
 14 20  4  0
 14 23  4  0
 15 17  4  0
 15 21  4  0
 16 19  4  0
 16 23  4  0
 17 22  4  0
 18 26  4  0
 19 24  4  0
 20 24  4  0
 22 27  4  0
 28 29  4  0
M  END
$$$$

 Created by Python create_sdf_string function

 29 33  0  0  0  0  0  0  0  0999 V2000
   10.7215   -3.3326   17.6437 C   0  0  0  0  0  0  0  0  0  0  0  0
    9.9489   -3.4675   24.6487 N   0  0  0  0  0  0  0  0  0  0  0  0
   10.0172   -4.4740   17.4101 C   0  0  0  0  0  0  0  0  0  0  0  0
    6.9051   -7.9575   16.4222 C   0  0  0  0  0  0  0  0  0  0  0  0
    8.9969   -6.3552   17.9668 N   0  0  0  0  0  0  0  0  0  0  0  0
   10.6702   -3.9051   22.4070 C   0  0  0  0  0  0  0  0  0  0  0  0
   11.0625   -3.0028   18.8894 C   0  0  0  0  0  0  0  0  0  0  0  0
    5.6180   -7.9194   16.1754 O   0  0  0  0  0  0  0  0  0  0  0  0
    9.7259   -5.3080   18.4485 C   0  0  0  0  0  0  0  0  0  0  0  0
    9.4578   -5.0200   16.3036 N   0  0  0  0  0  0  0  0  0  0  0  0
    5.0287   -8.9365   16.8223 C   0  0  0  0  0  0  0  0  0  0  0  0
    8.7742   -6.1498   16.6764 C   0  0  0  0  0  0  0  0  0  0  0  0
   10.9418   -3.4032   21.2053 O   0  0  0  0  0  0  0  0  0  0  0  0
    1.4797   -8.6258   16.2950 C   0  0  0  0  0  0  0  0  0  0  0  0
    9.2861   -1.2743   25.3585 C   0  0  0  0  0  0  0  0  0  0  0  0
    1.8892  -10.3985   17.7511 N   0  0  0  0  0  0  0  0  0  0  0  0
    9.6210   -0.6952   24.0976 C   0  0  0  0  0  0  0  0  0  0  0  0
    7.0792   -9.0217   17.1429 C   0  0  0  0  0  0  0  0  0  0  0  0
    3.1713  -10.1816   17.6634 C   0  0  0  0  0  0  0  0  0  0  0  0
    2.7878   -8.3822   16.2137 C   0  0  0  0  0  0  0  0  0  0  0  0
    9.4601   -2.6590   25.6528 C   0  0  0  0  0  0  0  0  0  0  0  0
   10.1182   -1.5672   23.1165 C   0  0  0  0  0  0  0  0  0  0  0  0
    1.0552   -9.6360   17.0650 C   0  0  0  0  0  0  0  0  0  0  0  0
    3.6519   -9.1783   16.9039 C   0  0  0  0  0  0  0  0  0  0  0  0
    7.8675   -7.0096   15.9415 C   0  0  0  0  0  0  0  0  0  0  0  0
    5.9733   -9.6553   17.3832 N   0  0  0  0  0  0  0  0  0  0  0  0
   10.2411   -2.9363   23.4301 C   0  0  0  0  0  0  0  0  0  0  0  0
   10.7288   -3.8197   19.9525 C   0  0  0  0  0  0  0  0  0  0  0  0
   10.1189   -5.0054   19.6987 C   0  0  0  0  0  0  0  0  0  0  0  0
  1  3  4  0
  1  7  4  0
  2 21  4  0
  2 27  4  0
  3  9  4  0
  3 10  4  0
  4  8  4  0
  4 18  4  0
  4 25  1  0
  5  9  4  0
  5 12  4  0
  6 13  1  0
  6 27  1  0
  7 28  4  0
  8 11  4  0
  9 29  4  0
 10 12  4  0
 11 24  1  0
 11 26  4  0
 12 25  1  0
 13 28  1  0
 14 20  4  0
 14 23  4  0
 15 17  4  0
 15 21  4  0
 16 19  4  0
 16 23  4  0
 17 22  4  0
 18 26  4  0
 19 24  4  0
 20 24  4  0
 22 27  4  0
 28 29  4  0
M  END
$$$$

 Created by Python create_sdf_string function

 29 33  0  0  0  0  0  0  0  0999 V2000
   10.7215   -3.3326   17.6437 C   0  0  0  0  0  0  0  0  0  0  0  0
    9.9489   -3.4675   24.6487 N   0  0  0  0  0  0  0  0  0  0  0  0
   10.0172   -4.4740   17.4101 C   0  0  0  0  0  0  0  0  0  0  0  0
    6.9051   -7.9575   16.4222 C   0  0  0  0  0  0  0  0  0  0  0  0
    8.9969   -6.3552   17.9668 N   0  0  0  0  0  0  0  0  0  0  0  0
   10.6702   -3.9051   22.4070 C   0  0  0  0  0  0  0  0  0  0  0  0
   11.0625   -3.0028   18.8894 C   0  0  0  0  0  0  0  0  0  0  0  0
    5.6180   -7.9194   16.1754 O   0  0  0  0  0  0  0  0  0  0  0  0
    9.7259   -5.3080   18.4485 C   0  0  0  0  0  0  0  0  0  0  0  0
    9.4578   -5.0200   16.3036 N   0  0  0  0  0  0  0  0  0  0  0  0
    5.0287   -8.9365   16.8223 C   0  0  0  0  0  0  0  0  0  0  0  0
    8.7742   -6.1498   16.6764 C   0  0  0  0  0  0  0  0  0  0  0  0
   10.9418   -3.4032   21.2053 O   0  0  0  0  0  0  0  0  0  0  0  0
    1.4797   -8.6258   16.2950 C   0  0  0  0  0  0  0  0  0  0  0  0
    9.2861   -1.2743   25.3585 C   0  0  0  0  0  0  0  0  0  0  0  0
    1.8892  -10.3985   17.7511 N   0  0  0  0  0  0  0  0  0  0  0  0
    9.6210   -0.6952   24.0976 C   0  0  0  0  0  0  0  0  0  0  0  0
    7.0792   -9.0217   17.1429 C   0  0  0  0  0  0  0  0  0  0  0  0
    3.1713  -10.1816   17.6634 C   0  0  0  0  0  0  0  0  0  0  0  0
    2.7878   -8.3822   16.2137 C   0  0  0  0  0  0  0  0  0  0  0  0
    9.4601   -2.6590   25.6528 C   0  0  0  0  0  0  0  0  0  0  0  0
   10.1182   -1.5672   23.1165 C   0  0  0  0  0  0  0  0  0  0  0  0
    1.0552   -9.6360   17.0650 C   0  0  0  0  0  0  0  0  0  0  0  0
    3.6519   -9.1783   16.9039 C   0  0  0  0  0  0  0  0  0  0  0  0
    7.8675   -7.0096   15.9415 C   0  0  0  0  0  0  0  0  0  0  0  0
    5.9733   -9.6553   17.3832 N   0  0  0  0  0  0  0  0  0  0  0  0
   10.2411   -2.9363   23.4301 C   0  0  0  0  0  0  0  0  0  0  0  0
   10.7288   -3.8197   19.9525 C   0  0  0  0  0  0  0  0  0  0  0  0
   10.1189   -5.0054   19.6987 C   0  0  0  0  0  0  0  0  0  0  0  0
  1  3  4  0
  1  7  4  0
  2 21  4  0
  2 27  4  0
  3  9  4  0
  3 10  4  0
  4  8  4  0
  4 18  4  0
  4 25  1  0
  5  9  4  0
  5 12  4  0
  6 13  1  0
  6 27  1  0
  7 28  4  0
  8 11  4  0
  9 29  4  0
 10 12  4  0
 11 24  1  0
 11 26  4  0
 12 25  1  0
 13 28  1  0
 14 20  4  0
 14 23  4  0
 15 17  4  0
 15 21  4  0
 16 19  4  0
 16 23  4  0
 17 22  4  0
 18 26  4  0
 19 24  4  0
 20 24  4  0
 22 27  4  0
 28 29  4  0
M  END
$$$$

 Created by Python create_sdf_string function

 29 33  0  0  0  0  0  0  0  0999 V2000
   10.7215   -3.3326   17.6437 C   0  0  0  0  0  0  0  0  0  0  0  0
    9.9489   -3.4675   24.6487 N   0  0  0  0  0  0  0  0  0  0  0  0
   10.0172   -4.4740   17.4101 C   0  0  0  0  0  0  0  0  0  0  0  0
    6.9051   -7.9575   16.4222 C   0  0  0  0  0  0  0  0  0  0  0  0
    8.9969   -6.3552   17.9668 N   0  0  0  0  0  0  0  0  0  0  0  0
   10.6702   -3.9051   22.4070 C   0  0  0  0  0  0  0  0  0  0  0  0
   11.0625   -3.0028   18.8894 C   0  0  0  0  0  0  0  0  0  0  0  0
    5.6180   -7.9194   16.1754 O   0  0  0  0  0  0  0  0  0  0  0  0
    9.7259   -5.3080   18.4485 C   0  0  0  0  0  0  0  0  0  0  0  0
    9.4578   -5.0200   16.3036 N   0  0  0  0  0  0  0  0  0  0  0  0
    5.0287   -8.9365   16.8223 C   0  0  0  0  0  0  0  0  0  0  0  0
    8.7742   -6.1498   16.6764 C   0  0  0  0  0  0  0  0  0  0  0  0
   10.9418   -3.4032   21.2053 O   0  0  0  0  0  0  0  0  0  0  0  0
    1.4797   -8.6258   16.2950 C   0  0  0  0  0  0  0  0  0  0  0  0
    9.2861   -1.2743   25.3585 C   0  0  0  0  0  0  0  0  0  0  0  0
    1.8892  -10.3985   17.7511 N   0  0  0  0  0  0  0  0  0  0  0  0
    9.6210   -0.6952   24.0976 C   0  0  0  0  0  0  0  0  0  0  0  0
    7.0792   -9.0217   17.1429 C   0  0  0  0  0  0  0  0  0  0  0  0
    3.1713  -10.1816   17.6634 C   0  0  0  0  0  0  0  0  0  0  0  0
    2.7878   -8.3822   16.2137 C   0  0  0  0  0  0  0  0  0  0  0  0
    9.4601   -2.6590   25.6528 C   0  0  0  0  0  0  0  0  0  0  0  0
   10.1182   -1.5672   23.1165 C   0  0  0  0  0  0  0  0  0  0  0  0
    1.0552   -9.6360   17.0650 C   0  0  0  0  0  0  0  0  0  0  0  0
    3.6519   -9.1783   16.9039 C   0  0  0  0  0  0  0  0  0  0  0  0
    7.8675   -7.0096   15.9415 C   0  0  0  0  0  0  0  0  0  0  0  0
    5.9733   -9.6553   17.3832 N   0  0  0  0  0  0  0  0  0  0  0  0
   10.2411   -2.9363   23.4301 C   0  0  0  0  0  0  0  0  0  0  0  0
   10.7288   -3.8197   19.9525 C   0  0  0  0  0  0  0  0  0  0  0  0
   10.1189   -5.0054   19.6987 C   0  0  0  0  0  0  0  0  0  0  0  0
  1  3  4  0
  1  7  4  0
  2 21  4  0
  2 27  4  0
  3  9  4  0
  3 10  4  0
  4  8  4  0
  4 18  4  0
  4 25  1  0
  5  9  4  0
  5 12  4  0
  6 13  1  0
  6 27  1  0
  7 28  4  0
  8 11  4  0
  9 29  4  0
 10 12  4  0
 11 24  1  0
 11 26  4  0
 12 25  1  0
 13 28  1  0
 14 20  4  0
 14 23  4  0
 15 17  4  0
 15 21  4  0
 16 19  4  0
 16 23  4  0
 17 22  4  0
 18 26  4  0
 19 24  4  0
 20 24  4  0
 22 27  4  0
 28 29  4  0
M  END
$$$$

 Created by Python create_sdf_string function

 29 33  0  0  0  0  0  0  0  0999 V2000
   10.7215   -3.3326   17.6437 C   0  0  0  0  0  0  0  0  0  0  0  0
    9.9489   -3.4675   24.6487 N   0  0  0  0  0  0  0  0  0  0  0  0
   10.0172   -4.4740   17.4101 C   0  0  0  0  0  0  0  0  0  0  0  0
    6.9051   -7.9575   16.4222 C   0  0  0  0  0  0  0  0  0  0  0  0
    8.9969   -6.3552   17.9668 N   0  0  0  0  0  0  0  0  0  0  0  0
   10.6702   -3.9051   22.4070 C   0  0  0  0  0  0  0  0  0  0  0  0
   11.0625   -3.0028   18.8894 C   0  0  0  0  0  0  0  0  0  0  0  0
    5.6180   -7.9194   16.1754 O   0  0  0  0  0  0  0  0  0  0  0  0
    9.7259   -5.3080   18.4485 C   0  0  0  0  0  0  0  0  0  0  0  0
    9.4578   -5.0200   16.3036 N   0  0  0  0  0  0  0  0  0  0  0  0
    5.0287   -8.9365   16.8223 C   0  0  0  0  0  0  0  0  0  0  0  0
    8.7742   -6.1498   16.6764 C   0  0  0  0  0  0  0  0  0  0  0  0
   10.9418   -3.4032   21.2053 O   0  0  0  0  0  0  0  0  0  0  0  0
    1.4797   -8.6258   16.2950 C   0  0  0  0  0  0  0  0  0  0  0  0
    9.2861   -1.2743   25.3585 C   0  0  0  0  0  0  0  0  0  0  0  0
    1.8892  -10.3985   17.7511 N   0  0  0  0  0  0  0  0  0  0  0  0
    9.6210   -0.6952   24.0976 C   0  0  0  0  0  0  0  0  0  0  0  0
    7.0792   -9.0217   17.1429 C   0  0  0  0  0  0  0  0  0  0  0  0
    3.1713  -10.1816   17.6634 C   0  0  0  0  0  0  0  0  0  0  0  0
    2.7878   -8.3822   16.2137 C   0  0  0  0  0  0  0  0  0  0  0  0
    9.4601   -2.6590   25.6528 C   0  0  0  0  0  0  0  0  0  0  0  0
   10.1182   -1.5672   23.1165 C   0  0  0  0  0  0  0  0  0  0  0  0
    1.0552   -9.6360   17.0650 C   0  0  0  0  0  0  0  0  0  0  0  0
    3.6519   -9.1783   16.9039 C   0  0  0  0  0  0  0  0  0  0  0  0
    7.8675   -7.0096   15.9415 C   0  0  0  0  0  0  0  0  0  0  0  0
    5.9733   -9.6553   17.3832 N   0  0  0  0  0  0  0  0  0  0  0  0
   10.2411   -2.9363   23.4301 C   0  0  0  0  0  0  0  0  0  0  0  0
   10.7288   -3.8197   19.9525 C   0  0  0  0  0  0  0  0  0  0  0  0
   10.1189   -5.0054   19.6987 C   0  0  0  0  0  0  0  0  0  0  0  0
  1  3  4  0
  1  7  4  0
  2 21  4  0
  2 27  4  0
  3  9  4  0
  3 10  4  0
  4  8  4  0
  4 18  4  0
  4 25  1  0
  5  9  4  0
  5 12  4  0
  6 13  1  0
  6 27  1  0
  7 28  4  0
  8 11  4  0
  9 29  4  0
 10 12  4  0
 11 24  1  0
 11 26  4  0
 12 25  1  0
 13 28  1  0
 14 20  4  0
 14 23  4  0
 15 17  4  0
 15 21  4  0
 16 19  4  0
 16 23  4  0
 17 22  4  0
 18 26  4  0
 19 24  4  0
 20 24  4  0
 22 27  4  0
 28 29  4  0
M  END
$$$$

 Created by Python create_sdf_string function

 29 33  0  0  0  0  0  0  0  0999 V2000
   10.7215   -3.3326   17.6437 C   0  0  0  0  0  0  0  0  0  0  0  0
    9.9489   -3.4675   24.6487 N   0  0  0  0  0  0  0  0  0  0  0  0
   10.0172   -4.4740   17.4101 C   0  0  0  0  0  0  0  0  0  0  0  0
    6.9051   -7.9575   16.4222 C   0  0  0  0  0  0  0  0  0  0  0  0
    8.9969   -6.3552   17.9668 N   0  0  0  0  0  0  0  0  0  0  0  0
   10.6702   -3.9051   22.4070 C   0  0  0  0  0  0  0  0  0  0  0  0
   11.0625   -3.0028   18.8894 C   0  0  0  0  0  0  0  0  0  0  0  0
    5.6180   -7.9194   16.1754 O   0  0  0  0  0  0  0  0  0  0  0  0
    9.7259   -5.3080   18.4485 C   0  0  0  0  0  0  0  0  0  0  0  0
    9.4578   -5.0200   16.3036 N   0  0  0  0  0  0  0  0  0  0  0  0
    5.0287   -8.9365   16.8223 C   0  0  0  0  0  0  0  0  0  0  0  0
    8.7742   -6.1498   16.6764 C   0  0  0  0  0  0  0  0  0  0  0  0
   10.9418   -3.4032   21.2053 O   0  0  0  0  0  0  0  0  0  0  0  0
    1.4797   -8.6258   16.2950 C   0  0  0  0  0  0  0  0  0  0  0  0
    9.2861   -1.2743   25.3585 C   0  0  0  0  0  0  0  0  0  0  0  0
    1.8892  -10.3985   17.7511 N   0  0  0  0  0  0  0  0  0  0  0  0
    9.6210   -0.6952   24.0976 C   0  0  0  0  0  0  0  0  0  0  0  0
    7.0792   -9.0217   17.1429 C   0  0  0  0  0  0  0  0  0  0  0  0
    3.1713  -10.1816   17.6634 C   0  0  0  0  0  0  0  0  0  0  0  0
    2.7878   -8.3822   16.2137 C   0  0  0  0  0  0  0  0  0  0  0  0
    9.4601   -2.6590   25.6528 C   0  0  0  0  0  0  0  0  0  0  0  0
   10.1182   -1.5672   23.1165 C   0  0  0  0  0  0  0  0  0  0  0  0
    1.0552   -9.6360   17.0650 C   0  0  0  0  0  0  0  0  0  0  0  0
    3.6519   -9.1783   16.9039 C   0  0  0  0  0  0  0  0  0  0  0  0
    7.8675   -7.0096   15.9415 C   0  0  0  0  0  0  0  0  0  0  0  0
    5.9733   -9.6553   17.3832 N   0  0  0  0  0  0  0  0  0  0  0  0
   10.2411   -2.9363   23.4301 C   0  0  0  0  0  0  0  0  0  0  0  0
   10.7288   -3.8197   19.9525 C   0  0  0  0  0  0  0  0  0  0  0  0
   10.1189   -5.0054   19.6987 C   0  0  0  0  0  0  0  0  0  0  0  0
  1  3  4  0
  1  7  4  0
  2 21  4  0
  2 27  4  0
  3  9  4  0
  3 10  4  0
  4  8  4  0
  4 18  4  0
  4 25  1  0
  5  9  4  0
  5 12  4  0
  6 13  1  0
  6 27  1  0
  7 28  4  0
  8 11  4  0
  9 29  4  0
 10 12  4  0
 11 24  1  0
 11 26  4  0
 12 25  1  0
 13 28  1  0
 14 20  4  0
 14 23  4  0
 15 17  4  0
 15 21  4  0
 16 19  4  0
 16 23  4  0
 17 22  4  0
 18 26  4  0
 19 24  4  0
 20 24  4  0
 22 27  4  0
 28 29  4  0
M  END
$$$$

 Created by Python create_sdf_string function

 29 33  0  0  0  0  0  0  0  0999 V2000
   10.7215   -3.3326   17.6437 C   0  0  0  0  0  0  0  0  0  0  0  0
    9.9489   -3.4675   24.6487 N   0  0  0  0  0  0  0  0  0  0  0  0
   10.0172   -4.4740   17.4101 C   0  0  0  0  0  0  0  0  0  0  0  0
    6.9051   -7.9575   16.4222 C   0  0  0  0  0  0  0  0  0  0  0  0
    8.9969   -6.3552   17.9668 N   0  0  0  0  0  0  0  0  0  0  0  0
   10.6702   -3.9051   22.4070 C   0  0  0  0  0  0  0  0  0  0  0  0
   11.0625   -3.0028   18.8894 C   0  0  0  0  0  0  0  0  0  0  0  0
    5.6180   -7.9194   16.1754 O   0  0  0  0  0  0  0  0  0  0  0  0
    9.7259   -5.3080   18.4485 C   0  0  0  0  0  0  0  0  0  0  0  0
    9.4578   -5.0200   16.3036 N   0  0  0  0  0  0  0  0  0  0  0  0
    5.0287   -8.9365   16.8223 C   0  0  0  0  0  0  0  0  0  0  0  0
    8.7742   -6.1498   16.6764 C   0  0  0  0  0  0  0  0  0  0  0  0
   10.9418   -3.4032   21.2053 O   0  0  0  0  0  0  0  0  0  0  0  0
    1.4797   -8.6258   16.2950 C   0  0  0  0  0  0  0  0  0  0  0  0
    9.2861   -1.2743   25.3585 C   0  0  0  0  0  0  0  0  0  0  0  0
    1.8892  -10.3985   17.7511 N   0  0  0  0  0  0  0  0  0  0  0  0
    9.6210   -0.6952   24.0976 C   0  0  0  0  0  0  0  0  0  0  0  0
    7.0792   -9.0217   17.1429 C   0  0  0  0  0  0  0  0  0  0  0  0
    3.1713  -10.1816   17.6634 C   0  0  0  0  0  0  0  0  0  0  0  0
    2.7878   -8.3822   16.2137 C   0  0  0  0  0  0  0  0  0  0  0  0
    9.4601   -2.6590   25.6528 C   0  0  0  0  0  0  0  0  0  0  0  0
   10.1182   -1.5672   23.1165 C   0  0  0  0  0  0  0  0  0  0  0  0
    1.0552   -9.6360   17.0650 C   0  0  0  0  0  0  0  0  0  0  0  0
    3.6519   -9.1783   16.9039 C   0  0  0  0  0  0  0  0  0  0  0  0
    7.8675   -7.0096   15.9415 C   0  0  0  0  0  0  0  0  0  0  0  0
    5.9733   -9.6553   17.3832 N   0  0  0  0  0  0  0  0  0  0  0  0
   10.2411   -2.9363   23.4301 C   0  0  0  0  0  0  0  0  0  0  0  0
   10.7288   -3.8197   19.9525 C   0  0  0  0  0  0  0  0  0  0  0  0
   10.1189   -5.0054   19.6987 C   0  0  0  0  0  0  0  0  0  0  0  0
  1  3  4  0
  1  7  4  0
  2 21  4  0
  2 27  4  0
  3  9  4  0
  3 10  4  0
  4  8  4  0
  4 18  4  0
  4 25  1  0
  5  9  4  0
  5 12  4  0
  6 13  1  0
  6 27  1  0
  7 28  4  0
  8 11  4  0
  9 29  4  0
 10 12  4  0
 11 24  1  0
 11 26  4  0
 12 25  1  0
 13 28  1  0
 14 20  4  0
 14 23  4  0
 15 17  4  0
 15 21  4  0
 16 19  4  0
 16 23  4  0
 17 22  4  0
 18 26  4  0
 19 24  4  0
 20 24  4  0
 22 27  4  0
 28 29  4  0
M  END
$$$$

 Created by Python create_sdf_string function

 29 33  0  0  0  0  0  0  0  0999 V2000
   10.7215   -3.3326   17.6437 C   0  0  0  0  0  0  0  0  0  0  0  0
    9.9489   -3.4675   24.6487 N   0  0  0  0  0  0  0  0  0  0  0  0
   10.0172   -4.4740   17.4101 C   0  0  0  0  0  0  0  0  0  0  0  0
    6.9051   -7.9575   16.4222 C   0  0  0  0  0  0  0  0  0  0  0  0
    8.9969   -6.3552   17.9668 N   0  0  0  0  0  0  0  0  0  0  0  0
   10.6702   -3.9051   22.4070 C   0  0  0  0  0  0  0  0  0  0  0  0
   11.0625   -3.0028   18.8894 C   0  0  0  0  0  0  0  0  0  0  0  0
    5.6180   -7.9194   16.1754 O   0  0  0  0  0  0  0  0  0  0  0  0
    9.7259   -5.3080   18.4485 C   0  0  0  0  0  0  0  0  0  0  0  0
    9.4578   -5.0200   16.3036 N   0  0  0  0  0  0  0  0  0  0  0  0
    5.0287   -8.9365   16.8223 C   0  0  0  0  0  0  0  0  0  0  0  0
    8.7742   -6.1498   16.6764 C   0  0  0  0  0  0  0  0  0  0  0  0
   10.9418   -3.4032   21.2053 O   0  0  0  0  0  0  0  0  0  0  0  0
    1.4797   -8.6258   16.2950 C   0  0  0  0  0  0  0  0  0  0  0  0
    9.2861   -1.2743   25.3585 C   0  0  0  0  0  0  0  0  0  0  0  0
    1.8892  -10.3985   17.7511 N   0  0  0  0  0  0  0  0  0  0  0  0
    9.6210   -0.6952   24.0976 C   0  0  0  0  0  0  0  0  0  0  0  0
    7.0792   -9.0217   17.1429 C   0  0  0  0  0  0  0  0  0  0  0  0
    3.1713  -10.1816   17.6634 C   0  0  0  0  0  0  0  0  0  0  0  0
    2.7878   -8.3822   16.2137 C   0  0  0  0  0  0  0  0  0  0  0  0
    9.4601   -2.6590   25.6528 C   0  0  0  0  0  0  0  0  0  0  0  0
   10.1182   -1.5672   23.1165 C   0  0  0  0  0  0  0  0  0  0  0  0
    1.0552   -9.6360   17.0650 C   0  0  0  0  0  0  0  0  0  0  0  0
    3.6519   -9.1783   16.9039 C   0  0  0  0  0  0  0  0  0  0  0  0
    7.8675   -7.0096   15.9415 C   0  0  0  0  0  0  0  0  0  0  0  0
    5.9733   -9.6553   17.3832 N   0  0  0  0  0  0  0  0  0  0  0  0
   10.2411   -2.9363   23.4301 C   0  0  0  0  0  0  0  0  0  0  0  0
   10.7288   -3.8197   19.9525 C   0  0  0  0  0  0  0  0  0  0  0  0
   10.1189   -5.0054   19.6987 C   0  0  0  0  0  0  0  0  0  0  0  0
  1  3  4  0
  1  7  4  0
  2 21  4  0
  2 27  4  0
  3  9  4  0
  3 10  4  0
  4  8  4  0
  4 18  4  0
  4 25  1  0
  5  9  4  0
  5 12  4  0
  6 13  1  0
  6 27  1  0
  7 28  4  0
  8 11  4  0
  9 29  4  0
 10 12  4  0
 11 24  1  0
 11 26  4  0
 12 25  1  0
 13 28  1  0
 14 20  4  0
 14 23  4  0
 15 17  4  0
 15 21  4  0
 16 19  4  0
 16 23  4  0
 17 22  4  0
 18 26  4  0
 19 24  4  0
 20 24  4  0
 22 27  4  0
 28 29  4  0
M  END
$$$$

 Created by Python create_sdf_string function

 29 33  0  0  0  0  0  0  0  0999 V2000
   10.7215   -3.3326   17.6437 C   0  0  0  0  0  0  0  0  0  0  0  0
    9.9489   -3.4675   24.6487 N   0  0  0  0  0  0  0  0  0  0  0  0
   10.0172   -4.4740   17.4101 C   0  0  0  0  0  0  0  0  0  0  0  0
    6.9051   -7.9575   16.4222 C   0  0  0  0  0  0  0  0  0  0  0  0
    8.9969   -6.3552   17.9668 N   0  0  0  0  0  0  0  0  0  0  0  0
   10.6702   -3.9051   22.4070 C   0  0  0  0  0  0  0  0  0  0  0  0
   11.0625   -3.0028   18.8894 C   0  0  0  0  0  0  0  0  0  0  0  0
    5.6180   -7.9194   16.1754 O   0  0  0  0  0  0  0  0  0  0  0  0
    9.7259   -5.3080   18.4485 C   0  0  0  0  0  0  0  0  0  0  0  0
    9.4578   -5.0200   16.3036 N   0  0  0  0  0  0  0  0  0  0  0  0
    5.0287   -8.9365   16.8223 C   0  0  0  0  0  0  0  0  0  0  0  0
    8.7742   -6.1498   16.6764 C   0  0  0  0  0  0  0  0  0  0  0  0
   10.9418   -3.4032   21.2053 O   0  0  0  0  0  0  0  0  0  0  0  0
    1.4797   -8.6258   16.2950 C   0  0  0  0  0  0  0  0  0  0  0  0
    9.2861   -1.2743   25.3585 C   0  0  0  0  0  0  0  0  0  0  0  0
    1.8892  -10.3985   17.7511 N   0  0  0  0  0  0  0  0  0  0  0  0
    9.6210   -0.6952   24.0976 C   0  0  0  0  0  0  0  0  0  0  0  0
    7.0792   -9.0217   17.1429 C   0  0  0  0  0  0  0  0  0  0  0  0
    3.1713  -10.1816   17.6634 C   0  0  0  0  0  0  0  0  0  0  0  0
    2.7878   -8.3822   16.2137 C   0  0  0  0  0  0  0  0  0  0  0  0
    9.4601   -2.6590   25.6528 C   0  0  0  0  0  0  0  0  0  0  0  0
   10.1182   -1.5672   23.1165 C   0  0  0  0  0  0  0  0  0  0  0  0
    1.0552   -9.6360   17.0650 C   0  0  0  0  0  0  0  0  0  0  0  0
    3.6519   -9.1783   16.9039 C   0  0  0  0  0  0  0  0  0  0  0  0
    7.8675   -7.0096   15.9415 C   0  0  0  0  0  0  0  0  0  0  0  0
    5.9733   -9.6553   17.3832 N   0  0  0  0  0  0  0  0  0  0  0  0
   10.2411   -2.9363   23.4301 C   0  0  0  0  0  0  0  0  0  0  0  0
   10.7288   -3.8197   19.9525 C   0  0  0  0  0  0  0  0  0  0  0  0
   10.1189   -5.0054   19.6987 C   0  0  0  0  0  0  0  0  0  0  0  0
  1  3  4  0
  1  7  4  0
  2 21  4  0
  2 27  4  0
  3  9  4  0
  3 10  4  0
  4  8  4  0
  4 18  4  0
  4 25  1  0
  5  9  4  0
  5 12  4  0
  6 13  1  0
  6 27  1  0
  7 28  4  0
  8 11  4  0
  9 29  4  0
 10 12  4  0
 11 24  1  0
 11 26  4  0
 12 25  1  0
 13 28  1  0
 14 20  4  0
 14 23  4  0
 15 17  4  0
 15 21  4  0
 16 19  4  0
 16 23  4  0
 17 22  4  0
 18 26  4  0
 19 24  4  0
 20 24  4  0
 22 27  4  0
 28 29  4  0
M  END
$$$$

 Created by Python create_sdf_string function

 29 33  0  0  0  0  0  0  0  0999 V2000
   10.7215   -3.3326   17.6437 C   0  0  0  0  0  0  0  0  0  0  0  0
    9.9489   -3.4675   24.6487 N   0  0  0  0  0  0  0  0  0  0  0  0
   10.0172   -4.4740   17.4101 C   0  0  0  0  0  0  0  0  0  0  0  0
    6.9051   -7.9575   16.4222 C   0  0  0  0  0  0  0  0  0  0  0  0
    8.9969   -6.3552   17.9668 N   0  0  0  0  0  0  0  0  0  0  0  0
   10.6702   -3.9051   22.4070 C   0  0  0  0  0  0  0  0  0  0  0  0
   11.0625   -3.0028   18.8894 C   0  0  0  0  0  0  0  0  0  0  0  0
    5.6180   -7.9194   16.1754 O   0  0  0  0  0  0  0  0  0  0  0  0
    9.7259   -5.3080   18.4485 C   0  0  0  0  0  0  0  0  0  0  0  0
    9.4578   -5.0200   16.3036 N   0  0  0  0  0  0  0  0  0  0  0  0
    5.0287   -8.9365   16.8223 C   0  0  0  0  0  0  0  0  0  0  0  0
    8.7742   -6.1498   16.6764 C   0  0  0  0  0  0  0  0  0  0  0  0
   10.9418   -3.4032   21.2053 O   0  0  0  0  0  0  0  0  0  0  0  0
    1.4797   -8.6258   16.2950 C   0  0  0  0  0  0  0  0  0  0  0  0
    9.2861   -1.2743   25.3585 C   0  0  0  0  0  0  0  0  0  0  0  0
    1.8892  -10.3985   17.7511 N   0  0  0  0  0  0  0  0  0  0  0  0
    9.6210   -0.6952   24.0976 C   0  0  0  0  0  0  0  0  0  0  0  0
    7.0792   -9.0217   17.1429 C   0  0  0  0  0  0  0  0  0  0  0  0
    3.1713  -10.1816   17.6634 C   0  0  0  0  0  0  0  0  0  0  0  0
    2.7878   -8.3822   16.2137 C   0  0  0  0  0  0  0  0  0  0  0  0
    9.4601   -2.6590   25.6528 C   0  0  0  0  0  0  0  0  0  0  0  0
   10.1182   -1.5672   23.1165 C   0  0  0  0  0  0  0  0  0  0  0  0
    1.0552   -9.6360   17.0650 C   0  0  0  0  0  0  0  0  0  0  0  0
    3.6519   -9.1783   16.9039 C   0  0  0  0  0  0  0  0  0  0  0  0
    7.8675   -7.0096   15.9415 C   0  0  0  0  0  0  0  0  0  0  0  0
    5.9733   -9.6553   17.3832 N   0  0  0  0  0  0  0  0  0  0  0  0
   10.2411   -2.9363   23.4301 C   0  0  0  0  0  0  0  0  0  0  0  0
   10.7288   -3.8197   19.9525 C   0  0  0  0  0  0  0  0  0  0  0  0
   10.1189   -5.0054   19.6987 C   0  0  0  0  0  0  0  0  0  0  0  0
  1  3  4  0
  1  7  4  0
  2 21  4  0
  2 27  4  0
  3  9  4  0
  3 10  4  0
  4  8  4  0
  4 18  4  0
  4 25  1  0
  5  9  4  0
  5 12  4  0
  6 13  1  0
  6 27  1  0
  7 28  4  0
  8 11  4  0
  9 29  4  0
 10 12  4  0
 11 24  1  0
 11 26  4  0
 12 25  1  0
 13 28  1  0
 14 20  4  0
 14 23  4  0
 15 17  4  0
 15 21  4  0
 16 19  4  0
 16 23  4  0
 17 22  4  0
 18 26  4  0
 19 24  4  0
 20 24  4  0
 22 27  4  0
 28 29  4  0
M  END
$$$$

 Created by Python create_sdf_string function

 29 33  0  0  0  0  0  0  0  0999 V2000
   10.7215   -3.3326   17.6437 C   0  0  0  0  0  0  0  0  0  0  0  0
    9.9489   -3.4675   24.6487 N   0  0  0  0  0  0  0  0  0  0  0  0
   10.0172   -4.4740   17.4101 C   0  0  0  0  0  0  0  0  0  0  0  0
    6.9051   -7.9575   16.4222 C   0  0  0  0  0  0  0  0  0  0  0  0
    8.9969   -6.3552   17.9668 N   0  0  0  0  0  0  0  0  0  0  0  0
   10.6702   -3.9051   22.4070 C   0  0  0  0  0  0  0  0  0  0  0  0
   11.0625   -3.0028   18.8894 C   0  0  0  0  0  0  0  0  0  0  0  0
    5.6180   -7.9194   16.1754 O   0  0  0  0  0  0  0  0  0  0  0  0
    9.7259   -5.3080   18.4485 C   0  0  0  0  0  0  0  0  0  0  0  0
    9.4578   -5.0200   16.3036 N   0  0  0  0  0  0  0  0  0  0  0  0
    5.0287   -8.9365   16.8223 C   0  0  0  0  0  0  0  0  0  0  0  0
    8.7742   -6.1498   16.6764 C   0  0  0  0  0  0  0  0  0  0  0  0
   10.9418   -3.4032   21.2053 O   0  0  0  0  0  0  0  0  0  0  0  0
    1.4797   -8.6258   16.2950 C   0  0  0  0  0  0  0  0  0  0  0  0
    9.2861   -1.2743   25.3585 C   0  0  0  0  0  0  0  0  0  0  0  0
    1.8892  -10.3985   17.7511 N   0  0  0  0  0  0  0  0  0  0  0  0
    9.6210   -0.6952   24.0976 C   0  0  0  0  0  0  0  0  0  0  0  0
    7.0792   -9.0217   17.1429 C   0  0  0  0  0  0  0  0  0  0  0  0
    3.1713  -10.1816   17.6634 C   0  0  0  0  0  0  0  0  0  0  0  0
    2.7878   -8.3822   16.2137 C   0  0  0  0  0  0  0  0  0  0  0  0
    9.4601   -2.6590   25.6528 C   0  0  0  0  0  0  0  0  0  0  0  0
   10.1182   -1.5672   23.1165 C   0  0  0  0  0  0  0  0  0  0  0  0
    1.0552   -9.6360   17.0650 C   0  0  0  0  0  0  0  0  0  0  0  0
    3.6519   -9.1783   16.9039 C   0  0  0  0  0  0  0  0  0  0  0  0
    7.8675   -7.0096   15.9415 C   0  0  0  0  0  0  0  0  0  0  0  0
    5.9733   -9.6553   17.3832 N   0  0  0  0  0  0  0  0  0  0  0  0
   10.2411   -2.9363   23.4301 C   0  0  0  0  0  0  0  0  0  0  0  0
   10.7288   -3.8197   19.9525 C   0  0  0  0  0  0  0  0  0  0  0  0
   10.1189   -5.0054   19.6987 C   0  0  0  0  0  0  0  0  0  0  0  0
  1  3  4  0
  1  7  4  0
  2 21  4  0
  2 27  4  0
  3  9  4  0
  3 10  4  0
  4  8  4  0
  4 18  4  0
  4 25  1  0
  5  9  4  0
  5 12  4  0
  6 13  1  0
  6 27  1  0
  7 28  4  0
  8 11  4  0
  9 29  4  0
 10 12  4  0
 11 24  1  0
 11 26  4  0
 12 25  1  0
 13 28  1  0
 14 20  4  0
 14 23  4  0
 15 17  4  0
 15 21  4  0
 16 19  4  0
 16 23  4  0
 17 22  4  0
 18 26  4  0
 19 24  4  0
 20 24  4  0
 22 27  4  0
 28 29  4  0
M  END
$$$$

 Created by Python create_sdf_string function

 29 33  0  0  0  0  0  0  0  0999 V2000
   10.7215   -3.3326   17.6437 C   0  0  0  0  0  0  0  0  0  0  0  0
    9.9489   -3.4675   24.6487 N   0  0  0  0  0  0  0  0  0  0  0  0
   10.0172   -4.4740   17.4101 C   0  0  0  0  0  0  0  0  0  0  0  0
    6.9051   -7.9575   16.4222 C   0  0  0  0  0  0  0  0  0  0  0  0
    8.9969   -6.3552   17.9668 N   0  0  0  0  0  0  0  0  0  0  0  0
   10.6702   -3.9051   22.4070 C   0  0  0  0  0  0  0  0  0  0  0  0
   11.0625   -3.0028   18.8894 C   0  0  0  0  0  0  0  0  0  0  0  0
    5.6180   -7.9194   16.1754 O   0  0  0  0  0  0  0  0  0  0  0  0
    9.7259   -5.3080   18.4485 C   0  0  0  0  0  0  0  0  0  0  0  0
    9.4578   -5.0200   16.3036 N   0  0  0  0  0  0  0  0  0  0  0  0
    5.0287   -8.9365   16.8223 C   0  0  0  0  0  0  0  0  0  0  0  0
    8.7742   -6.1498   16.6764 C   0  0  0  0  0  0  0  0  0  0  0  0
   10.9418   -3.4032   21.2053 O   0  0  0  0  0  0  0  0  0  0  0  0
    1.4797   -8.6258   16.2950 C   0  0  0  0  0  0  0  0  0  0  0  0
    9.2861   -1.2743   25.3585 C   0  0  0  0  0  0  0  0  0  0  0  0
    1.8892  -10.3985   17.7511 N   0  0  0  0  0  0  0  0  0  0  0  0
    9.6210   -0.6952   24.0976 C   0  0  0  0  0  0  0  0  0  0  0  0
    7.0792   -9.0217   17.1429 C   0  0  0  0  0  0  0  0  0  0  0  0
    3.1713  -10.1816   17.6634 C   0  0  0  0  0  0  0  0  0  0  0  0
    2.7878   -8.3822   16.2137 C   0  0  0  0  0  0  0  0  0  0  0  0
    9.4601   -2.6590   25.6528 C   0  0  0  0  0  0  0  0  0  0  0  0
   10.1182   -1.5672   23.1165 C   0  0  0  0  0  0  0  0  0  0  0  0
    1.0552   -9.6360   17.0650 C   0  0  0  0  0  0  0  0  0  0  0  0
    3.6519   -9.1783   16.9039 C   0  0  0  0  0  0  0  0  0  0  0  0
    7.8675   -7.0096   15.9415 C   0  0  0  0  0  0  0  0  0  0  0  0
    5.9733   -9.6553   17.3832 N   0  0  0  0  0  0  0  0  0  0  0  0
   10.2411   -2.9363   23.4301 C   0  0  0  0  0  0  0  0  0  0  0  0
   10.7288   -3.8197   19.9525 C   0  0  0  0  0  0  0  0  0  0  0  0
   10.1189   -5.0054   19.6987 C   0  0  0  0  0  0  0  0  0  0  0  0
  1  3  4  0
  1  7  4  0
  2 21  4  0
  2 27  4  0
  3  9  4  0
  3 10  4  0
  4  8  4  0
  4 18  4  0
  4 25  1  0
  5  9  4  0
  5 12  4  0
  6 13  1  0
  6 27  1  0
  7 28  4  0
  8 11  4  0
  9 29  4  0
 10 12  4  0
 11 24  1  0
 11 26  4  0
 12 25  1  0
 13 28  1  0
 14 20  4  0
 14 23  4  0
 15 17  4  0
 15 21  4  0
 16 19  4  0
 16 23  4  0
 17 22  4  0
 18 26  4  0
 19 24  4  0
 20 24  4  0
 22 27  4  0
 28 29  4  0
M  END
$$$$

 Created by Python create_sdf_string function

 29 33  0  0  0  0  0  0  0  0999 V2000
   10.7215   -3.3326   17.6437 C   0  0  0  0  0  0  0  0  0  0  0  0
    9.9489   -3.4675   24.6487 N   0  0  0  0  0  0  0  0  0  0  0  0
   10.0172   -4.4740   17.4101 C   0  0  0  0  0  0  0  0  0  0  0  0
    6.9051   -7.9575   16.4222 C   0  0  0  0  0  0  0  0  0  0  0  0
    8.9969   -6.3552   17.9668 N   0  0  0  0  0  0  0  0  0  0  0  0
   10.6702   -3.9051   22.4070 C   0  0  0  0  0  0  0  0  0  0  0  0
   11.0625   -3.0028   18.8894 C   0  0  0  0  0  0  0  0  0  0  0  0
    5.6180   -7.9194   16.1754 O   0  0  0  0  0  0  0  0  0  0  0  0
    9.7259   -5.3080   18.4485 C   0  0  0  0  0  0  0  0  0  0  0  0
    9.4578   -5.0200   16.3036 N   0  0  0  0  0  0  0  0  0  0  0  0
    5.0287   -8.9365   16.8223 C   0  0  0  0  0  0  0  0  0  0  0  0
    8.7742   -6.1498   16.6764 C   0  0  0  0  0  0  0  0  0  0  0  0
   10.9418   -3.4032   21.2053 O   0  0  0  0  0  0  0  0  0  0  0  0
    1.4797   -8.6258   16.2950 C   0  0  0  0  0  0  0  0  0  0  0  0
    9.2861   -1.2743   25.3585 C   0  0  0  0  0  0  0  0  0  0  0  0
    1.8892  -10.3985   17.7511 N   0  0  0  0  0  0  0  0  0  0  0  0
    9.6210   -0.6952   24.0976 C   0  0  0  0  0  0  0  0  0  0  0  0
    7.0792   -9.0217   17.1429 C   0  0  0  0  0  0  0  0  0  0  0  0
    3.1713  -10.1816   17.6634 C   0  0  0  0  0  0  0  0  0  0  0  0
    2.7878   -8.3822   16.2137 C   0  0  0  0  0  0  0  0  0  0  0  0
    9.4601   -2.6590   25.6528 C   0  0  0  0  0  0  0  0  0  0  0  0
   10.1182   -1.5672   23.1165 C   0  0  0  0  0  0  0  0  0  0  0  0
    1.0552   -9.6360   17.0650 C   0  0  0  0  0  0  0  0  0  0  0  0
    3.6519   -9.1783   16.9039 C   0  0  0  0  0  0  0  0  0  0  0  0
    7.8675   -7.0096   15.9415 C   0  0  0  0  0  0  0  0  0  0  0  0
    5.9733   -9.6553   17.3832 N   0  0  0  0  0  0  0  0  0  0  0  0
   10.2411   -2.9363   23.4301 C   0  0  0  0  0  0  0  0  0  0  0  0
   10.7288   -3.8197   19.9525 C   0  0  0  0  0  0  0  0  0  0  0  0
   10.1189   -5.0054   19.6987 C   0  0  0  0  0  0  0  0  0  0  0  0
  1  3  4  0
  1  7  4  0
  2 21  4  0
  2 27  4  0
  3  9  4  0
  3 10  4  0
  4  8  4  0
  4 18  4  0
  4 25  1  0
  5  9  4  0
  5 12  4  0
  6 13  1  0
  6 27  1  0
  7 28  4  0
  8 11  4  0
  9 29  4  0
 10 12  4  0
 11 24  1  0
 11 26  4  0
 12 25  1  0
 13 28  1  0
 14 20  4  0
 14 23  4  0
 15 17  4  0
 15 21  4  0
 16 19  4  0
 16 23  4  0
 17 22  4  0
 18 26  4  0
 19 24  4  0
 20 24  4  0
 22 27  4  0
 28 29  4  0
M  END
$$$$

 Created by Python create_sdf_string function

 29 33  0  0  0  0  0  0  0  0999 V2000
   10.7215   -3.3326   17.6437 C   0  0  0  0  0  0  0  0  0  0  0  0
    9.9489   -3.4675   24.6487 N   0  0  0  0  0  0  0  0  0  0  0  0
   10.0172   -4.4740   17.4101 C   0  0  0  0  0  0  0  0  0  0  0  0
    6.9051   -7.9575   16.4222 C   0  0  0  0  0  0  0  0  0  0  0  0
    8.9969   -6.3552   17.9668 N   0  0  0  0  0  0  0  0  0  0  0  0
   10.6702   -3.9051   22.4070 C   0  0  0  0  0  0  0  0  0  0  0  0
   11.0625   -3.0028   18.8894 C   0  0  0  0  0  0  0  0  0  0  0  0
    5.6180   -7.9194   16.1754 O   0  0  0  0  0  0  0  0  0  0  0  0
    9.7259   -5.3080   18.4485 C   0  0  0  0  0  0  0  0  0  0  0  0
    9.4578   -5.0200   16.3036 N   0  0  0  0  0  0  0  0  0  0  0  0
    5.0287   -8.9365   16.8223 C   0  0  0  0  0  0  0  0  0  0  0  0
    8.7742   -6.1498   16.6764 C   0  0  0  0  0  0  0  0  0  0  0  0
   10.9418   -3.4032   21.2053 O   0  0  0  0  0  0  0  0  0  0  0  0
    1.4797   -8.6258   16.2950 C   0  0  0  0  0  0  0  0  0  0  0  0
    9.2861   -1.2743   25.3585 C   0  0  0  0  0  0  0  0  0  0  0  0
    1.8892  -10.3985   17.7511 N   0  0  0  0  0  0  0  0  0  0  0  0
    9.6210   -0.6952   24.0976 C   0  0  0  0  0  0  0  0  0  0  0  0
    7.0792   -9.0217   17.1429 C   0  0  0  0  0  0  0  0  0  0  0  0
    3.1713  -10.1816   17.6634 C   0  0  0  0  0  0  0  0  0  0  0  0
    2.7878   -8.3822   16.2137 C   0  0  0  0  0  0  0  0  0  0  0  0
    9.4601   -2.6590   25.6528 C   0  0  0  0  0  0  0  0  0  0  0  0
   10.1182   -1.5672   23.1165 C   0  0  0  0  0  0  0  0  0  0  0  0
    1.0552   -9.6360   17.0650 C   0  0  0  0  0  0  0  0  0  0  0  0
    3.6519   -9.1783   16.9039 C   0  0  0  0  0  0  0  0  0  0  0  0
    7.8675   -7.0096   15.9415 C   0  0  0  0  0  0  0  0  0  0  0  0
    5.9733   -9.6553   17.3832 N   0  0  0  0  0  0  0  0  0  0  0  0
   10.2411   -2.9363   23.4301 C   0  0  0  0  0  0  0  0  0  0  0  0
   10.7288   -3.8197   19.9525 C   0  0  0  0  0  0  0  0  0  0  0  0
   10.1189   -5.0054   19.6987 C   0  0  0  0  0  0  0  0  0  0  0  0
  1  3  4  0
  1  7  4  0
  2 21  4  0
  2 27  4  0
  3  9  4  0
  3 10  4  0
  4  8  4  0
  4 18  4  0
  4 25  1  0
  5  9  4  0
  5 12  4  0
  6 13  1  0
  6 27  1  0
  7 28  4  0
  8 11  4  0
  9 29  4  0
 10 12  4  0
 11 24  1  0
 11 26  4  0
 12 25  1  0
 13 28  1  0
 14 20  4  0
 14 23  4  0
 15 17  4  0
 15 21  4  0
 16 19  4  0
 16 23  4  0
 17 22  4  0
 18 26  4  0
 19 24  4  0
 20 24  4  0
 22 27  4  0
 28 29  4  0
M  END
$$$$

 Created by Python create_sdf_string function

 29 33  0  0  0  0  0  0  0  0999 V2000
   10.7215   -3.3326   17.6437 C   0  0  0  0  0  0  0  0  0  0  0  0
    9.9489   -3.4675   24.6487 N   0  0  0  0  0  0  0  0  0  0  0  0
   10.0172   -4.4740   17.4101 C   0  0  0  0  0  0  0  0  0  0  0  0
    6.9051   -7.9575   16.4222 C   0  0  0  0  0  0  0  0  0  0  0  0
    8.9969   -6.3552   17.9668 N   0  0  0  0  0  0  0  0  0  0  0  0
   10.6702   -3.9051   22.4070 C   0  0  0  0  0  0  0  0  0  0  0  0
   11.0625   -3.0028   18.8894 C   0  0  0  0  0  0  0  0  0  0  0  0
    5.6180   -7.9194   16.1754 O   0  0  0  0  0  0  0  0  0  0  0  0
    9.7259   -5.3080   18.4485 C   0  0  0  0  0  0  0  0  0  0  0  0
    9.4578   -5.0200   16.3036 N   0  0  0  0  0  0  0  0  0  0  0  0
    5.0287   -8.9365   16.8223 C   0  0  0  0  0  0  0  0  0  0  0  0
    8.7742   -6.1498   16.6764 C   0  0  0  0  0  0  0  0  0  0  0  0
   10.9418   -3.4032   21.2053 O   0  0  0  0  0  0  0  0  0  0  0  0
    1.4797   -8.6258   16.2950 C   0  0  0  0  0  0  0  0  0  0  0  0
    9.2861   -1.2743   25.3585 C   0  0  0  0  0  0  0  0  0  0  0  0
    1.8892  -10.3985   17.7511 N   0  0  0  0  0  0  0  0  0  0  0  0
    9.6210   -0.6952   24.0976 C   0  0  0  0  0  0  0  0  0  0  0  0
    7.0792   -9.0217   17.1429 C   0  0  0  0  0  0  0  0  0  0  0  0
    3.1713  -10.1816   17.6634 C   0  0  0  0  0  0  0  0  0  0  0  0
    2.7878   -8.3822   16.2137 C   0  0  0  0  0  0  0  0  0  0  0  0
    9.4601   -2.6590   25.6528 C   0  0  0  0  0  0  0  0  0  0  0  0
   10.1182   -1.5672   23.1165 C   0  0  0  0  0  0  0  0  0  0  0  0
    1.0552   -9.6360   17.0650 C   0  0  0  0  0  0  0  0  0  0  0  0
    3.6519   -9.1783   16.9039 C   0  0  0  0  0  0  0  0  0  0  0  0
    7.8675   -7.0096   15.9415 C   0  0  0  0  0  0  0  0  0  0  0  0
    5.9733   -9.6553   17.3832 N   0  0  0  0  0  0  0  0  0  0  0  0
   10.2411   -2.9363   23.4301 C   0  0  0  0  0  0  0  0  0  0  0  0
   10.7288   -3.8197   19.9525 C   0  0  0  0  0  0  0  0  0  0  0  0
   10.1189   -5.0054   19.6987 C   0  0  0  0  0  0  0  0  0  0  0  0
  1  3  4  0
  1  7  4  0
  2 21  4  0
  2 27  4  0
  3  9  4  0
  3 10  4  0
  4  8  4  0
  4 18  4  0
  4 25  1  0
  5  9  4  0
  5 12  4  0
  6 13  1  0
  6 27  1  0
  7 28  4  0
  8 11  4  0
  9 29  4  0
 10 12  4  0
 11 24  1  0
 11 26  4  0
 12 25  1  0
 13 28  1  0
 14 20  4  0
 14 23  4  0
 15 17  4  0
 15 21  4  0
 16 19  4  0
 16 23  4  0
 17 22  4  0
 18 26  4  0
 19 24  4  0
 20 24  4  0
 22 27  4  0
 28 29  4  0
M  END
$$$$

 Created by Python create_sdf_string function

 29 33  0  0  0  0  0  0  0  0999 V2000
   10.7215   -3.3326   17.6437 C   0  0  0  0  0  0  0  0  0  0  0  0
    9.9489   -3.4675   24.6487 N   0  0  0  0  0  0  0  0  0  0  0  0
   10.0172   -4.4740   17.4101 C   0  0  0  0  0  0  0  0  0  0  0  0
    6.9051   -7.9575   16.4222 C   0  0  0  0  0  0  0  0  0  0  0  0
    8.9969   -6.3552   17.9668 N   0  0  0  0  0  0  0  0  0  0  0  0
   10.6702   -3.9051   22.4070 C   0  0  0  0  0  0  0  0  0  0  0  0
   11.0625   -3.0028   18.8894 C   0  0  0  0  0  0  0  0  0  0  0  0
    5.6180   -7.9194   16.1754 O   0  0  0  0  0  0  0  0  0  0  0  0
    9.7259   -5.3080   18.4485 C   0  0  0  0  0  0  0  0  0  0  0  0
    9.4578   -5.0200   16.3036 N   0  0  0  0  0  0  0  0  0  0  0  0
    5.0287   -8.9365   16.8223 C   0  0  0  0  0  0  0  0  0  0  0  0
    8.7742   -6.1498   16.6764 C   0  0  0  0  0  0  0  0  0  0  0  0
   10.9418   -3.4032   21.2053 O   0  0  0  0  0  0  0  0  0  0  0  0
    1.4797   -8.6258   16.2950 C   0  0  0  0  0  0  0  0  0  0  0  0
    9.2861   -1.2743   25.3585 C   0  0  0  0  0  0  0  0  0  0  0  0
    1.8892  -10.3985   17.7511 N   0  0  0  0  0  0  0  0  0  0  0  0
    9.6210   -0.6952   24.0976 C   0  0  0  0  0  0  0  0  0  0  0  0
    7.0792   -9.0217   17.1429 C   0  0  0  0  0  0  0  0  0  0  0  0
    3.1713  -10.1816   17.6634 C   0  0  0  0  0  0  0  0  0  0  0  0
    2.7878   -8.3822   16.2137 C   0  0  0  0  0  0  0  0  0  0  0  0
    9.4601   -2.6590   25.6528 C   0  0  0  0  0  0  0  0  0  0  0  0
   10.1182   -1.5672   23.1165 C   0  0  0  0  0  0  0  0  0  0  0  0
    1.0552   -9.6360   17.0650 C   0  0  0  0  0  0  0  0  0  0  0  0
    3.6519   -9.1783   16.9039 C   0  0  0  0  0  0  0  0  0  0  0  0
    7.8675   -7.0096   15.9415 C   0  0  0  0  0  0  0  0  0  0  0  0
    5.9733   -9.6553   17.3832 N   0  0  0  0  0  0  0  0  0  0  0  0
   10.2411   -2.9363   23.4301 C   0  0  0  0  0  0  0  0  0  0  0  0
   10.7288   -3.8197   19.9525 C   0  0  0  0  0  0  0  0  0  0  0  0
   10.1189   -5.0054   19.6987 C   0  0  0  0  0  0  0  0  0  0  0  0
  1  3  4  0
  1  7  4  0
  2 21  4  0
  2 27  4  0
  3  9  4  0
  3 10  4  0
  4  8  4  0
  4 18  4  0
  4 25  1  0
  5  9  4  0
  5 12  4  0
  6 13  1  0
  6 27  1  0
  7 28  4  0
  8 11  4  0
  9 29  4  0
 10 12  4  0
 11 24  1  0
 11 26  4  0
 12 25  1  0
 13 28  1  0
 14 20  4  0
 14 23  4  0
 15 17  4  0
 15 21  4  0
 16 19  4  0
 16 23  4  0
 17 22  4  0
 18 26  4  0
 19 24  4  0
 20 24  4  0
 22 27  4  0
 28 29  4  0
M  END
$$$$

 Created by Python create_sdf_string function

 29 33  0  0  0  0  0  0  0  0999 V2000
   10.7215   -3.3326   17.6437 C   0  0  0  0  0  0  0  0  0  0  0  0
    9.9489   -3.4675   24.6487 N   0  0  0  0  0  0  0  0  0  0  0  0
   10.0172   -4.4740   17.4101 C   0  0  0  0  0  0  0  0  0  0  0  0
    6.9051   -7.9575   16.4222 C   0  0  0  0  0  0  0  0  0  0  0  0
    8.9969   -6.3552   17.9668 N   0  0  0  0  0  0  0  0  0  0  0  0
   10.6702   -3.9051   22.4070 C   0  0  0  0  0  0  0  0  0  0  0  0
   11.0625   -3.0028   18.8894 C   0  0  0  0  0  0  0  0  0  0  0  0
    5.6180   -7.9194   16.1754 O   0  0  0  0  0  0  0  0  0  0  0  0
    9.7259   -5.3080   18.4485 C   0  0  0  0  0  0  0  0  0  0  0  0
    9.4578   -5.0200   16.3036 N   0  0  0  0  0  0  0  0  0  0  0  0
    5.0287   -8.9365   16.8223 C   0  0  0  0  0  0  0  0  0  0  0  0
    8.7742   -6.1498   16.6764 C   0  0  0  0  0  0  0  0  0  0  0  0
   10.9418   -3.4032   21.2053 O   0  0  0  0  0  0  0  0  0  0  0  0
    1.4797   -8.6258   16.2950 C   0  0  0  0  0  0  0  0  0  0  0  0
    9.2861   -1.2743   25.3585 C   0  0  0  0  0  0  0  0  0  0  0  0
    1.8892  -10.3985   17.7511 N   0  0  0  0  0  0  0  0  0  0  0  0
    9.6210   -0.6952   24.0976 C   0  0  0  0  0  0  0  0  0  0  0  0
    7.0792   -9.0217   17.1429 C   0  0  0  0  0  0  0  0  0  0  0  0
    3.1713  -10.1816   17.6634 C   0  0  0  0  0  0  0  0  0  0  0  0
    2.7878   -8.3822   16.2137 C   0  0  0  0  0  0  0  0  0  0  0  0
    9.4601   -2.6590   25.6528 C   0  0  0  0  0  0  0  0  0  0  0  0
   10.1182   -1.5672   23.1165 C   0  0  0  0  0  0  0  0  0  0  0  0
    1.0552   -9.6360   17.0650 C   0  0  0  0  0  0  0  0  0  0  0  0
    3.6519   -9.1783   16.9039 C   0  0  0  0  0  0  0  0  0  0  0  0
    7.8675   -7.0096   15.9415 C   0  0  0  0  0  0  0  0  0  0  0  0
    5.9733   -9.6553   17.3832 N   0  0  0  0  0  0  0  0  0  0  0  0
   10.2411   -2.9363   23.4301 C   0  0  0  0  0  0  0  0  0  0  0  0
   10.7288   -3.8197   19.9525 C   0  0  0  0  0  0  0  0  0  0  0  0
   10.1189   -5.0054   19.6987 C   0  0  0  0  0  0  0  0  0  0  0  0
  1  3  4  0
  1  7  4  0
  2 21  4  0
  2 27  4  0
  3  9  4  0
  3 10  4  0
  4  8  4  0
  4 18  4  0
  4 25  1  0
  5  9  4  0
  5 12  4  0
  6 13  1  0
  6 27  1  0
  7 28  4  0
  8 11  4  0
  9 29  4  0
 10 12  4  0
 11 24  1  0
 11 26  4  0
 12 25  1  0
 13 28  1  0
 14 20  4  0
 14 23  4  0
 15 17  4  0
 15 21  4  0
 16 19  4  0
 16 23  4  0
 17 22  4  0
 18 26  4  0
 19 24  4  0
 20 24  4  0
 22 27  4  0
 28 29  4  0
M  END
$$$$

 Created by Python create_sdf_string function

 29 33  0  0  0  0  0  0  0  0999 V2000
   10.7215   -3.3326   17.6437 C   0  0  0  0  0  0  0  0  0  0  0  0
    9.9489   -3.4675   24.6487 N   0  0  0  0  0  0  0  0  0  0  0  0
   10.0172   -4.4740   17.4101 C   0  0  0  0  0  0  0  0  0  0  0  0
    6.9051   -7.9575   16.4222 C   0  0  0  0  0  0  0  0  0  0  0  0
    8.9969   -6.3552   17.9668 N   0  0  0  0  0  0  0  0  0  0  0  0
   10.6702   -3.9051   22.4070 C   0  0  0  0  0  0  0  0  0  0  0  0
   11.0625   -3.0028   18.8894 C   0  0  0  0  0  0  0  0  0  0  0  0
    5.6180   -7.9194   16.1754 O   0  0  0  0  0  0  0  0  0  0  0  0
    9.7259   -5.3080   18.4485 C   0  0  0  0  0  0  0  0  0  0  0  0
    9.4578   -5.0200   16.3036 N   0  0  0  0  0  0  0  0  0  0  0  0
    5.0287   -8.9365   16.8223 C   0  0  0  0  0  0  0  0  0  0  0  0
    8.7742   -6.1498   16.6764 C   0  0  0  0  0  0  0  0  0  0  0  0
   10.9418   -3.4032   21.2053 O   0  0  0  0  0  0  0  0  0  0  0  0
    1.4797   -8.6258   16.2950 C   0  0  0  0  0  0  0  0  0  0  0  0
    9.2861   -1.2743   25.3585 C   0  0  0  0  0  0  0  0  0  0  0  0
    1.8892  -10.3985   17.7511 N   0  0  0  0  0  0  0  0  0  0  0  0
    9.6210   -0.6952   24.0976 C   0  0  0  0  0  0  0  0  0  0  0  0
    7.0792   -9.0217   17.1429 C   0  0  0  0  0  0  0  0  0  0  0  0
    3.1713  -10.1816   17.6634 C   0  0  0  0  0  0  0  0  0  0  0  0
    2.7878   -8.3822   16.2137 C   0  0  0  0  0  0  0  0  0  0  0  0
    9.4601   -2.6590   25.6528 C   0  0  0  0  0  0  0  0  0  0  0  0
   10.1182   -1.5672   23.1165 C   0  0  0  0  0  0  0  0  0  0  0  0
    1.0552   -9.6360   17.0650 C   0  0  0  0  0  0  0  0  0  0  0  0
    3.6519   -9.1783   16.9039 C   0  0  0  0  0  0  0  0  0  0  0  0
    7.8675   -7.0096   15.9415 C   0  0  0  0  0  0  0  0  0  0  0  0
    5.9733   -9.6553   17.3832 N   0  0  0  0  0  0  0  0  0  0  0  0
   10.2411   -2.9363   23.4301 C   0  0  0  0  0  0  0  0  0  0  0  0
   10.7288   -3.8197   19.9525 C   0  0  0  0  0  0  0  0  0  0  0  0
   10.1189   -5.0054   19.6987 C   0  0  0  0  0  0  0  0  0  0  0  0
  1  3  4  0
  1  7  4  0
  2 21  4  0
  2 27  4  0
  3  9  4  0
  3 10  4  0
  4  8  4  0
  4 18  4  0
  4 25  1  0
  5  9  4  0
  5 12  4  0
  6 13  1  0
  6 27  1  0
  7 28  4  0
  8 11  4  0
  9 29  4  0
 10 12  4  0
 11 24  1  0
 11 26  4  0
 12 25  1  0
 13 28  1  0
 14 20  4  0
 14 23  4  0
 15 17  4  0
 15 21  4  0
 16 19  4  0
 16 23  4  0
 17 22  4  0
 18 26  4  0
 19 24  4  0
 20 24  4  0
 22 27  4  0
 28 29  4  0
M  END
$$$$

 Created by Python create_sdf_string function

 29 33  0  0  0  0  0  0  0  0999 V2000
   10.7215   -3.3326   17.6437 C   0  0  0  0  0  0  0  0  0  0  0  0
    9.9489   -3.4675   24.6487 N   0  0  0  0  0  0  0  0  0  0  0  0
   10.0172   -4.4740   17.4101 C   0  0  0  0  0  0  0  0  0  0  0  0
    6.9051   -7.9575   16.4222 C   0  0  0  0  0  0  0  0  0  0  0  0
    8.9969   -6.3552   17.9668 N   0  0  0  0  0  0  0  0  0  0  0  0
   10.6702   -3.9051   22.4070 C   0  0  0  0  0  0  0  0  0  0  0  0
   11.0625   -3.0028   18.8894 C   0  0  0  0  0  0  0  0  0  0  0  0
    5.6180   -7.9194   16.1754 O   0  0  0  0  0  0  0  0  0  0  0  0
    9.7259   -5.3080   18.4485 C   0  0  0  0  0  0  0  0  0  0  0  0
    9.4578   -5.0200   16.3036 N   0  0  0  0  0  0  0  0  0  0  0  0
    5.0287   -8.9365   16.8223 C   0  0  0  0  0  0  0  0  0  0  0  0
    8.7742   -6.1498   16.6764 C   0  0  0  0  0  0  0  0  0  0  0  0
   10.9418   -3.4032   21.2053 O   0  0  0  0  0  0  0  0  0  0  0  0
    1.4797   -8.6258   16.2950 C   0  0  0  0  0  0  0  0  0  0  0  0
    9.2861   -1.2743   25.3585 C   0  0  0  0  0  0  0  0  0  0  0  0
    1.8892  -10.3985   17.7511 N   0  0  0  0  0  0  0  0  0  0  0  0
    9.6210   -0.6952   24.0976 C   0  0  0  0  0  0  0  0  0  0  0  0
    7.0792   -9.0217   17.1429 C   0  0  0  0  0  0  0  0  0  0  0  0
    3.1713  -10.1816   17.6634 C   0  0  0  0  0  0  0  0  0  0  0  0
    2.7878   -8.3822   16.2137 C   0  0  0  0  0  0  0  0  0  0  0  0
    9.4601   -2.6590   25.6528 C   0  0  0  0  0  0  0  0  0  0  0  0
   10.1182   -1.5672   23.1165 C   0  0  0  0  0  0  0  0  0  0  0  0
    1.0552   -9.6360   17.0650 C   0  0  0  0  0  0  0  0  0  0  0  0
    3.6519   -9.1783   16.9039 C   0  0  0  0  0  0  0  0  0  0  0  0
    7.8675   -7.0096   15.9415 C   0  0  0  0  0  0  0  0  0  0  0  0
    5.9733   -9.6553   17.3832 N   0  0  0  0  0  0  0  0  0  0  0  0
   10.2411   -2.9363   23.4301 C   0  0  0  0  0  0  0  0  0  0  0  0
   10.7288   -3.8197   19.9525 C   0  0  0  0  0  0  0  0  0  0  0  0
   10.1189   -5.0054   19.6987 C   0  0  0  0  0  0  0  0  0  0  0  0
  1  3  4  0
  1  7  4  0
  2 21  4  0
  2 27  4  0
  3  9  4  0
  3 10  4  0
  4  8  4  0
  4 18  4  0
  4 25  1  0
  5  9  4  0
  5 12  4  0
  6 13  1  0
  6 27  1  0
  7 28  4  0
  8 11  4  0
  9 29  4  0
 10 12  4  0
 11 24  1  0
 11 26  4  0
 12 25  1  0
 13 28  1  0
 14 20  4  0
 14 23  4  0
 15 17  4  0
 15 21  4  0
 16 19  4  0
 16 23  4  0
 17 22  4  0
 18 26  4  0
 19 24  4  0
 20 24  4  0
 22 27  4  0
 28 29  4  0
M  END
$$$$

 Created by Python create_sdf_string function

 29 33  0  0  0  0  0  0  0  0999 V2000
   10.7215   -3.3326   17.6437 C   0  0  0  0  0  0  0  0  0  0  0  0
    9.9489   -3.4675   24.6487 N   0  0  0  0  0  0  0  0  0  0  0  0
   10.0172   -4.4740   17.4101 C   0  0  0  0  0  0  0  0  0  0  0  0
    6.9051   -7.9575   16.4222 C   0  0  0  0  0  0  0  0  0  0  0  0
    8.9969   -6.3552   17.9668 N   0  0  0  0  0  0  0  0  0  0  0  0
   10.6702   -3.9051   22.4070 C   0  0  0  0  0  0  0  0  0  0  0  0
   11.0625   -3.0028   18.8894 C   0  0  0  0  0  0  0  0  0  0  0  0
    5.6180   -7.9194   16.1754 O   0  0  0  0  0  0  0  0  0  0  0  0
    9.7259   -5.3080   18.4485 C   0  0  0  0  0  0  0  0  0  0  0  0
    9.4578   -5.0200   16.3036 N   0  0  0  0  0  0  0  0  0  0  0  0
    5.0287   -8.9365   16.8223 C   0  0  0  0  0  0  0  0  0  0  0  0
    8.7742   -6.1498   16.6764 C   0  0  0  0  0  0  0  0  0  0  0  0
   10.9418   -3.4032   21.2053 O   0  0  0  0  0  0  0  0  0  0  0  0
    1.4797   -8.6258   16.2950 C   0  0  0  0  0  0  0  0  0  0  0  0
    9.2861   -1.2743   25.3585 C   0  0  0  0  0  0  0  0  0  0  0  0
    1.8892  -10.3985   17.7511 N   0  0  0  0  0  0  0  0  0  0  0  0
    9.6210   -0.6952   24.0976 C   0  0  0  0  0  0  0  0  0  0  0  0
    7.0792   -9.0217   17.1429 C   0  0  0  0  0  0  0  0  0  0  0  0
    3.1713  -10.1816   17.6634 C   0  0  0  0  0  0  0  0  0  0  0  0
    2.7878   -8.3822   16.2137 C   0  0  0  0  0  0  0  0  0  0  0  0
    9.4601   -2.6590   25.6528 C   0  0  0  0  0  0  0  0  0  0  0  0
   10.1182   -1.5672   23.1165 C   0  0  0  0  0  0  0  0  0  0  0  0
    1.0552   -9.6360   17.0650 C   0  0  0  0  0  0  0  0  0  0  0  0
    3.6519   -9.1783   16.9039 C   0  0  0  0  0  0  0  0  0  0  0  0
    7.8675   -7.0096   15.9415 C   0  0  0  0  0  0  0  0  0  0  0  0
    5.9733   -9.6553   17.3832 N   0  0  0  0  0  0  0  0  0  0  0  0
   10.2411   -2.9363   23.4301 C   0  0  0  0  0  0  0  0  0  0  0  0
   10.7288   -3.8197   19.9525 C   0  0  0  0  0  0  0  0  0  0  0  0
   10.1189   -5.0054   19.6987 C   0  0  0  0  0  0  0  0  0  0  0  0
  1  3  4  0
  1  7  4  0
  2 21  4  0
  2 27  4  0
  3  9  4  0
  3 10  4  0
  4  8  4  0
  4 18  4  0
  4 25  1  0
  5  9  4  0
  5 12  4  0
  6 13  1  0
  6 27  1  0
  7 28  4  0
  8 11  4  0
  9 29  4  0
 10 12  4  0
 11 24  1  0
 11 26  4  0
 12 25  1  0
 13 28  1  0
 14 20  4  0
 14 23  4  0
 15 17  4  0
 15 21  4  0
 16 19  4  0
 16 23  4  0
 17 22  4  0
 18 26  4  0
 19 24  4  0
 20 24  4  0
 22 27  4  0
 28 29  4  0
M  END
$$$$

 Created by Python create_sdf_string function

 29 33  0  0  0  0  0  0  0  0999 V2000
   10.7215   -3.3326   17.6437 C   0  0  0  0  0  0  0  0  0  0  0  0
    9.9489   -3.4675   24.6487 N   0  0  0  0  0  0  0  0  0  0  0  0
   10.0172   -4.4740   17.4101 C   0  0  0  0  0  0  0  0  0  0  0  0
    6.9051   -7.9575   16.4222 C   0  0  0  0  0  0  0  0  0  0  0  0
    8.9969   -6.3552   17.9668 N   0  0  0  0  0  0  0  0  0  0  0  0
   10.6702   -3.9051   22.4070 C   0  0  0  0  0  0  0  0  0  0  0  0
   11.0625   -3.0028   18.8894 C   0  0  0  0  0  0  0  0  0  0  0  0
    5.6180   -7.9194   16.1754 O   0  0  0  0  0  0  0  0  0  0  0  0
    9.7259   -5.3080   18.4485 C   0  0  0  0  0  0  0  0  0  0  0  0
    9.4578   -5.0200   16.3036 N   0  0  0  0  0  0  0  0  0  0  0  0
    5.0287   -8.9365   16.8223 C   0  0  0  0  0  0  0  0  0  0  0  0
    8.7742   -6.1498   16.6764 C   0  0  0  0  0  0  0  0  0  0  0  0
   10.9418   -3.4032   21.2053 O   0  0  0  0  0  0  0  0  0  0  0  0
    1.4797   -8.6258   16.2950 C   0  0  0  0  0  0  0  0  0  0  0  0
    9.2861   -1.2743   25.3585 C   0  0  0  0  0  0  0  0  0  0  0  0
    1.8892  -10.3985   17.7511 N   0  0  0  0  0  0  0  0  0  0  0  0
    9.6210   -0.6952   24.0976 C   0  0  0  0  0  0  0  0  0  0  0  0
    7.0792   -9.0217   17.1429 C   0  0  0  0  0  0  0  0  0  0  0  0
    3.1713  -10.1816   17.6634 C   0  0  0  0  0  0  0  0  0  0  0  0
    2.7878   -8.3822   16.2137 C   0  0  0  0  0  0  0  0  0  0  0  0
    9.4601   -2.6590   25.6528 C   0  0  0  0  0  0  0  0  0  0  0  0
   10.1182   -1.5672   23.1165 C   0  0  0  0  0  0  0  0  0  0  0  0
    1.0552   -9.6360   17.0650 C   0  0  0  0  0  0  0  0  0  0  0  0
    3.6519   -9.1783   16.9039 C   0  0  0  0  0  0  0  0  0  0  0  0
    7.8675   -7.0096   15.9415 C   0  0  0  0  0  0  0  0  0  0  0  0
    5.9733   -9.6553   17.3832 N   0  0  0  0  0  0  0  0  0  0  0  0
   10.2411   -2.9363   23.4301 C   0  0  0  0  0  0  0  0  0  0  0  0
   10.7288   -3.8197   19.9525 C   0  0  0  0  0  0  0  0  0  0  0  0
   10.1189   -5.0054   19.6987 C   0  0  0  0  0  0  0  0  0  0  0  0
  1  3  4  0
  1  7  4  0
  2 21  4  0
  2 27  4  0
  3  9  4  0
  3 10  4  0
  4  8  4  0
  4 18  4  0
  4 25  1  0
  5  9  4  0
  5 12  4  0
  6 13  1  0
  6 27  1  0
  7 28  4  0
  8 11  4  0
  9 29  4  0
 10 12  4  0
 11 24  1  0
 11 26  4  0
 12 25  1  0
 13 28  1  0
 14 20  4  0
 14 23  4  0
 15 17  4  0
 15 21  4  0
 16 19  4  0
 16 23  4  0
 17 22  4  0
 18 26  4  0
 19 24  4  0
 20 24  4  0
 22 27  4  0
 28 29  4  0
M  END
$$$$

 Created by Python create_sdf_string function

 29 33  0  0  0  0  0  0  0  0999 V2000
   10.7215   -3.3326   17.6437 C   0  0  0  0  0  0  0  0  0  0  0  0
    9.9489   -3.4675   24.6487 N   0  0  0  0  0  0  0  0  0  0  0  0
   10.0172   -4.4740   17.4101 C   0  0  0  0  0  0  0  0  0  0  0  0
    6.9051   -7.9575   16.4222 C   0  0  0  0  0  0  0  0  0  0  0  0
    8.9969   -6.3552   17.9668 N   0  0  0  0  0  0  0  0  0  0  0  0
   10.6702   -3.9051   22.4070 C   0  0  0  0  0  0  0  0  0  0  0  0
   11.0625   -3.0028   18.8894 C   0  0  0  0  0  0  0  0  0  0  0  0
    5.6180   -7.9194   16.1754 O   0  0  0  0  0  0  0  0  0  0  0  0
    9.7259   -5.3080   18.4485 C   0  0  0  0  0  0  0  0  0  0  0  0
    9.4578   -5.0200   16.3036 N   0  0  0  0  0  0  0  0  0  0  0  0
    5.0287   -8.9365   16.8223 C   0  0  0  0  0  0  0  0  0  0  0  0
    8.7742   -6.1498   16.6764 C   0  0  0  0  0  0  0  0  0  0  0  0
   10.9418   -3.4032   21.2053 O   0  0  0  0  0  0  0  0  0  0  0  0
    1.4797   -8.6258   16.2950 C   0  0  0  0  0  0  0  0  0  0  0  0
    9.2861   -1.2743   25.3585 C   0  0  0  0  0  0  0  0  0  0  0  0
    1.8892  -10.3985   17.7511 N   0  0  0  0  0  0  0  0  0  0  0  0
    9.6210   -0.6952   24.0976 C   0  0  0  0  0  0  0  0  0  0  0  0
    7.0792   -9.0217   17.1429 C   0  0  0  0  0  0  0  0  0  0  0  0
    3.1713  -10.1816   17.6634 C   0  0  0  0  0  0  0  0  0  0  0  0
    2.7878   -8.3822   16.2137 C   0  0  0  0  0  0  0  0  0  0  0  0
    9.4601   -2.6590   25.6528 C   0  0  0  0  0  0  0  0  0  0  0  0
   10.1182   -1.5672   23.1165 C   0  0  0  0  0  0  0  0  0  0  0  0
    1.0552   -9.6360   17.0650 C   0  0  0  0  0  0  0  0  0  0  0  0
    3.6519   -9.1783   16.9039 C   0  0  0  0  0  0  0  0  0  0  0  0
    7.8675   -7.0096   15.9415 C   0  0  0  0  0  0  0  0  0  0  0  0
    5.9733   -9.6553   17.3832 N   0  0  0  0  0  0  0  0  0  0  0  0
   10.2411   -2.9363   23.4301 C   0  0  0  0  0  0  0  0  0  0  0  0
   10.7288   -3.8197   19.9525 C   0  0  0  0  0  0  0  0  0  0  0  0
   10.1189   -5.0054   19.6987 C   0  0  0  0  0  0  0  0  0  0  0  0
  1  3  4  0
  1  7  4  0
  2 21  4  0
  2 27  4  0
  3  9  4  0
  3 10  4  0
  4  8  4  0
  4 18  4  0
  4 25  1  0
  5  9  4  0
  5 12  4  0
  6 13  1  0
  6 27  1  0
  7 28  4  0
  8 11  4  0
  9 29  4  0
 10 12  4  0
 11 24  1  0
 11 26  4  0
 12 25  1  0
 13 28  1  0
 14 20  4  0
 14 23  4  0
 15 17  4  0
 15 21  4  0
 16 19  4  0
 16 23  4  0
 17 22  4  0
 18 26  4  0
 19 24  4  0
 20 24  4  0
 22 27  4  0
 28 29  4  0
M  END
$$$$

 Created by Python create_sdf_string function

 29 33  0  0  0  0  0  0  0  0999 V2000
   10.7215   -3.3326   17.6437 C   0  0  0  0  0  0  0  0  0  0  0  0
    9.9489   -3.4675   24.6487 N   0  0  0  0  0  0  0  0  0  0  0  0
   10.0172   -4.4740   17.4101 C   0  0  0  0  0  0  0  0  0  0  0  0
    6.9051   -7.9575   16.4222 C   0  0  0  0  0  0  0  0  0  0  0  0
    8.9969   -6.3552   17.9668 N   0  0  0  0  0  0  0  0  0  0  0  0
   10.6702   -3.9051   22.4070 C   0  0  0  0  0  0  0  0  0  0  0  0
   11.0625   -3.0028   18.8894 C   0  0  0  0  0  0  0  0  0  0  0  0
    5.6180   -7.9194   16.1754 O   0  0  0  0  0  0  0  0  0  0  0  0
    9.7259   -5.3080   18.4485 C   0  0  0  0  0  0  0  0  0  0  0  0
    9.4578   -5.0200   16.3036 N   0  0  0  0  0  0  0  0  0  0  0  0
    5.0287   -8.9365   16.8223 C   0  0  0  0  0  0  0  0  0  0  0  0
    8.7742   -6.1498   16.6764 C   0  0  0  0  0  0  0  0  0  0  0  0
   10.9418   -3.4032   21.2053 O   0  0  0  0  0  0  0  0  0  0  0  0
    1.4797   -8.6258   16.2950 C   0  0  0  0  0  0  0  0  0  0  0  0
    9.2861   -1.2743   25.3585 C   0  0  0  0  0  0  0  0  0  0  0  0
    1.8892  -10.3985   17.7511 N   0  0  0  0  0  0  0  0  0  0  0  0
    9.6210   -0.6952   24.0976 C   0  0  0  0  0  0  0  0  0  0  0  0
    7.0792   -9.0217   17.1429 C   0  0  0  0  0  0  0  0  0  0  0  0
    3.1713  -10.1816   17.6634 C   0  0  0  0  0  0  0  0  0  0  0  0
    2.7878   -8.3822   16.2137 C   0  0  0  0  0  0  0  0  0  0  0  0
    9.4601   -2.6590   25.6528 C   0  0  0  0  0  0  0  0  0  0  0  0
   10.1182   -1.5672   23.1165 C   0  0  0  0  0  0  0  0  0  0  0  0
    1.0552   -9.6360   17.0650 C   0  0  0  0  0  0  0  0  0  0  0  0
    3.6519   -9.1783   16.9039 C   0  0  0  0  0  0  0  0  0  0  0  0
    7.8675   -7.0096   15.9415 C   0  0  0  0  0  0  0  0  0  0  0  0
    5.9733   -9.6553   17.3832 N   0  0  0  0  0  0  0  0  0  0  0  0
   10.2411   -2.9363   23.4301 C   0  0  0  0  0  0  0  0  0  0  0  0
   10.7288   -3.8197   19.9525 C   0  0  0  0  0  0  0  0  0  0  0  0
   10.1189   -5.0054   19.6987 C   0  0  0  0  0  0  0  0  0  0  0  0
  1  3  4  0
  1  7  4  0
  2 21  4  0
  2 27  4  0
  3  9  4  0
  3 10  4  0
  4  8  4  0
  4 18  4  0
  4 25  1  0
  5  9  4  0
  5 12  4  0
  6 13  1  0
  6 27  1  0
  7 28  4  0
  8 11  4  0
  9 29  4  0
 10 12  4  0
 11 24  1  0
 11 26  4  0
 12 25  1  0
 13 28  1  0
 14 20  4  0
 14 23  4  0
 15 17  4  0
 15 21  4  0
 16 19  4  0
 16 23  4  0
 17 22  4  0
 18 26  4  0
 19 24  4  0
 20 24  4  0
 22 27  4  0
 28 29  4  0
M  END
$$$$

 Created by Python create_sdf_string function

 29 33  0  0  0  0  0  0  0  0999 V2000
   10.7215   -3.3326   17.6437 C   0  0  0  0  0  0  0  0  0  0  0  0
    9.9489   -3.4675   24.6487 N   0  0  0  0  0  0  0  0  0  0  0  0
   10.0172   -4.4740   17.4101 C   0  0  0  0  0  0  0  0  0  0  0  0
    6.9051   -7.9575   16.4222 C   0  0  0  0  0  0  0  0  0  0  0  0
    8.9969   -6.3552   17.9668 N   0  0  0  0  0  0  0  0  0  0  0  0
   10.6702   -3.9051   22.4070 C   0  0  0  0  0  0  0  0  0  0  0  0
   11.0625   -3.0028   18.8894 C   0  0  0  0  0  0  0  0  0  0  0  0
    5.6180   -7.9194   16.1754 O   0  0  0  0  0  0  0  0  0  0  0  0
    9.7259   -5.3080   18.4485 C   0  0  0  0  0  0  0  0  0  0  0  0
    9.4578   -5.0200   16.3036 N   0  0  0  0  0  0  0  0  0  0  0  0
    5.0287   -8.9365   16.8223 C   0  0  0  0  0  0  0  0  0  0  0  0
    8.7742   -6.1498   16.6764 C   0  0  0  0  0  0  0  0  0  0  0  0
   10.9418   -3.4032   21.2053 O   0  0  0  0  0  0  0  0  0  0  0  0
    1.4797   -8.6258   16.2950 C   0  0  0  0  0  0  0  0  0  0  0  0
    9.2861   -1.2743   25.3585 C   0  0  0  0  0  0  0  0  0  0  0  0
    1.8892  -10.3985   17.7511 N   0  0  0  0  0  0  0  0  0  0  0  0
    9.6210   -0.6952   24.0976 C   0  0  0  0  0  0  0  0  0  0  0  0
    7.0792   -9.0217   17.1429 C   0  0  0  0  0  0  0  0  0  0  0  0
    3.1713  -10.1816   17.6634 C   0  0  0  0  0  0  0  0  0  0  0  0
    2.7878   -8.3822   16.2137 C   0  0  0  0  0  0  0  0  0  0  0  0
    9.4601   -2.6590   25.6528 C   0  0  0  0  0  0  0  0  0  0  0  0
   10.1182   -1.5672   23.1165 C   0  0  0  0  0  0  0  0  0  0  0  0
    1.0552   -9.6360   17.0650 C   0  0  0  0  0  0  0  0  0  0  0  0
    3.6519   -9.1783   16.9039 C   0  0  0  0  0  0  0  0  0  0  0  0
    7.8675   -7.0096   15.9415 C   0  0  0  0  0  0  0  0  0  0  0  0
    5.9733   -9.6553   17.3832 N   0  0  0  0  0  0  0  0  0  0  0  0
   10.2411   -2.9363   23.4301 C   0  0  0  0  0  0  0  0  0  0  0  0
   10.7288   -3.8197   19.9525 C   0  0  0  0  0  0  0  0  0  0  0  0
   10.1189   -5.0054   19.6987 C   0  0  0  0  0  0  0  0  0  0  0  0
  1  3  4  0
  1  7  4  0
  2 21  4  0
  2 27  4  0
  3  9  4  0
  3 10  4  0
  4  8  4  0
  4 18  4  0
  4 25  1  0
  5  9  4  0
  5 12  4  0
  6 13  1  0
  6 27  1  0
  7 28  4  0
  8 11  4  0
  9 29  4  0
 10 12  4  0
 11 24  1  0
 11 26  4  0
 12 25  1  0
 13 28  1  0
 14 20  4  0
 14 23  4  0
 15 17  4  0
 15 21  4  0
 16 19  4  0
 16 23  4  0
 17 22  4  0
 18 26  4  0
 19 24  4  0
 20 24  4  0
 22 27  4  0
 28 29  4  0
M  END
$$$$

 Created by Python create_sdf_string function

 29 33  0  0  0  0  0  0  0  0999 V2000
   10.7215   -3.3326   17.6437 C   0  0  0  0  0  0  0  0  0  0  0  0
    9.9489   -3.4675   24.6487 N   0  0  0  0  0  0  0  0  0  0  0  0
   10.0172   -4.4740   17.4101 C   0  0  0  0  0  0  0  0  0  0  0  0
    6.9051   -7.9575   16.4222 C   0  0  0  0  0  0  0  0  0  0  0  0
    8.9969   -6.3552   17.9668 N   0  0  0  0  0  0  0  0  0  0  0  0
   10.6702   -3.9051   22.4070 C   0  0  0  0  0  0  0  0  0  0  0  0
   11.0625   -3.0028   18.8894 C   0  0  0  0  0  0  0  0  0  0  0  0
    5.6180   -7.9194   16.1754 O   0  0  0  0  0  0  0  0  0  0  0  0
    9.7259   -5.3080   18.4485 C   0  0  0  0  0  0  0  0  0  0  0  0
    9.4578   -5.0200   16.3036 N   0  0  0  0  0  0  0  0  0  0  0  0
    5.0287   -8.9365   16.8223 C   0  0  0  0  0  0  0  0  0  0  0  0
    8.7742   -6.1498   16.6764 C   0  0  0  0  0  0  0  0  0  0  0  0
   10.9418   -3.4032   21.2053 O   0  0  0  0  0  0  0  0  0  0  0  0
    1.4797   -8.6258   16.2950 C   0  0  0  0  0  0  0  0  0  0  0  0
    9.2861   -1.2743   25.3585 C   0  0  0  0  0  0  0  0  0  0  0  0
    1.8892  -10.3985   17.7511 N   0  0  0  0  0  0  0  0  0  0  0  0
    9.6210   -0.6952   24.0976 C   0  0  0  0  0  0  0  0  0  0  0  0
    7.0792   -9.0217   17.1429 C   0  0  0  0  0  0  0  0  0  0  0  0
    3.1713  -10.1816   17.6634 C   0  0  0  0  0  0  0  0  0  0  0  0
    2.7878   -8.3822   16.2137 C   0  0  0  0  0  0  0  0  0  0  0  0
    9.4601   -2.6590   25.6528 C   0  0  0  0  0  0  0  0  0  0  0  0
   10.1182   -1.5672   23.1165 C   0  0  0  0  0  0  0  0  0  0  0  0
    1.0552   -9.6360   17.0650 C   0  0  0  0  0  0  0  0  0  0  0  0
    3.6519   -9.1783   16.9039 C   0  0  0  0  0  0  0  0  0  0  0  0
    7.8675   -7.0096   15.9415 C   0  0  0  0  0  0  0  0  0  0  0  0
    5.9733   -9.6553   17.3832 N   0  0  0  0  0  0  0  0  0  0  0  0
   10.2411   -2.9363   23.4301 C   0  0  0  0  0  0  0  0  0  0  0  0
   10.7288   -3.8197   19.9525 C   0  0  0  0  0  0  0  0  0  0  0  0
   10.1189   -5.0054   19.6987 C   0  0  0  0  0  0  0  0  0  0  0  0
  1  3  4  0
  1  7  4  0
  2 21  4  0
  2 27  4  0
  3  9  4  0
  3 10  4  0
  4  8  4  0
  4 18  4  0
  4 25  1  0
  5  9  4  0
  5 12  4  0
  6 13  1  0
  6 27  1  0
  7 28  4  0
  8 11  4  0
  9 29  4  0
 10 12  4  0
 11 24  1  0
 11 26  4  0
 12 25  1  0
 13 28  1  0
 14 20  4  0
 14 23  4  0
 15 17  4  0
 15 21  4  0
 16 19  4  0
 16 23  4  0
 17 22  4  0
 18 26  4  0
 19 24  4  0
 20 24  4  0
 22 27  4  0
 28 29  4  0
M  END
$$$$

 Created by Python create_sdf_string function

 29 33  0  0  0  0  0  0  0  0999 V2000
   10.7215   -3.3326   17.6437 C   0  0  0  0  0  0  0  0  0  0  0  0
    9.9489   -3.4675   24.6487 N   0  0  0  0  0  0  0  0  0  0  0  0
   10.0172   -4.4740   17.4101 C   0  0  0  0  0  0  0  0  0  0  0  0
    6.9051   -7.9575   16.4222 C   0  0  0  0  0  0  0  0  0  0  0  0
    8.9969   -6.3552   17.9668 N   0  0  0  0  0  0  0  0  0  0  0  0
   10.6702   -3.9051   22.4070 C   0  0  0  0  0  0  0  0  0  0  0  0
   11.0625   -3.0028   18.8894 C   0  0  0  0  0  0  0  0  0  0  0  0
    5.6180   -7.9194   16.1754 O   0  0  0  0  0  0  0  0  0  0  0  0
    9.7259   -5.3080   18.4485 C   0  0  0  0  0  0  0  0  0  0  0  0
    9.4578   -5.0200   16.3036 N   0  0  0  0  0  0  0  0  0  0  0  0
    5.0287   -8.9365   16.8223 C   0  0  0  0  0  0  0  0  0  0  0  0
    8.7742   -6.1498   16.6764 C   0  0  0  0  0  0  0  0  0  0  0  0
   10.9418   -3.4032   21.2053 O   0  0  0  0  0  0  0  0  0  0  0  0
    1.4797   -8.6258   16.2950 C   0  0  0  0  0  0  0  0  0  0  0  0
    9.2861   -1.2743   25.3585 C   0  0  0  0  0  0  0  0  0  0  0  0
    1.8892  -10.3985   17.7511 N   0  0  0  0  0  0  0  0  0  0  0  0
    9.6210   -0.6952   24.0976 C   0  0  0  0  0  0  0  0  0  0  0  0
    7.0792   -9.0217   17.1429 C   0  0  0  0  0  0  0  0  0  0  0  0
    3.1713  -10.1816   17.6634 C   0  0  0  0  0  0  0  0  0  0  0  0
    2.7878   -8.3822   16.2137 C   0  0  0  0  0  0  0  0  0  0  0  0
    9.4601   -2.6590   25.6528 C   0  0  0  0  0  0  0  0  0  0  0  0
   10.1182   -1.5672   23.1165 C   0  0  0  0  0  0  0  0  0  0  0  0
    1.0552   -9.6360   17.0650 C   0  0  0  0  0  0  0  0  0  0  0  0
    3.6519   -9.1783   16.9039 C   0  0  0  0  0  0  0  0  0  0  0  0
    7.8675   -7.0096   15.9415 C   0  0  0  0  0  0  0  0  0  0  0  0
    5.9733   -9.6553   17.3832 N   0  0  0  0  0  0  0  0  0  0  0  0
   10.2411   -2.9363   23.4301 C   0  0  0  0  0  0  0  0  0  0  0  0
   10.7288   -3.8197   19.9525 C   0  0  0  0  0  0  0  0  0  0  0  0
   10.1189   -5.0054   19.6987 C   0  0  0  0  0  0  0  0  0  0  0  0
  1  3  4  0
  1  7  4  0
  2 21  4  0
  2 27  4  0
  3  9  4  0
  3 10  4  0
  4  8  4  0
  4 18  4  0
  4 25  1  0
  5  9  4  0
  5 12  4  0
  6 13  1  0
  6 27  1  0
  7 28  4  0
  8 11  4  0
  9 29  4  0
 10 12  4  0
 11 24  1  0
 11 26  4  0
 12 25  1  0
 13 28  1  0
 14 20  4  0
 14 23  4  0
 15 17  4  0
 15 21  4  0
 16 19  4  0
 16 23  4  0
 17 22  4  0
 18 26  4  0
 19 24  4  0
 20 24  4  0
 22 27  4  0
 28 29  4  0
M  END
$$$$

 Created by Python create_sdf_string function

 29 33  0  0  0  0  0  0  0  0999 V2000
   10.7215   -3.3326   17.6437 C   0  0  0  0  0  0  0  0  0  0  0  0
    9.9489   -3.4675   24.6487 N   0  0  0  0  0  0  0  0  0  0  0  0
   10.0172   -4.4740   17.4101 C   0  0  0  0  0  0  0  0  0  0  0  0
    6.9051   -7.9575   16.4222 C   0  0  0  0  0  0  0  0  0  0  0  0
    8.9969   -6.3552   17.9668 N   0  0  0  0  0  0  0  0  0  0  0  0
   10.6702   -3.9051   22.4070 C   0  0  0  0  0  0  0  0  0  0  0  0
   11.0625   -3.0028   18.8894 C   0  0  0  0  0  0  0  0  0  0  0  0
    5.6180   -7.9194   16.1754 O   0  0  0  0  0  0  0  0  0  0  0  0
    9.7259   -5.3080   18.4485 C   0  0  0  0  0  0  0  0  0  0  0  0
    9.4578   -5.0200   16.3036 N   0  0  0  0  0  0  0  0  0  0  0  0
    5.0287   -8.9365   16.8223 C   0  0  0  0  0  0  0  0  0  0  0  0
    8.7742   -6.1498   16.6764 C   0  0  0  0  0  0  0  0  0  0  0  0
   10.9418   -3.4032   21.2053 O   0  0  0  0  0  0  0  0  0  0  0  0
    1.4797   -8.6258   16.2950 C   0  0  0  0  0  0  0  0  0  0  0  0
    9.2861   -1.2743   25.3585 C   0  0  0  0  0  0  0  0  0  0  0  0
    1.8892  -10.3985   17.7511 N   0  0  0  0  0  0  0  0  0  0  0  0
    9.6210   -0.6952   24.0976 C   0  0  0  0  0  0  0  0  0  0  0  0
    7.0792   -9.0217   17.1429 C   0  0  0  0  0  0  0  0  0  0  0  0
    3.1713  -10.1816   17.6634 C   0  0  0  0  0  0  0  0  0  0  0  0
    2.7878   -8.3822   16.2137 C   0  0  0  0  0  0  0  0  0  0  0  0
    9.4601   -2.6590   25.6528 C   0  0  0  0  0  0  0  0  0  0  0  0
   10.1182   -1.5672   23.1165 C   0  0  0  0  0  0  0  0  0  0  0  0
    1.0552   -9.6360   17.0650 C   0  0  0  0  0  0  0  0  0  0  0  0
    3.6519   -9.1783   16.9039 C   0  0  0  0  0  0  0  0  0  0  0  0
    7.8675   -7.0096   15.9415 C   0  0  0  0  0  0  0  0  0  0  0  0
    5.9733   -9.6553   17.3832 N   0  0  0  0  0  0  0  0  0  0  0  0
   10.2411   -2.9363   23.4301 C   0  0  0  0  0  0  0  0  0  0  0  0
   10.7288   -3.8197   19.9525 C   0  0  0  0  0  0  0  0  0  0  0  0
   10.1189   -5.0054   19.6987 C   0  0  0  0  0  0  0  0  0  0  0  0
  1  3  4  0
  1  7  4  0
  2 21  4  0
  2 27  4  0
  3  9  4  0
  3 10  4  0
  4  8  4  0
  4 18  4  0
  4 25  1  0
  5  9  4  0
  5 12  4  0
  6 13  1  0
  6 27  1  0
  7 28  4  0
  8 11  4  0
  9 29  4  0
 10 12  4  0
 11 24  1  0
 11 26  4  0
 12 25  1  0
 13 28  1  0
 14 20  4  0
 14 23  4  0
 15 17  4  0
 15 21  4  0
 16 19  4  0
 16 23  4  0
 17 22  4  0
 18 26  4  0
 19 24  4  0
 20 24  4  0
 22 27  4  0
 28 29  4  0
M  END
$$$$

 Created by Python create_sdf_string function

 29 33  0  0  0  0  0  0  0  0999 V2000
   10.7215   -3.3326   17.6437 C   0  0  0  0  0  0  0  0  0  0  0  0
    9.9489   -3.4675   24.6487 N   0  0  0  0  0  0  0  0  0  0  0  0
   10.0172   -4.4740   17.4101 C   0  0  0  0  0  0  0  0  0  0  0  0
    6.9051   -7.9575   16.4222 C   0  0  0  0  0  0  0  0  0  0  0  0
    8.9969   -6.3552   17.9668 N   0  0  0  0  0  0  0  0  0  0  0  0
   10.6702   -3.9051   22.4070 C   0  0  0  0  0  0  0  0  0  0  0  0
   11.0625   -3.0028   18.8894 C   0  0  0  0  0  0  0  0  0  0  0  0
    5.6180   -7.9194   16.1754 O   0  0  0  0  0  0  0  0  0  0  0  0
    9.7259   -5.3080   18.4485 C   0  0  0  0  0  0  0  0  0  0  0  0
    9.4578   -5.0200   16.3036 N   0  0  0  0  0  0  0  0  0  0  0  0
    5.0287   -8.9365   16.8223 C   0  0  0  0  0  0  0  0  0  0  0  0
    8.7742   -6.1498   16.6764 C   0  0  0  0  0  0  0  0  0  0  0  0
   10.9418   -3.4032   21.2053 O   0  0  0  0  0  0  0  0  0  0  0  0
    1.4797   -8.6258   16.2950 C   0  0  0  0  0  0  0  0  0  0  0  0
    9.2861   -1.2743   25.3585 C   0  0  0  0  0  0  0  0  0  0  0  0
    1.8892  -10.3985   17.7511 N   0  0  0  0  0  0  0  0  0  0  0  0
    9.6210   -0.6952   24.0976 C   0  0  0  0  0  0  0  0  0  0  0  0
    7.0792   -9.0217   17.1429 C   0  0  0  0  0  0  0  0  0  0  0  0
    3.1713  -10.1816   17.6634 C   0  0  0  0  0  0  0  0  0  0  0  0
    2.7878   -8.3822   16.2137 C   0  0  0  0  0  0  0  0  0  0  0  0
    9.4601   -2.6590   25.6528 C   0  0  0  0  0  0  0  0  0  0  0  0
   10.1182   -1.5672   23.1165 C   0  0  0  0  0  0  0  0  0  0  0  0
    1.0552   -9.6360   17.0650 C   0  0  0  0  0  0  0  0  0  0  0  0
    3.6519   -9.1783   16.9039 C   0  0  0  0  0  0  0  0  0  0  0  0
    7.8675   -7.0096   15.9415 C   0  0  0  0  0  0  0  0  0  0  0  0
    5.9733   -9.6553   17.3832 N   0  0  0  0  0  0  0  0  0  0  0  0
   10.2411   -2.9363   23.4301 C   0  0  0  0  0  0  0  0  0  0  0  0
   10.7288   -3.8197   19.9525 C   0  0  0  0  0  0  0  0  0  0  0  0
   10.1189   -5.0054   19.6987 C   0  0  0  0  0  0  0  0  0  0  0  0
  1  3  4  0
  1  7  4  0
  2 21  4  0
  2 27  4  0
  3  9  4  0
  3 10  4  0
  4  8  4  0
  4 18  4  0
  4 25  1  0
  5  9  4  0
  5 12  4  0
  6 13  1  0
  6 27  1  0
  7 28  4  0
  8 11  4  0
  9 29  4  0
 10 12  4  0
 11 24  1  0
 11 26  4  0
 12 25  1  0
 13 28  1  0
 14 20  4  0
 14 23  4  0
 15 17  4  0
 15 21  4  0
 16 19  4  0
 16 23  4  0
 17 22  4  0
 18 26  4  0
 19 24  4  0
 20 24  4  0
 22 27  4  0
 28 29  4  0
M  END
$$$$

 Created by Python create_sdf_string function

 29 33  0  0  0  0  0  0  0  0999 V2000
   10.7215   -3.3326   17.6437 C   0  0  0  0  0  0  0  0  0  0  0  0
    9.9489   -3.4675   24.6487 N   0  0  0  0  0  0  0  0  0  0  0  0
   10.0172   -4.4740   17.4101 C   0  0  0  0  0  0  0  0  0  0  0  0
    6.9051   -7.9575   16.4222 C   0  0  0  0  0  0  0  0  0  0  0  0
    8.9969   -6.3552   17.9668 N   0  0  0  0  0  0  0  0  0  0  0  0
   10.6702   -3.9051   22.4070 C   0  0  0  0  0  0  0  0  0  0  0  0
   11.0625   -3.0028   18.8894 C   0  0  0  0  0  0  0  0  0  0  0  0
    5.6180   -7.9194   16.1754 O   0  0  0  0  0  0  0  0  0  0  0  0
    9.7259   -5.3080   18.4485 C   0  0  0  0  0  0  0  0  0  0  0  0
    9.4578   -5.0200   16.3036 N   0  0  0  0  0  0  0  0  0  0  0  0
    5.0287   -8.9365   16.8223 C   0  0  0  0  0  0  0  0  0  0  0  0
    8.7742   -6.1498   16.6764 C   0  0  0  0  0  0  0  0  0  0  0  0
   10.9418   -3.4032   21.2053 O   0  0  0  0  0  0  0  0  0  0  0  0
    1.4797   -8.6258   16.2950 C   0  0  0  0  0  0  0  0  0  0  0  0
    9.2861   -1.2743   25.3585 C   0  0  0  0  0  0  0  0  0  0  0  0
    1.8892  -10.3985   17.7511 N   0  0  0  0  0  0  0  0  0  0  0  0
    9.6210   -0.6952   24.0976 C   0  0  0  0  0  0  0  0  0  0  0  0
    7.0792   -9.0217   17.1429 C   0  0  0  0  0  0  0  0  0  0  0  0
    3.1713  -10.1816   17.6634 C   0  0  0  0  0  0  0  0  0  0  0  0
    2.7878   -8.3822   16.2137 C   0  0  0  0  0  0  0  0  0  0  0  0
    9.4601   -2.6590   25.6528 C   0  0  0  0  0  0  0  0  0  0  0  0
   10.1182   -1.5672   23.1165 C   0  0  0  0  0  0  0  0  0  0  0  0
    1.0552   -9.6360   17.0650 C   0  0  0  0  0  0  0  0  0  0  0  0
    3.6519   -9.1783   16.9039 C   0  0  0  0  0  0  0  0  0  0  0  0
    7.8675   -7.0096   15.9415 C   0  0  0  0  0  0  0  0  0  0  0  0
    5.9733   -9.6553   17.3832 N   0  0  0  0  0  0  0  0  0  0  0  0
   10.2411   -2.9363   23.4301 C   0  0  0  0  0  0  0  0  0  0  0  0
   10.7288   -3.8197   19.9525 C   0  0  0  0  0  0  0  0  0  0  0  0
   10.1189   -5.0054   19.6987 C   0  0  0  0  0  0  0  0  0  0  0  0
  1  3  4  0
  1  7  4  0
  2 21  4  0
  2 27  4  0
  3  9  4  0
  3 10  4  0
  4  8  4  0
  4 18  4  0
  4 25  1  0
  5  9  4  0
  5 12  4  0
  6 13  1  0
  6 27  1  0
  7 28  4  0
  8 11  4  0
  9 29  4  0
 10 12  4  0
 11 24  1  0
 11 26  4  0
 12 25  1  0
 13 28  1  0
 14 20  4  0
 14 23  4  0
 15 17  4  0
 15 21  4  0
 16 19  4  0
 16 23  4  0
 17 22  4  0
 18 26  4  0
 19 24  4  0
 20 24  4  0
 22 27  4  0
 28 29  4  0
M  END
$$$$

 Created by Python create_sdf_string function

 29 33  0  0  0  0  0  0  0  0999 V2000
   10.7215   -3.3326   17.6437 C   0  0  0  0  0  0  0  0  0  0  0  0
    9.9489   -3.4675   24.6487 N   0  0  0  0  0  0  0  0  0  0  0  0
   10.0172   -4.4740   17.4101 C   0  0  0  0  0  0  0  0  0  0  0  0
    6.9051   -7.9575   16.4222 C   0  0  0  0  0  0  0  0  0  0  0  0
    8.9969   -6.3552   17.9668 N   0  0  0  0  0  0  0  0  0  0  0  0
   10.6702   -3.9051   22.4070 C   0  0  0  0  0  0  0  0  0  0  0  0
   11.0625   -3.0028   18.8894 C   0  0  0  0  0  0  0  0  0  0  0  0
    5.6180   -7.9194   16.1754 O   0  0  0  0  0  0  0  0  0  0  0  0
    9.7259   -5.3080   18.4485 C   0  0  0  0  0  0  0  0  0  0  0  0
    9.4578   -5.0200   16.3036 N   0  0  0  0  0  0  0  0  0  0  0  0
    5.0287   -8.9365   16.8223 C   0  0  0  0  0  0  0  0  0  0  0  0
    8.7742   -6.1498   16.6764 C   0  0  0  0  0  0  0  0  0  0  0  0
   10.9418   -3.4032   21.2053 O   0  0  0  0  0  0  0  0  0  0  0  0
    1.4797   -8.6258   16.2950 C   0  0  0  0  0  0  0  0  0  0  0  0
    9.2861   -1.2743   25.3585 C   0  0  0  0  0  0  0  0  0  0  0  0
    1.8892  -10.3985   17.7511 N   0  0  0  0  0  0  0  0  0  0  0  0
    9.6210   -0.6952   24.0976 C   0  0  0  0  0  0  0  0  0  0  0  0
    7.0792   -9.0217   17.1429 C   0  0  0  0  0  0  0  0  0  0  0  0
    3.1713  -10.1816   17.6634 C   0  0  0  0  0  0  0  0  0  0  0  0
    2.7878   -8.3822   16.2137 C   0  0  0  0  0  0  0  0  0  0  0  0
    9.4601   -2.6590   25.6528 C   0  0  0  0  0  0  0  0  0  0  0  0
   10.1182   -1.5672   23.1165 C   0  0  0  0  0  0  0  0  0  0  0  0
    1.0552   -9.6360   17.0650 C   0  0  0  0  0  0  0  0  0  0  0  0
    3.6519   -9.1783   16.9039 C   0  0  0  0  0  0  0  0  0  0  0  0
    7.8675   -7.0096   15.9415 C   0  0  0  0  0  0  0  0  0  0  0  0
    5.9733   -9.6553   17.3832 N   0  0  0  0  0  0  0  0  0  0  0  0
   10.2411   -2.9363   23.4301 C   0  0  0  0  0  0  0  0  0  0  0  0
   10.7288   -3.8197   19.9525 C   0  0  0  0  0  0  0  0  0  0  0  0
   10.1189   -5.0054   19.6987 C   0  0  0  0  0  0  0  0  0  0  0  0
  1  3  4  0
  1  7  4  0
  2 21  4  0
  2 27  4  0
  3  9  4  0
  3 10  4  0
  4  8  4  0
  4 18  4  0
  4 25  1  0
  5  9  4  0
  5 12  4  0
  6 13  1  0
  6 27  1  0
  7 28  4  0
  8 11  4  0
  9 29  4  0
 10 12  4  0
 11 24  1  0
 11 26  4  0
 12 25  1  0
 13 28  1  0
 14 20  4  0
 14 23  4  0
 15 17  4  0
 15 21  4  0
 16 19  4  0
 16 23  4  0
 17 22  4  0
 18 26  4  0
 19 24  4  0
 20 24  4  0
 22 27  4  0
 28 29  4  0
M  END
$$$$

 Created by Python create_sdf_string function

 29 33  0  0  0  0  0  0  0  0999 V2000
   10.7215   -3.3326   17.6437 C   0  0  0  0  0  0  0  0  0  0  0  0
    9.9489   -3.4675   24.6487 N   0  0  0  0  0  0  0  0  0  0  0  0
   10.0172   -4.4740   17.4101 C   0  0  0  0  0  0  0  0  0  0  0  0
    6.9051   -7.9575   16.4222 C   0  0  0  0  0  0  0  0  0  0  0  0
    8.9969   -6.3552   17.9668 N   0  0  0  0  0  0  0  0  0  0  0  0
   10.6702   -3.9051   22.4070 C   0  0  0  0  0  0  0  0  0  0  0  0
   11.0625   -3.0028   18.8894 C   0  0  0  0  0  0  0  0  0  0  0  0
    5.6180   -7.9194   16.1754 O   0  0  0  0  0  0  0  0  0  0  0  0
    9.7259   -5.3080   18.4485 C   0  0  0  0  0  0  0  0  0  0  0  0
    9.4578   -5.0200   16.3036 N   0  0  0  0  0  0  0  0  0  0  0  0
    5.0287   -8.9365   16.8223 C   0  0  0  0  0  0  0  0  0  0  0  0
    8.7742   -6.1498   16.6764 C   0  0  0  0  0  0  0  0  0  0  0  0
   10.9418   -3.4032   21.2053 O   0  0  0  0  0  0  0  0  0  0  0  0
    1.4797   -8.6258   16.2950 C   0  0  0  0  0  0  0  0  0  0  0  0
    9.2861   -1.2743   25.3585 C   0  0  0  0  0  0  0  0  0  0  0  0
    1.8892  -10.3985   17.7511 N   0  0  0  0  0  0  0  0  0  0  0  0
    9.6210   -0.6952   24.0976 C   0  0  0  0  0  0  0  0  0  0  0  0
    7.0792   -9.0217   17.1429 C   0  0  0  0  0  0  0  0  0  0  0  0
    3.1713  -10.1816   17.6634 C   0  0  0  0  0  0  0  0  0  0  0  0
    2.7878   -8.3822   16.2137 C   0  0  0  0  0  0  0  0  0  0  0  0
    9.4601   -2.6590   25.6528 C   0  0  0  0  0  0  0  0  0  0  0  0
   10.1182   -1.5672   23.1165 C   0  0  0  0  0  0  0  0  0  0  0  0
    1.0552   -9.6360   17.0650 C   0  0  0  0  0  0  0  0  0  0  0  0
    3.6519   -9.1783   16.9039 C   0  0  0  0  0  0  0  0  0  0  0  0
    7.8675   -7.0096   15.9415 C   0  0  0  0  0  0  0  0  0  0  0  0
    5.9733   -9.6553   17.3832 N   0  0  0  0  0  0  0  0  0  0  0  0
   10.2411   -2.9363   23.4301 C   0  0  0  0  0  0  0  0  0  0  0  0
   10.7288   -3.8197   19.9525 C   0  0  0  0  0  0  0  0  0  0  0  0
   10.1189   -5.0054   19.6987 C   0  0  0  0  0  0  0  0  0  0  0  0
  1  3  4  0
  1  7  4  0
  2 21  4  0
  2 27  4  0
  3  9  4  0
  3 10  4  0
  4  8  4  0
  4 18  4  0
  4 25  1  0
  5  9  4  0
  5 12  4  0
  6 13  1  0
  6 27  1  0
  7 28  4  0
  8 11  4  0
  9 29  4  0
 10 12  4  0
 11 24  1  0
 11 26  4  0
 12 25  1  0
 13 28  1  0
 14 20  4  0
 14 23  4  0
 15 17  4  0
 15 21  4  0
 16 19  4  0
 16 23  4  0
 17 22  4  0
 18 26  4  0
 19 24  4  0
 20 24  4  0
 22 27  4  0
 28 29  4  0
M  END
$$$$

 Created by Python create_sdf_string function

 29 33  0  0  0  0  0  0  0  0999 V2000
   10.7215   -3.3326   17.6437 C   0  0  0  0  0  0  0  0  0  0  0  0
    9.9489   -3.4675   24.6487 N   0  0  0  0  0  0  0  0  0  0  0  0
   10.0172   -4.4740   17.4101 C   0  0  0  0  0  0  0  0  0  0  0  0
    6.9051   -7.9575   16.4222 C   0  0  0  0  0  0  0  0  0  0  0  0
    8.9969   -6.3552   17.9668 N   0  0  0  0  0  0  0  0  0  0  0  0
   10.6702   -3.9051   22.4070 C   0  0  0  0  0  0  0  0  0  0  0  0
   11.0625   -3.0028   18.8894 C   0  0  0  0  0  0  0  0  0  0  0  0
    5.6180   -7.9194   16.1754 O   0  0  0  0  0  0  0  0  0  0  0  0
    9.7259   -5.3080   18.4485 C   0  0  0  0  0  0  0  0  0  0  0  0
    9.4578   -5.0200   16.3036 N   0  0  0  0  0  0  0  0  0  0  0  0
    5.0287   -8.9365   16.8223 C   0  0  0  0  0  0  0  0  0  0  0  0
    8.7742   -6.1498   16.6764 C   0  0  0  0  0  0  0  0  0  0  0  0
   10.9418   -3.4032   21.2053 O   0  0  0  0  0  0  0  0  0  0  0  0
    1.4797   -8.6258   16.2950 C   0  0  0  0  0  0  0  0  0  0  0  0
    9.2861   -1.2743   25.3585 C   0  0  0  0  0  0  0  0  0  0  0  0
    1.8892  -10.3985   17.7511 N   0  0  0  0  0  0  0  0  0  0  0  0
    9.6210   -0.6952   24.0976 C   0  0  0  0  0  0  0  0  0  0  0  0
    7.0792   -9.0217   17.1429 C   0  0  0  0  0  0  0  0  0  0  0  0
    3.1713  -10.1816   17.6634 C   0  0  0  0  0  0  0  0  0  0  0  0
    2.7878   -8.3822   16.2137 C   0  0  0  0  0  0  0  0  0  0  0  0
    9.4601   -2.6590   25.6528 C   0  0  0  0  0  0  0  0  0  0  0  0
   10.1182   -1.5672   23.1165 C   0  0  0  0  0  0  0  0  0  0  0  0
    1.0552   -9.6360   17.0650 C   0  0  0  0  0  0  0  0  0  0  0  0
    3.6519   -9.1783   16.9039 C   0  0  0  0  0  0  0  0  0  0  0  0
    7.8675   -7.0096   15.9415 C   0  0  0  0  0  0  0  0  0  0  0  0
    5.9733   -9.6553   17.3832 N   0  0  0  0  0  0  0  0  0  0  0  0
   10.2411   -2.9363   23.4301 C   0  0  0  0  0  0  0  0  0  0  0  0
   10.7288   -3.8197   19.9525 C   0  0  0  0  0  0  0  0  0  0  0  0
   10.1189   -5.0054   19.6987 C   0  0  0  0  0  0  0  0  0  0  0  0
  1  3  4  0
  1  7  4  0
  2 21  4  0
  2 27  4  0
  3  9  4  0
  3 10  4  0
  4  8  4  0
  4 18  4  0
  4 25  1  0
  5  9  4  0
  5 12  4  0
  6 13  1  0
  6 27  1  0
  7 28  4  0
  8 11  4  0
  9 29  4  0
 10 12  4  0
 11 24  1  0
 11 26  4  0
 12 25  1  0
 13 28  1  0
 14 20  4  0
 14 23  4  0
 15 17  4  0
 15 21  4  0
 16 19  4  0
 16 23  4  0
 17 22  4  0
 18 26  4  0
 19 24  4  0
 20 24  4  0
 22 27  4  0
 28 29  4  0
M  END
$$$$

 Created by Python create_sdf_string function

 29 33  0  0  0  0  0  0  0  0999 V2000
   10.7215   -3.3326   17.6437 C   0  0  0  0  0  0  0  0  0  0  0  0
    9.9489   -3.4675   24.6487 N   0  0  0  0  0  0  0  0  0  0  0  0
   10.0172   -4.4740   17.4101 C   0  0  0  0  0  0  0  0  0  0  0  0
    6.9051   -7.9575   16.4222 C   0  0  0  0  0  0  0  0  0  0  0  0
    8.9969   -6.3552   17.9668 N   0  0  0  0  0  0  0  0  0  0  0  0
   10.6702   -3.9051   22.4070 C   0  0  0  0  0  0  0  0  0  0  0  0
   11.0625   -3.0028   18.8894 C   0  0  0  0  0  0  0  0  0  0  0  0
    5.6180   -7.9194   16.1754 O   0  0  0  0  0  0  0  0  0  0  0  0
    9.7259   -5.3080   18.4485 C   0  0  0  0  0  0  0  0  0  0  0  0
    9.4578   -5.0200   16.3036 N   0  0  0  0  0  0  0  0  0  0  0  0
    5.0287   -8.9365   16.8223 C   0  0  0  0  0  0  0  0  0  0  0  0
    8.7742   -6.1498   16.6764 C   0  0  0  0  0  0  0  0  0  0  0  0
   10.9418   -3.4032   21.2053 O   0  0  0  0  0  0  0  0  0  0  0  0
    1.4797   -8.6258   16.2950 C   0  0  0  0  0  0  0  0  0  0  0  0
    9.2861   -1.2743   25.3585 C   0  0  0  0  0  0  0  0  0  0  0  0
    1.8892  -10.3985   17.7511 N   0  0  0  0  0  0  0  0  0  0  0  0
    9.6210   -0.6952   24.0976 C   0  0  0  0  0  0  0  0  0  0  0  0
    7.0792   -9.0217   17.1429 C   0  0  0  0  0  0  0  0  0  0  0  0
    3.1713  -10.1816   17.6634 C   0  0  0  0  0  0  0  0  0  0  0  0
    2.7878   -8.3822   16.2137 C   0  0  0  0  0  0  0  0  0  0  0  0
    9.4601   -2.6590   25.6528 C   0  0  0  0  0  0  0  0  0  0  0  0
   10.1182   -1.5672   23.1165 C   0  0  0  0  0  0  0  0  0  0  0  0
    1.0552   -9.6360   17.0650 C   0  0  0  0  0  0  0  0  0  0  0  0
    3.6519   -9.1783   16.9039 C   0  0  0  0  0  0  0  0  0  0  0  0
    7.8675   -7.0096   15.9415 C   0  0  0  0  0  0  0  0  0  0  0  0
    5.9733   -9.6553   17.3832 N   0  0  0  0  0  0  0  0  0  0  0  0
   10.2411   -2.9363   23.4301 C   0  0  0  0  0  0  0  0  0  0  0  0
   10.7288   -3.8197   19.9525 C   0  0  0  0  0  0  0  0  0  0  0  0
   10.1189   -5.0054   19.6987 C   0  0  0  0  0  0  0  0  0  0  0  0
  1  3  4  0
  1  7  4  0
  2 21  4  0
  2 27  4  0
  3  9  4  0
  3 10  4  0
  4  8  4  0
  4 18  4  0
  4 25  1  0
  5  9  4  0
  5 12  4  0
  6 13  1  0
  6 27  1  0
  7 28  4  0
  8 11  4  0
  9 29  4  0
 10 12  4  0
 11 24  1  0
 11 26  4  0
 12 25  1  0
 13 28  1  0
 14 20  4  0
 14 23  4  0
 15 17  4  0
 15 21  4  0
 16 19  4  0
 16 23  4  0
 17 22  4  0
 18 26  4  0
 19 24  4  0
 20 24  4  0
 22 27  4  0
 28 29  4  0
M  END
$$$$

 Created by Python create_sdf_string function

 29 33  0  0  0  0  0  0  0  0999 V2000
   10.7215   -3.3326   17.6437 C   0  0  0  0  0  0  0  0  0  0  0  0
    9.9489   -3.4675   24.6487 N   0  0  0  0  0  0  0  0  0  0  0  0
   10.0172   -4.4740   17.4101 C   0  0  0  0  0  0  0  0  0  0  0  0
    6.9051   -7.9575   16.4222 C   0  0  0  0  0  0  0  0  0  0  0  0
    8.9969   -6.3552   17.9668 N   0  0  0  0  0  0  0  0  0  0  0  0
   10.6702   -3.9051   22.4070 C   0  0  0  0  0  0  0  0  0  0  0  0
   11.0625   -3.0028   18.8894 C   0  0  0  0  0  0  0  0  0  0  0  0
    5.6180   -7.9194   16.1754 O   0  0  0  0  0  0  0  0  0  0  0  0
    9.7259   -5.3080   18.4485 C   0  0  0  0  0  0  0  0  0  0  0  0
    9.4578   -5.0200   16.3036 N   0  0  0  0  0  0  0  0  0  0  0  0
    5.0287   -8.9365   16.8223 C   0  0  0  0  0  0  0  0  0  0  0  0
    8.7742   -6.1498   16.6764 C   0  0  0  0  0  0  0  0  0  0  0  0
   10.9418   -3.4032   21.2053 O   0  0  0  0  0  0  0  0  0  0  0  0
    1.4797   -8.6258   16.2950 C   0  0  0  0  0  0  0  0  0  0  0  0
    9.2861   -1.2743   25.3585 C   0  0  0  0  0  0  0  0  0  0  0  0
    1.8892  -10.3985   17.7511 N   0  0  0  0  0  0  0  0  0  0  0  0
    9.6210   -0.6952   24.0976 C   0  0  0  0  0  0  0  0  0  0  0  0
    7.0792   -9.0217   17.1429 C   0  0  0  0  0  0  0  0  0  0  0  0
    3.1713  -10.1816   17.6634 C   0  0  0  0  0  0  0  0  0  0  0  0
    2.7878   -8.3822   16.2137 C   0  0  0  0  0  0  0  0  0  0  0  0
    9.4601   -2.6590   25.6528 C   0  0  0  0  0  0  0  0  0  0  0  0
   10.1182   -1.5672   23.1165 C   0  0  0  0  0  0  0  0  0  0  0  0
    1.0552   -9.6360   17.0650 C   0  0  0  0  0  0  0  0  0  0  0  0
    3.6519   -9.1783   16.9039 C   0  0  0  0  0  0  0  0  0  0  0  0
    7.8675   -7.0096   15.9415 C   0  0  0  0  0  0  0  0  0  0  0  0
    5.9733   -9.6553   17.3832 N   0  0  0  0  0  0  0  0  0  0  0  0
   10.2411   -2.9363   23.4301 C   0  0  0  0  0  0  0  0  0  0  0  0
   10.7288   -3.8197   19.9525 C   0  0  0  0  0  0  0  0  0  0  0  0
   10.1189   -5.0054   19.6987 C   0  0  0  0  0  0  0  0  0  0  0  0
  1  3  4  0
  1  7  4  0
  2 21  4  0
  2 27  4  0
  3  9  4  0
  3 10  4  0
  4  8  4  0
  4 18  4  0
  4 25  1  0
  5  9  4  0
  5 12  4  0
  6 13  1  0
  6 27  1  0
  7 28  4  0
  8 11  4  0
  9 29  4  0
 10 12  4  0
 11 24  1  0
 11 26  4  0
 12 25  1  0
 13 28  1  0
 14 20  4  0
 14 23  4  0
 15 17  4  0
 15 21  4  0
 16 19  4  0
 16 23  4  0
 17 22  4  0
 18 26  4  0
 19 24  4  0
 20 24  4  0
 22 27  4  0
 28 29  4  0
M  END
$$$$

 Created by Python create_sdf_string function

 29 33  0  0  0  0  0  0  0  0999 V2000
   10.7215   -3.3326   17.6437 C   0  0  0  0  0  0  0  0  0  0  0  0
    9.9489   -3.4675   24.6487 N   0  0  0  0  0  0  0  0  0  0  0  0
   10.0172   -4.4740   17.4101 C   0  0  0  0  0  0  0  0  0  0  0  0
    6.9051   -7.9575   16.4222 C   0  0  0  0  0  0  0  0  0  0  0  0
    8.9969   -6.3552   17.9668 N   0  0  0  0  0  0  0  0  0  0  0  0
   10.6702   -3.9051   22.4070 C   0  0  0  0  0  0  0  0  0  0  0  0
   11.0625   -3.0028   18.8894 C   0  0  0  0  0  0  0  0  0  0  0  0
    5.6180   -7.9194   16.1754 O   0  0  0  0  0  0  0  0  0  0  0  0
    9.7259   -5.3080   18.4485 C   0  0  0  0  0  0  0  0  0  0  0  0
    9.4578   -5.0200   16.3036 N   0  0  0  0  0  0  0  0  0  0  0  0
    5.0287   -8.9365   16.8223 C   0  0  0  0  0  0  0  0  0  0  0  0
    8.7742   -6.1498   16.6764 C   0  0  0  0  0  0  0  0  0  0  0  0
   10.9418   -3.4032   21.2053 O   0  0  0  0  0  0  0  0  0  0  0  0
    1.4797   -8.6258   16.2950 C   0  0  0  0  0  0  0  0  0  0  0  0
    9.2861   -1.2743   25.3585 C   0  0  0  0  0  0  0  0  0  0  0  0
    1.8892  -10.3985   17.7511 N   0  0  0  0  0  0  0  0  0  0  0  0
    9.6210   -0.6952   24.0976 C   0  0  0  0  0  0  0  0  0  0  0  0
    7.0792   -9.0217   17.1429 C   0  0  0  0  0  0  0  0  0  0  0  0
    3.1713  -10.1816   17.6634 C   0  0  0  0  0  0  0  0  0  0  0  0
    2.7878   -8.3822   16.2137 C   0  0  0  0  0  0  0  0  0  0  0  0
    9.4601   -2.6590   25.6528 C   0  0  0  0  0  0  0  0  0  0  0  0
   10.1182   -1.5672   23.1165 C   0  0  0  0  0  0  0  0  0  0  0  0
    1.0552   -9.6360   17.0650 C   0  0  0  0  0  0  0  0  0  0  0  0
    3.6519   -9.1783   16.9039 C   0  0  0  0  0  0  0  0  0  0  0  0
    7.8675   -7.0096   15.9415 C   0  0  0  0  0  0  0  0  0  0  0  0
    5.9733   -9.6553   17.3832 N   0  0  0  0  0  0  0  0  0  0  0  0
   10.2411   -2.9363   23.4301 C   0  0  0  0  0  0  0  0  0  0  0  0
   10.7288   -3.8197   19.9525 C   0  0  0  0  0  0  0  0  0  0  0  0
   10.1189   -5.0054   19.6987 C   0  0  0  0  0  0  0  0  0  0  0  0
  1  3  4  0
  1  7  4  0
  2 21  4  0
  2 27  4  0
  3  9  4  0
  3 10  4  0
  4  8  4  0
  4 18  4  0
  4 25  1  0
  5  9  4  0
  5 12  4  0
  6 13  1  0
  6 27  1  0
  7 28  4  0
  8 11  4  0
  9 29  4  0
 10 12  4  0
 11 24  1  0
 11 26  4  0
 12 25  1  0
 13 28  1  0
 14 20  4  0
 14 23  4  0
 15 17  4  0
 15 21  4  0
 16 19  4  0
 16 23  4  0
 17 22  4  0
 18 26  4  0
 19 24  4  0
 20 24  4  0
 22 27  4  0
 28 29  4  0
M  END
$$$$

 Created by Python create_sdf_string function

 29 33  0  0  0  0  0  0  0  0999 V2000
   10.7215   -3.3326   17.6437 C   0  0  0  0  0  0  0  0  0  0  0  0
    9.9489   -3.4675   24.6487 N   0  0  0  0  0  0  0  0  0  0  0  0
   10.0172   -4.4740   17.4101 C   0  0  0  0  0  0  0  0  0  0  0  0
    6.9051   -7.9575   16.4222 C   0  0  0  0  0  0  0  0  0  0  0  0
    8.9969   -6.3552   17.9668 N   0  0  0  0  0  0  0  0  0  0  0  0
   10.6702   -3.9051   22.4070 C   0  0  0  0  0  0  0  0  0  0  0  0
   11.0625   -3.0028   18.8894 C   0  0  0  0  0  0  0  0  0  0  0  0
    5.6180   -7.9194   16.1754 O   0  0  0  0  0  0  0  0  0  0  0  0
    9.7259   -5.3080   18.4485 C   0  0  0  0  0  0  0  0  0  0  0  0
    9.4578   -5.0200   16.3036 N   0  0  0  0  0  0  0  0  0  0  0  0
    5.0287   -8.9365   16.8223 C   0  0  0  0  0  0  0  0  0  0  0  0
    8.7742   -6.1498   16.6764 C   0  0  0  0  0  0  0  0  0  0  0  0
   10.9418   -3.4032   21.2053 O   0  0  0  0  0  0  0  0  0  0  0  0
    1.4797   -8.6258   16.2950 C   0  0  0  0  0  0  0  0  0  0  0  0
    9.2861   -1.2743   25.3585 C   0  0  0  0  0  0  0  0  0  0  0  0
    1.8892  -10.3985   17.7511 N   0  0  0  0  0  0  0  0  0  0  0  0
    9.6210   -0.6952   24.0976 C   0  0  0  0  0  0  0  0  0  0  0  0
    7.0792   -9.0217   17.1429 C   0  0  0  0  0  0  0  0  0  0  0  0
    3.1713  -10.1816   17.6634 C   0  0  0  0  0  0  0  0  0  0  0  0
    2.7878   -8.3822   16.2137 C   0  0  0  0  0  0  0  0  0  0  0  0
    9.4601   -2.6590   25.6528 C   0  0  0  0  0  0  0  0  0  0  0  0
   10.1182   -1.5672   23.1165 C   0  0  0  0  0  0  0  0  0  0  0  0
    1.0552   -9.6360   17.0650 C   0  0  0  0  0  0  0  0  0  0  0  0
    3.6519   -9.1783   16.9039 C   0  0  0  0  0  0  0  0  0  0  0  0
    7.8675   -7.0096   15.9415 C   0  0  0  0  0  0  0  0  0  0  0  0
    5.9733   -9.6553   17.3832 N   0  0  0  0  0  0  0  0  0  0  0  0
   10.2411   -2.9363   23.4301 C   0  0  0  0  0  0  0  0  0  0  0  0
   10.7288   -3.8197   19.9525 C   0  0  0  0  0  0  0  0  0  0  0  0
   10.1189   -5.0054   19.6987 C   0  0  0  0  0  0  0  0  0  0  0  0
  1  3  4  0
  1  7  4  0
  2 21  4  0
  2 27  4  0
  3  9  4  0
  3 10  4  0
  4  8  4  0
  4 18  4  0
  4 25  1  0
  5  9  4  0
  5 12  4  0
  6 13  1  0
  6 27  1  0
  7 28  4  0
  8 11  4  0
  9 29  4  0
 10 12  4  0
 11 24  1  0
 11 26  4  0
 12 25  1  0
 13 28  1  0
 14 20  4  0
 14 23  4  0
 15 17  4  0
 15 21  4  0
 16 19  4  0
 16 23  4  0
 17 22  4  0
 18 26  4  0
 19 24  4  0
 20 24  4  0
 22 27  4  0
 28 29  4  0
M  END
$$$$

 Created by Python create_sdf_string function

 29 33  0  0  0  0  0  0  0  0999 V2000
   10.7215   -3.3326   17.6437 C   0  0  0  0  0  0  0  0  0  0  0  0
    9.9489   -3.4675   24.6487 N   0  0  0  0  0  0  0  0  0  0  0  0
   10.0172   -4.4740   17.4101 C   0  0  0  0  0  0  0  0  0  0  0  0
    6.9051   -7.9575   16.4222 C   0  0  0  0  0  0  0  0  0  0  0  0
    8.9969   -6.3552   17.9668 N   0  0  0  0  0  0  0  0  0  0  0  0
   10.6702   -3.9051   22.4070 C   0  0  0  0  0  0  0  0  0  0  0  0
   11.0625   -3.0028   18.8894 C   0  0  0  0  0  0  0  0  0  0  0  0
    5.6180   -7.9194   16.1754 O   0  0  0  0  0  0  0  0  0  0  0  0
    9.7259   -5.3080   18.4485 C   0  0  0  0  0  0  0  0  0  0  0  0
    9.4578   -5.0200   16.3036 N   0  0  0  0  0  0  0  0  0  0  0  0
    5.0287   -8.9365   16.8223 C   0  0  0  0  0  0  0  0  0  0  0  0
    8.7742   -6.1498   16.6764 C   0  0  0  0  0  0  0  0  0  0  0  0
   10.9418   -3.4032   21.2053 O   0  0  0  0  0  0  0  0  0  0  0  0
    1.4797   -8.6258   16.2950 C   0  0  0  0  0  0  0  0  0  0  0  0
    9.2861   -1.2743   25.3585 C   0  0  0  0  0  0  0  0  0  0  0  0
    1.8892  -10.3985   17.7511 N   0  0  0  0  0  0  0  0  0  0  0  0
    9.6210   -0.6952   24.0976 C   0  0  0  0  0  0  0  0  0  0  0  0
    7.0792   -9.0217   17.1429 C   0  0  0  0  0  0  0  0  0  0  0  0
    3.1713  -10.1816   17.6634 C   0  0  0  0  0  0  0  0  0  0  0  0
    2.7878   -8.3822   16.2137 C   0  0  0  0  0  0  0  0  0  0  0  0
    9.4601   -2.6590   25.6528 C   0  0  0  0  0  0  0  0  0  0  0  0
   10.1182   -1.5672   23.1165 C   0  0  0  0  0  0  0  0  0  0  0  0
    1.0552   -9.6360   17.0650 C   0  0  0  0  0  0  0  0  0  0  0  0
    3.6519   -9.1783   16.9039 C   0  0  0  0  0  0  0  0  0  0  0  0
    7.8675   -7.0096   15.9415 C   0  0  0  0  0  0  0  0  0  0  0  0
    5.9733   -9.6553   17.3832 N   0  0  0  0  0  0  0  0  0  0  0  0
   10.2411   -2.9363   23.4301 C   0  0  0  0  0  0  0  0  0  0  0  0
   10.7288   -3.8197   19.9525 C   0  0  0  0  0  0  0  0  0  0  0  0
   10.1189   -5.0054   19.6987 C   0  0  0  0  0  0  0  0  0  0  0  0
  1  3  4  0
  1  7  4  0
  2 21  4  0
  2 27  4  0
  3  9  4  0
  3 10  4  0
  4  8  4  0
  4 18  4  0
  4 25  1  0
  5  9  4  0
  5 12  4  0
  6 13  1  0
  6 27  1  0
  7 28  4  0
  8 11  4  0
  9 29  4  0
 10 12  4  0
 11 24  1  0
 11 26  4  0
 12 25  1  0
 13 28  1  0
 14 20  4  0
 14 23  4  0
 15 17  4  0
 15 21  4  0
 16 19  4  0
 16 23  4  0
 17 22  4  0
 18 26  4  0
 19 24  4  0
 20 24  4  0
 22 27  4  0
 28 29  4  0
M  END
$$$$

 Created by Python create_sdf_string function

 29 33  0  0  0  0  0  0  0  0999 V2000
   10.7215   -3.3326   17.6437 C   0  0  0  0  0  0  0  0  0  0  0  0
    9.9489   -3.4675   24.6487 N   0  0  0  0  0  0  0  0  0  0  0  0
   10.0172   -4.4740   17.4101 C   0  0  0  0  0  0  0  0  0  0  0  0
    6.9051   -7.9575   16.4222 C   0  0  0  0  0  0  0  0  0  0  0  0
    8.9969   -6.3552   17.9668 N   0  0  0  0  0  0  0  0  0  0  0  0
   10.6702   -3.9051   22.4070 C   0  0  0  0  0  0  0  0  0  0  0  0
   11.0625   -3.0028   18.8894 C   0  0  0  0  0  0  0  0  0  0  0  0
    5.6180   -7.9194   16.1754 O   0  0  0  0  0  0  0  0  0  0  0  0
    9.7259   -5.3080   18.4485 C   0  0  0  0  0  0  0  0  0  0  0  0
    9.4578   -5.0200   16.3036 N   0  0  0  0  0  0  0  0  0  0  0  0
    5.0287   -8.9365   16.8223 C   0  0  0  0  0  0  0  0  0  0  0  0
    8.7742   -6.1498   16.6764 C   0  0  0  0  0  0  0  0  0  0  0  0
   10.9418   -3.4032   21.2053 O   0  0  0  0  0  0  0  0  0  0  0  0
    1.4797   -8.6258   16.2950 C   0  0  0  0  0  0  0  0  0  0  0  0
    9.2861   -1.2743   25.3585 C   0  0  0  0  0  0  0  0  0  0  0  0
    1.8892  -10.3985   17.7511 N   0  0  0  0  0  0  0  0  0  0  0  0
    9.6210   -0.6952   24.0976 C   0  0  0  0  0  0  0  0  0  0  0  0
    7.0792   -9.0217   17.1429 C   0  0  0  0  0  0  0  0  0  0  0  0
    3.1713  -10.1816   17.6634 C   0  0  0  0  0  0  0  0  0  0  0  0
    2.7878   -8.3822   16.2137 C   0  0  0  0  0  0  0  0  0  0  0  0
    9.4601   -2.6590   25.6528 C   0  0  0  0  0  0  0  0  0  0  0  0
   10.1182   -1.5672   23.1165 C   0  0  0  0  0  0  0  0  0  0  0  0
    1.0552   -9.6360   17.0650 C   0  0  0  0  0  0  0  0  0  0  0  0
    3.6519   -9.1783   16.9039 C   0  0  0  0  0  0  0  0  0  0  0  0
    7.8675   -7.0096   15.9415 C   0  0  0  0  0  0  0  0  0  0  0  0
    5.9733   -9.6553   17.3832 N   0  0  0  0  0  0  0  0  0  0  0  0
   10.2411   -2.9363   23.4301 C   0  0  0  0  0  0  0  0  0  0  0  0
   10.7288   -3.8197   19.9525 C   0  0  0  0  0  0  0  0  0  0  0  0
   10.1189   -5.0054   19.6987 C   0  0  0  0  0  0  0  0  0  0  0  0
  1  3  4  0
  1  7  4  0
  2 21  4  0
  2 27  4  0
  3  9  4  0
  3 10  4  0
  4  8  4  0
  4 18  4  0
  4 25  1  0
  5  9  4  0
  5 12  4  0
  6 13  1  0
  6 27  1  0
  7 28  4  0
  8 11  4  0
  9 29  4  0
 10 12  4  0
 11 24  1  0
 11 26  4  0
 12 25  1  0
 13 28  1  0
 14 20  4  0
 14 23  4  0
 15 17  4  0
 15 21  4  0
 16 19  4  0
 16 23  4  0
 17 22  4  0
 18 26  4  0
 19 24  4  0
 20 24  4  0
 22 27  4  0
 28 29  4  0
M  END
$$$$

 Created by Python create_sdf_string function

 29 33  0  0  0  0  0  0  0  0999 V2000
   10.7215   -3.3326   17.6437 C   0  0  0  0  0  0  0  0  0  0  0  0
    9.9489   -3.4675   24.6487 N   0  0  0  0  0  0  0  0  0  0  0  0
   10.0172   -4.4740   17.4101 C   0  0  0  0  0  0  0  0  0  0  0  0
    6.9051   -7.9575   16.4222 C   0  0  0  0  0  0  0  0  0  0  0  0
    8.9969   -6.3552   17.9668 N   0  0  0  0  0  0  0  0  0  0  0  0
   10.6702   -3.9051   22.4070 C   0  0  0  0  0  0  0  0  0  0  0  0
   11.0625   -3.0028   18.8894 C   0  0  0  0  0  0  0  0  0  0  0  0
    5.6180   -7.9194   16.1754 O   0  0  0  0  0  0  0  0  0  0  0  0
    9.7259   -5.3080   18.4485 C   0  0  0  0  0  0  0  0  0  0  0  0
    9.4578   -5.0200   16.3036 N   0  0  0  0  0  0  0  0  0  0  0  0
    5.0287   -8.9365   16.8223 C   0  0  0  0  0  0  0  0  0  0  0  0
    8.7742   -6.1498   16.6764 C   0  0  0  0  0  0  0  0  0  0  0  0
   10.9418   -3.4032   21.2053 O   0  0  0  0  0  0  0  0  0  0  0  0
    1.4797   -8.6258   16.2950 C   0  0  0  0  0  0  0  0  0  0  0  0
    9.2861   -1.2743   25.3585 C   0  0  0  0  0  0  0  0  0  0  0  0
    1.8892  -10.3985   17.7511 N   0  0  0  0  0  0  0  0  0  0  0  0
    9.6210   -0.6952   24.0976 C   0  0  0  0  0  0  0  0  0  0  0  0
    7.0792   -9.0217   17.1429 C   0  0  0  0  0  0  0  0  0  0  0  0
    3.1713  -10.1816   17.6634 C   0  0  0  0  0  0  0  0  0  0  0  0
    2.7878   -8.3822   16.2137 C   0  0  0  0  0  0  0  0  0  0  0  0
    9.4601   -2.6590   25.6528 C   0  0  0  0  0  0  0  0  0  0  0  0
   10.1182   -1.5672   23.1165 C   0  0  0  0  0  0  0  0  0  0  0  0
    1.0552   -9.6360   17.0650 C   0  0  0  0  0  0  0  0  0  0  0  0
    3.6519   -9.1783   16.9039 C   0  0  0  0  0  0  0  0  0  0  0  0
    7.8675   -7.0096   15.9415 C   0  0  0  0  0  0  0  0  0  0  0  0
    5.9733   -9.6553   17.3832 N   0  0  0  0  0  0  0  0  0  0  0  0
   10.2411   -2.9363   23.4301 C   0  0  0  0  0  0  0  0  0  0  0  0
   10.7288   -3.8197   19.9525 C   0  0  0  0  0  0  0  0  0  0  0  0
   10.1189   -5.0054   19.6987 C   0  0  0  0  0  0  0  0  0  0  0  0
  1  3  4  0
  1  7  4  0
  2 21  4  0
  2 27  4  0
  3  9  4  0
  3 10  4  0
  4  8  4  0
  4 18  4  0
  4 25  1  0
  5  9  4  0
  5 12  4  0
  6 13  1  0
  6 27  1  0
  7 28  4  0
  8 11  4  0
  9 29  4  0
 10 12  4  0
 11 24  1  0
 11 26  4  0
 12 25  1  0
 13 28  1  0
 14 20  4  0
 14 23  4  0
 15 17  4  0
 15 21  4  0
 16 19  4  0
 16 23  4  0
 17 22  4  0
 18 26  4  0
 19 24  4  0
 20 24  4  0
 22 27  4  0
 28 29  4  0
M  END
$$$$

 Created by Python create_sdf_string function

 29 33  0  0  0  0  0  0  0  0999 V2000
   10.7215   -3.3326   17.6437 C   0  0  0  0  0  0  0  0  0  0  0  0
    9.9489   -3.4675   24.6487 N   0  0  0  0  0  0  0  0  0  0  0  0
   10.0172   -4.4740   17.4101 C   0  0  0  0  0  0  0  0  0  0  0  0
    6.9051   -7.9575   16.4222 C   0  0  0  0  0  0  0  0  0  0  0  0
    8.9969   -6.3552   17.9668 N   0  0  0  0  0  0  0  0  0  0  0  0
   10.6702   -3.9051   22.4070 C   0  0  0  0  0  0  0  0  0  0  0  0
   11.0625   -3.0028   18.8894 C   0  0  0  0  0  0  0  0  0  0  0  0
    5.6180   -7.9194   16.1754 O   0  0  0  0  0  0  0  0  0  0  0  0
    9.7259   -5.3080   18.4485 C   0  0  0  0  0  0  0  0  0  0  0  0
    9.4578   -5.0200   16.3036 N   0  0  0  0  0  0  0  0  0  0  0  0
    5.0287   -8.9365   16.8223 C   0  0  0  0  0  0  0  0  0  0  0  0
    8.7742   -6.1498   16.6764 C   0  0  0  0  0  0  0  0  0  0  0  0
   10.9418   -3.4032   21.2053 O   0  0  0  0  0  0  0  0  0  0  0  0
    1.4797   -8.6258   16.2950 C   0  0  0  0  0  0  0  0  0  0  0  0
    9.2861   -1.2743   25.3585 C   0  0  0  0  0  0  0  0  0  0  0  0
    1.8892  -10.3985   17.7511 N   0  0  0  0  0  0  0  0  0  0  0  0
    9.6210   -0.6952   24.0976 C   0  0  0  0  0  0  0  0  0  0  0  0
    7.0792   -9.0217   17.1429 C   0  0  0  0  0  0  0  0  0  0  0  0
    3.1713  -10.1816   17.6634 C   0  0  0  0  0  0  0  0  0  0  0  0
    2.7878   -8.3822   16.2137 C   0  0  0  0  0  0  0  0  0  0  0  0
    9.4601   -2.6590   25.6528 C   0  0  0  0  0  0  0  0  0  0  0  0
   10.1182   -1.5672   23.1165 C   0  0  0  0  0  0  0  0  0  0  0  0
    1.0552   -9.6360   17.0650 C   0  0  0  0  0  0  0  0  0  0  0  0
    3.6519   -9.1783   16.9039 C   0  0  0  0  0  0  0  0  0  0  0  0
    7.8675   -7.0096   15.9415 C   0  0  0  0  0  0  0  0  0  0  0  0
    5.9733   -9.6553   17.3832 N   0  0  0  0  0  0  0  0  0  0  0  0
   10.2411   -2.9363   23.4301 C   0  0  0  0  0  0  0  0  0  0  0  0
   10.7288   -3.8197   19.9525 C   0  0  0  0  0  0  0  0  0  0  0  0
   10.1189   -5.0054   19.6987 C   0  0  0  0  0  0  0  0  0  0  0  0
  1  3  4  0
  1  7  4  0
  2 21  4  0
  2 27  4  0
  3  9  4  0
  3 10  4  0
  4  8  4  0
  4 18  4  0
  4 25  1  0
  5  9  4  0
  5 12  4  0
  6 13  1  0
  6 27  1  0
  7 28  4  0
  8 11  4  0
  9 29  4  0
 10 12  4  0
 11 24  1  0
 11 26  4  0
 12 25  1  0
 13 28  1  0
 14 20  4  0
 14 23  4  0
 15 17  4  0
 15 21  4  0
 16 19  4  0
 16 23  4  0
 17 22  4  0
 18 26  4  0
 19 24  4  0
 20 24  4  0
 22 27  4  0
 28 29  4  0
M  END
$$$$

 Created by Python create_sdf_string function

 29 33  0  0  0  0  0  0  0  0999 V2000
   10.7215   -3.3326   17.6437 C   0  0  0  0  0  0  0  0  0  0  0  0
    9.9489   -3.4675   24.6487 N   0  0  0  0  0  0  0  0  0  0  0  0
   10.0172   -4.4740   17.4101 C   0  0  0  0  0  0  0  0  0  0  0  0
    6.9051   -7.9575   16.4222 C   0  0  0  0  0  0  0  0  0  0  0  0
    8.9969   -6.3552   17.9668 N   0  0  0  0  0  0  0  0  0  0  0  0
   10.6702   -3.9051   22.4070 C   0  0  0  0  0  0  0  0  0  0  0  0
   11.0625   -3.0028   18.8894 C   0  0  0  0  0  0  0  0  0  0  0  0
    5.6180   -7.9194   16.1754 O   0  0  0  0  0  0  0  0  0  0  0  0
    9.7259   -5.3080   18.4485 C   0  0  0  0  0  0  0  0  0  0  0  0
    9.4578   -5.0200   16.3036 N   0  0  0  0  0  0  0  0  0  0  0  0
    5.0287   -8.9365   16.8223 C   0  0  0  0  0  0  0  0  0  0  0  0
    8.7742   -6.1498   16.6764 C   0  0  0  0  0  0  0  0  0  0  0  0
   10.9418   -3.4032   21.2053 O   0  0  0  0  0  0  0  0  0  0  0  0
    1.4797   -8.6258   16.2950 C   0  0  0  0  0  0  0  0  0  0  0  0
    9.2861   -1.2743   25.3585 C   0  0  0  0  0  0  0  0  0  0  0  0
    1.8892  -10.3985   17.7511 N   0  0  0  0  0  0  0  0  0  0  0  0
    9.6210   -0.6952   24.0976 C   0  0  0  0  0  0  0  0  0  0  0  0
    7.0792   -9.0217   17.1429 C   0  0  0  0  0  0  0  0  0  0  0  0
    3.1713  -10.1816   17.6634 C   0  0  0  0  0  0  0  0  0  0  0  0
    2.7878   -8.3822   16.2137 C   0  0  0  0  0  0  0  0  0  0  0  0
    9.4601   -2.6590   25.6528 C   0  0  0  0  0  0  0  0  0  0  0  0
   10.1182   -1.5672   23.1165 C   0  0  0  0  0  0  0  0  0  0  0  0
    1.0552   -9.6360   17.0650 C   0  0  0  0  0  0  0  0  0  0  0  0
    3.6519   -9.1783   16.9039 C   0  0  0  0  0  0  0  0  0  0  0  0
    7.8675   -7.0096   15.9415 C   0  0  0  0  0  0  0  0  0  0  0  0
    5.9733   -9.6553   17.3832 N   0  0  0  0  0  0  0  0  0  0  0  0
   10.2411   -2.9363   23.4301 C   0  0  0  0  0  0  0  0  0  0  0  0
   10.7288   -3.8197   19.9525 C   0  0  0  0  0  0  0  0  0  0  0  0
   10.1189   -5.0054   19.6987 C   0  0  0  0  0  0  0  0  0  0  0  0
  1  3  4  0
  1  7  4  0
  2 21  4  0
  2 27  4  0
  3  9  4  0
  3 10  4  0
  4  8  4  0
  4 18  4  0
  4 25  1  0
  5  9  4  0
  5 12  4  0
  6 13  1  0
  6 27  1  0
  7 28  4  0
  8 11  4  0
  9 29  4  0
 10 12  4  0
 11 24  1  0
 11 26  4  0
 12 25  1  0
 13 28  1  0
 14 20  4  0
 14 23  4  0
 15 17  4  0
 15 21  4  0
 16 19  4  0
 16 23  4  0
 17 22  4  0
 18 26  4  0
 19 24  4  0
 20 24  4  0
 22 27  4  0
 28 29  4  0
M  END
$$$$

 Created by Python create_sdf_string function

 29 33  0  0  0  0  0  0  0  0999 V2000
   10.7215   -3.3326   17.6437 C   0  0  0  0  0  0  0  0  0  0  0  0
    9.9489   -3.4675   24.6487 N   0  0  0  0  0  0  0  0  0  0  0  0
   10.0172   -4.4740   17.4101 C   0  0  0  0  0  0  0  0  0  0  0  0
    6.9051   -7.9575   16.4222 C   0  0  0  0  0  0  0  0  0  0  0  0
    8.9969   -6.3552   17.9668 N   0  0  0  0  0  0  0  0  0  0  0  0
   10.6702   -3.9051   22.4070 C   0  0  0  0  0  0  0  0  0  0  0  0
   11.0625   -3.0028   18.8894 C   0  0  0  0  0  0  0  0  0  0  0  0
    5.6180   -7.9194   16.1754 O   0  0  0  0  0  0  0  0  0  0  0  0
    9.7259   -5.3080   18.4485 C   0  0  0  0  0  0  0  0  0  0  0  0
    9.4578   -5.0200   16.3036 N   0  0  0  0  0  0  0  0  0  0  0  0
    5.0287   -8.9365   16.8223 C   0  0  0  0  0  0  0  0  0  0  0  0
    8.7742   -6.1498   16.6764 C   0  0  0  0  0  0  0  0  0  0  0  0
   10.9418   -3.4032   21.2053 O   0  0  0  0  0  0  0  0  0  0  0  0
    1.4797   -8.6258   16.2950 C   0  0  0  0  0  0  0  0  0  0  0  0
    9.2861   -1.2743   25.3585 C   0  0  0  0  0  0  0  0  0  0  0  0
    1.8892  -10.3985   17.7511 N   0  0  0  0  0  0  0  0  0  0  0  0
    9.6210   -0.6952   24.0976 C   0  0  0  0  0  0  0  0  0  0  0  0
    7.0792   -9.0217   17.1429 C   0  0  0  0  0  0  0  0  0  0  0  0
    3.1713  -10.1816   17.6634 C   0  0  0  0  0  0  0  0  0  0  0  0
    2.7878   -8.3822   16.2137 C   0  0  0  0  0  0  0  0  0  0  0  0
    9.4601   -2.6590   25.6528 C   0  0  0  0  0  0  0  0  0  0  0  0
   10.1182   -1.5672   23.1165 C   0  0  0  0  0  0  0  0  0  0  0  0
    1.0552   -9.6360   17.0650 C   0  0  0  0  0  0  0  0  0  0  0  0
    3.6519   -9.1783   16.9039 C   0  0  0  0  0  0  0  0  0  0  0  0
    7.8675   -7.0096   15.9415 C   0  0  0  0  0  0  0  0  0  0  0  0
    5.9733   -9.6553   17.3832 N   0  0  0  0  0  0  0  0  0  0  0  0
   10.2411   -2.9363   23.4301 C   0  0  0  0  0  0  0  0  0  0  0  0
   10.7288   -3.8197   19.9525 C   0  0  0  0  0  0  0  0  0  0  0  0
   10.1189   -5.0054   19.6987 C   0  0  0  0  0  0  0  0  0  0  0  0
  1  3  4  0
  1  7  4  0
  2 21  4  0
  2 27  4  0
  3  9  4  0
  3 10  4  0
  4  8  4  0
  4 18  4  0
  4 25  1  0
  5  9  4  0
  5 12  4  0
  6 13  1  0
  6 27  1  0
  7 28  4  0
  8 11  4  0
  9 29  4  0
 10 12  4  0
 11 24  1  0
 11 26  4  0
 12 25  1  0
 13 28  1  0
 14 20  4  0
 14 23  4  0
 15 17  4  0
 15 21  4  0
 16 19  4  0
 16 23  4  0
 17 22  4  0
 18 26  4  0
 19 24  4  0
 20 24  4  0
 22 27  4  0
 28 29  4  0
M  END
$$$$

 Created by Python create_sdf_string function

 29 33  0  0  0  0  0  0  0  0999 V2000
   10.7215   -3.3326   17.6437 C   0  0  0  0  0  0  0  0  0  0  0  0
    9.9489   -3.4675   24.6487 N   0  0  0  0  0  0  0  0  0  0  0  0
   10.0172   -4.4740   17.4101 C   0  0  0  0  0  0  0  0  0  0  0  0
    6.9051   -7.9575   16.4222 C   0  0  0  0  0  0  0  0  0  0  0  0
    8.9969   -6.3552   17.9668 N   0  0  0  0  0  0  0  0  0  0  0  0
   10.6702   -3.9051   22.4070 C   0  0  0  0  0  0  0  0  0  0  0  0
   11.0625   -3.0028   18.8894 C   0  0  0  0  0  0  0  0  0  0  0  0
    5.6180   -7.9194   16.1754 O   0  0  0  0  0  0  0  0  0  0  0  0
    9.7259   -5.3080   18.4485 C   0  0  0  0  0  0  0  0  0  0  0  0
    9.4578   -5.0200   16.3036 N   0  0  0  0  0  0  0  0  0  0  0  0
    5.0287   -8.9365   16.8223 C   0  0  0  0  0  0  0  0  0  0  0  0
    8.7742   -6.1498   16.6764 C   0  0  0  0  0  0  0  0  0  0  0  0
   10.9418   -3.4032   21.2053 O   0  0  0  0  0  0  0  0  0  0  0  0
    1.4797   -8.6258   16.2950 C   0  0  0  0  0  0  0  0  0  0  0  0
    9.2861   -1.2743   25.3585 C   0  0  0  0  0  0  0  0  0  0  0  0
    1.8892  -10.3985   17.7511 N   0  0  0  0  0  0  0  0  0  0  0  0
    9.6210   -0.6952   24.0976 C   0  0  0  0  0  0  0  0  0  0  0  0
    7.0792   -9.0217   17.1429 C   0  0  0  0  0  0  0  0  0  0  0  0
    3.1713  -10.1816   17.6634 C   0  0  0  0  0  0  0  0  0  0  0  0
    2.7878   -8.3822   16.2137 C   0  0  0  0  0  0  0  0  0  0  0  0
    9.4601   -2.6590   25.6528 C   0  0  0  0  0  0  0  0  0  0  0  0
   10.1182   -1.5672   23.1165 C   0  0  0  0  0  0  0  0  0  0  0  0
    1.0552   -9.6360   17.0650 C   0  0  0  0  0  0  0  0  0  0  0  0
    3.6519   -9.1783   16.9039 C   0  0  0  0  0  0  0  0  0  0  0  0
    7.8675   -7.0096   15.9415 C   0  0  0  0  0  0  0  0  0  0  0  0
    5.9733   -9.6553   17.3832 N   0  0  0  0  0  0  0  0  0  0  0  0
   10.2411   -2.9363   23.4301 C   0  0  0  0  0  0  0  0  0  0  0  0
   10.7288   -3.8197   19.9525 C   0  0  0  0  0  0  0  0  0  0  0  0
   10.1189   -5.0054   19.6987 C   0  0  0  0  0  0  0  0  0  0  0  0
  1  3  4  0
  1  7  4  0
  2 21  4  0
  2 27  4  0
  3  9  4  0
  3 10  4  0
  4  8  4  0
  4 18  4  0
  4 25  1  0
  5  9  4  0
  5 12  4  0
  6 13  1  0
  6 27  1  0
  7 28  4  0
  8 11  4  0
  9 29  4  0
 10 12  4  0
 11 24  1  0
 11 26  4  0
 12 25  1  0
 13 28  1  0
 14 20  4  0
 14 23  4  0
 15 17  4  0
 15 21  4  0
 16 19  4  0
 16 23  4  0
 17 22  4  0
 18 26  4  0
 19 24  4  0
 20 24  4  0
 22 27  4  0
 28 29  4  0
M  END
$$$$

 Created by Python create_sdf_string function

 29 33  0  0  0  0  0  0  0  0999 V2000
   10.7215   -3.3326   17.6437 C   0  0  0  0  0  0  0  0  0  0  0  0
    9.9489   -3.4675   24.6487 N   0  0  0  0  0  0  0  0  0  0  0  0
   10.0172   -4.4740   17.4101 C   0  0  0  0  0  0  0  0  0  0  0  0
    6.9051   -7.9575   16.4222 C   0  0  0  0  0  0  0  0  0  0  0  0
    8.9969   -6.3552   17.9668 N   0  0  0  0  0  0  0  0  0  0  0  0
   10.6702   -3.9051   22.4070 C   0  0  0  0  0  0  0  0  0  0  0  0
   11.0625   -3.0028   18.8894 C   0  0  0  0  0  0  0  0  0  0  0  0
    5.6180   -7.9194   16.1754 O   0  0  0  0  0  0  0  0  0  0  0  0
    9.7259   -5.3080   18.4485 C   0  0  0  0  0  0  0  0  0  0  0  0
    9.4578   -5.0200   16.3036 N   0  0  0  0  0  0  0  0  0  0  0  0
    5.0287   -8.9365   16.8223 C   0  0  0  0  0  0  0  0  0  0  0  0
    8.7742   -6.1498   16.6764 C   0  0  0  0  0  0  0  0  0  0  0  0
   10.9418   -3.4032   21.2053 O   0  0  0  0  0  0  0  0  0  0  0  0
    1.4797   -8.6258   16.2950 C   0  0  0  0  0  0  0  0  0  0  0  0
    9.2861   -1.2743   25.3585 C   0  0  0  0  0  0  0  0  0  0  0  0
    1.8892  -10.3985   17.7511 N   0  0  0  0  0  0  0  0  0  0  0  0
    9.6210   -0.6952   24.0976 C   0  0  0  0  0  0  0  0  0  0  0  0
    7.0792   -9.0217   17.1429 C   0  0  0  0  0  0  0  0  0  0  0  0
    3.1713  -10.1816   17.6634 C   0  0  0  0  0  0  0  0  0  0  0  0
    2.7878   -8.3822   16.2137 C   0  0  0  0  0  0  0  0  0  0  0  0
    9.4601   -2.6590   25.6528 C   0  0  0  0  0  0  0  0  0  0  0  0
   10.1182   -1.5672   23.1165 C   0  0  0  0  0  0  0  0  0  0  0  0
    1.0552   -9.6360   17.0650 C   0  0  0  0  0  0  0  0  0  0  0  0
    3.6519   -9.1783   16.9039 C   0  0  0  0  0  0  0  0  0  0  0  0
    7.8675   -7.0096   15.9415 C   0  0  0  0  0  0  0  0  0  0  0  0
    5.9733   -9.6553   17.3832 N   0  0  0  0  0  0  0  0  0  0  0  0
   10.2411   -2.9363   23.4301 C   0  0  0  0  0  0  0  0  0  0  0  0
   10.7288   -3.8197   19.9525 C   0  0  0  0  0  0  0  0  0  0  0  0
   10.1189   -5.0054   19.6987 C   0  0  0  0  0  0  0  0  0  0  0  0
  1  3  4  0
  1  7  4  0
  2 21  4  0
  2 27  4  0
  3  9  4  0
  3 10  4  0
  4  8  4  0
  4 18  4  0
  4 25  1  0
  5  9  4  0
  5 12  4  0
  6 13  1  0
  6 27  1  0
  7 28  4  0
  8 11  4  0
  9 29  4  0
 10 12  4  0
 11 24  1  0
 11 26  4  0
 12 25  1  0
 13 28  1  0
 14 20  4  0
 14 23  4  0
 15 17  4  0
 15 21  4  0
 16 19  4  0
 16 23  4  0
 17 22  4  0
 18 26  4  0
 19 24  4  0
 20 24  4  0
 22 27  4  0
 28 29  4  0
M  END
$$$$

 Created by Python create_sdf_string function

 29 33  0  0  0  0  0  0  0  0999 V2000
   10.7215   -3.3326   17.6437 C   0  0  0  0  0  0  0  0  0  0  0  0
    9.9489   -3.4675   24.6487 N   0  0  0  0  0  0  0  0  0  0  0  0
   10.0172   -4.4740   17.4101 C   0  0  0  0  0  0  0  0  0  0  0  0
    6.9051   -7.9575   16.4222 C   0  0  0  0  0  0  0  0  0  0  0  0
    8.9969   -6.3552   17.9668 N   0  0  0  0  0  0  0  0  0  0  0  0
   10.6702   -3.9051   22.4070 C   0  0  0  0  0  0  0  0  0  0  0  0
   11.0625   -3.0028   18.8894 C   0  0  0  0  0  0  0  0  0  0  0  0
    5.6180   -7.9194   16.1754 O   0  0  0  0  0  0  0  0  0  0  0  0
    9.7259   -5.3080   18.4485 C   0  0  0  0  0  0  0  0  0  0  0  0
    9.4578   -5.0200   16.3036 N   0  0  0  0  0  0  0  0  0  0  0  0
    5.0287   -8.9365   16.8223 C   0  0  0  0  0  0  0  0  0  0  0  0
    8.7742   -6.1498   16.6764 C   0  0  0  0  0  0  0  0  0  0  0  0
   10.9418   -3.4032   21.2053 O   0  0  0  0  0  0  0  0  0  0  0  0
    1.4797   -8.6258   16.2950 C   0  0  0  0  0  0  0  0  0  0  0  0
    9.2861   -1.2743   25.3585 C   0  0  0  0  0  0  0  0  0  0  0  0
    1.8892  -10.3985   17.7511 N   0  0  0  0  0  0  0  0  0  0  0  0
    9.6210   -0.6952   24.0976 C   0  0  0  0  0  0  0  0  0  0  0  0
    7.0792   -9.0217   17.1429 C   0  0  0  0  0  0  0  0  0  0  0  0
    3.1713  -10.1816   17.6634 C   0  0  0  0  0  0  0  0  0  0  0  0
    2.7878   -8.3822   16.2137 C   0  0  0  0  0  0  0  0  0  0  0  0
    9.4601   -2.6590   25.6528 C   0  0  0  0  0  0  0  0  0  0  0  0
   10.1182   -1.5672   23.1165 C   0  0  0  0  0  0  0  0  0  0  0  0
    1.0552   -9.6360   17.0650 C   0  0  0  0  0  0  0  0  0  0  0  0
    3.6519   -9.1783   16.9039 C   0  0  0  0  0  0  0  0  0  0  0  0
    7.8675   -7.0096   15.9415 C   0  0  0  0  0  0  0  0  0  0  0  0
    5.9733   -9.6553   17.3832 N   0  0  0  0  0  0  0  0  0  0  0  0
   10.2411   -2.9363   23.4301 C   0  0  0  0  0  0  0  0  0  0  0  0
   10.7288   -3.8197   19.9525 C   0  0  0  0  0  0  0  0  0  0  0  0
   10.1189   -5.0054   19.6987 C   0  0  0  0  0  0  0  0  0  0  0  0
  1  3  4  0
  1  7  4  0
  2 21  4  0
  2 27  4  0
  3  9  4  0
  3 10  4  0
  4  8  4  0
  4 18  4  0
  4 25  1  0
  5  9  4  0
  5 12  4  0
  6 13  1  0
  6 27  1  0
  7 28  4  0
  8 11  4  0
  9 29  4  0
 10 12  4  0
 11 24  1  0
 11 26  4  0
 12 25  1  0
 13 28  1  0
 14 20  4  0
 14 23  4  0
 15 17  4  0
 15 21  4  0
 16 19  4  0
 16 23  4  0
 17 22  4  0
 18 26  4  0
 19 24  4  0
 20 24  4  0
 22 27  4  0
 28 29  4  0
M  END
$$$$

 Created by Python create_sdf_string function

 29 33  0  0  0  0  0  0  0  0999 V2000
   10.7215   -3.3326   17.6437 C   0  0  0  0  0  0  0  0  0  0  0  0
    9.9489   -3.4675   24.6487 N   0  0  0  0  0  0  0  0  0  0  0  0
   10.0172   -4.4740   17.4101 C   0  0  0  0  0  0  0  0  0  0  0  0
    6.9051   -7.9575   16.4222 C   0  0  0  0  0  0  0  0  0  0  0  0
    8.9969   -6.3552   17.9668 N   0  0  0  0  0  0  0  0  0  0  0  0
   10.6702   -3.9051   22.4070 C   0  0  0  0  0  0  0  0  0  0  0  0
   11.0625   -3.0028   18.8894 C   0  0  0  0  0  0  0  0  0  0  0  0
    5.6180   -7.9194   16.1754 O   0  0  0  0  0  0  0  0  0  0  0  0
    9.7259   -5.3080   18.4485 C   0  0  0  0  0  0  0  0  0  0  0  0
    9.4578   -5.0200   16.3036 N   0  0  0  0  0  0  0  0  0  0  0  0
    5.0287   -8.9365   16.8223 C   0  0  0  0  0  0  0  0  0  0  0  0
    8.7742   -6.1498   16.6764 C   0  0  0  0  0  0  0  0  0  0  0  0
   10.9418   -3.4032   21.2053 O   0  0  0  0  0  0  0  0  0  0  0  0
    1.4797   -8.6258   16.2950 C   0  0  0  0  0  0  0  0  0  0  0  0
    9.2861   -1.2743   25.3585 C   0  0  0  0  0  0  0  0  0  0  0  0
    1.8892  -10.3985   17.7511 N   0  0  0  0  0  0  0  0  0  0  0  0
    9.6210   -0.6952   24.0976 C   0  0  0  0  0  0  0  0  0  0  0  0
    7.0792   -9.0217   17.1429 C   0  0  0  0  0  0  0  0  0  0  0  0
    3.1713  -10.1816   17.6634 C   0  0  0  0  0  0  0  0  0  0  0  0
    2.7878   -8.3822   16.2137 C   0  0  0  0  0  0  0  0  0  0  0  0
    9.4601   -2.6590   25.6528 C   0  0  0  0  0  0  0  0  0  0  0  0
   10.1182   -1.5672   23.1165 C   0  0  0  0  0  0  0  0  0  0  0  0
    1.0552   -9.6360   17.0650 C   0  0  0  0  0  0  0  0  0  0  0  0
    3.6519   -9.1783   16.9039 C   0  0  0  0  0  0  0  0  0  0  0  0
    7.8675   -7.0096   15.9415 C   0  0  0  0  0  0  0  0  0  0  0  0
    5.9733   -9.6553   17.3832 N   0  0  0  0  0  0  0  0  0  0  0  0
   10.2411   -2.9363   23.4301 C   0  0  0  0  0  0  0  0  0  0  0  0
   10.7288   -3.8197   19.9525 C   0  0  0  0  0  0  0  0  0  0  0  0
   10.1189   -5.0054   19.6987 C   0  0  0  0  0  0  0  0  0  0  0  0
  1  3  4  0
  1  7  4  0
  2 21  4  0
  2 27  4  0
  3  9  4  0
  3 10  4  0
  4  8  4  0
  4 18  4  0
  4 25  1  0
  5  9  4  0
  5 12  4  0
  6 13  1  0
  6 27  1  0
  7 28  4  0
  8 11  4  0
  9 29  4  0
 10 12  4  0
 11 24  1  0
 11 26  4  0
 12 25  1  0
 13 28  1  0
 14 20  4  0
 14 23  4  0
 15 17  4  0
 15 21  4  0
 16 19  4  0
 16 23  4  0
 17 22  4  0
 18 26  4  0
 19 24  4  0
 20 24  4  0
 22 27  4  0
 28 29  4  0
M  END
$$$$

 Created by Python create_sdf_string function

 29 33  0  0  0  0  0  0  0  0999 V2000
   10.7215   -3.3326   17.6437 C   0  0  0  0  0  0  0  0  0  0  0  0
    9.9489   -3.4675   24.6487 N   0  0  0  0  0  0  0  0  0  0  0  0
   10.0172   -4.4740   17.4101 C   0  0  0  0  0  0  0  0  0  0  0  0
    6.9051   -7.9575   16.4222 C   0  0  0  0  0  0  0  0  0  0  0  0
    8.9969   -6.3552   17.9668 N   0  0  0  0  0  0  0  0  0  0  0  0
   10.6702   -3.9051   22.4070 C   0  0  0  0  0  0  0  0  0  0  0  0
   11.0625   -3.0028   18.8894 C   0  0  0  0  0  0  0  0  0  0  0  0
    5.6180   -7.9194   16.1754 O   0  0  0  0  0  0  0  0  0  0  0  0
    9.7259   -5.3080   18.4485 C   0  0  0  0  0  0  0  0  0  0  0  0
    9.4578   -5.0200   16.3036 N   0  0  0  0  0  0  0  0  0  0  0  0
    5.0287   -8.9365   16.8223 C   0  0  0  0  0  0  0  0  0  0  0  0
    8.7742   -6.1498   16.6764 C   0  0  0  0  0  0  0  0  0  0  0  0
   10.9418   -3.4032   21.2053 O   0  0  0  0  0  0  0  0  0  0  0  0
    1.4797   -8.6258   16.2950 C   0  0  0  0  0  0  0  0  0  0  0  0
    9.2861   -1.2743   25.3585 C   0  0  0  0  0  0  0  0  0  0  0  0
    1.8892  -10.3985   17.7511 N   0  0  0  0  0  0  0  0  0  0  0  0
    9.6210   -0.6952   24.0976 C   0  0  0  0  0  0  0  0  0  0  0  0
    7.0792   -9.0217   17.1429 C   0  0  0  0  0  0  0  0  0  0  0  0
    3.1713  -10.1816   17.6634 C   0  0  0  0  0  0  0  0  0  0  0  0
    2.7878   -8.3822   16.2137 C   0  0  0  0  0  0  0  0  0  0  0  0
    9.4601   -2.6590   25.6528 C   0  0  0  0  0  0  0  0  0  0  0  0
   10.1182   -1.5672   23.1165 C   0  0  0  0  0  0  0  0  0  0  0  0
    1.0552   -9.6360   17.0650 C   0  0  0  0  0  0  0  0  0  0  0  0
    3.6519   -9.1783   16.9039 C   0  0  0  0  0  0  0  0  0  0  0  0
    7.8675   -7.0096   15.9415 C   0  0  0  0  0  0  0  0  0  0  0  0
    5.9733   -9.6553   17.3832 N   0  0  0  0  0  0  0  0  0  0  0  0
   10.2411   -2.9363   23.4301 C   0  0  0  0  0  0  0  0  0  0  0  0
   10.7288   -3.8197   19.9525 C   0  0  0  0  0  0  0  0  0  0  0  0
   10.1189   -5.0054   19.6987 C   0  0  0  0  0  0  0  0  0  0  0  0
  1  3  4  0
  1  7  4  0
  2 21  4  0
  2 27  4  0
  3  9  4  0
  3 10  4  0
  4  8  4  0
  4 18  4  0
  4 25  1  0
  5  9  4  0
  5 12  4  0
  6 13  1  0
  6 27  1  0
  7 28  4  0
  8 11  4  0
  9 29  4  0
 10 12  4  0
 11 24  1  0
 11 26  4  0
 12 25  1  0
 13 28  1  0
 14 20  4  0
 14 23  4  0
 15 17  4  0
 15 21  4  0
 16 19  4  0
 16 23  4  0
 17 22  4  0
 18 26  4  0
 19 24  4  0
 20 24  4  0
 22 27  4  0
 28 29  4  0
M  END
$$$$

 Created by Python create_sdf_string function

 29 33  0  0  0  0  0  0  0  0999 V2000
   10.7215   -3.3326   17.6437 C   0  0  0  0  0  0  0  0  0  0  0  0
    9.9489   -3.4675   24.6487 N   0  0  0  0  0  0  0  0  0  0  0  0
   10.0172   -4.4740   17.4101 C   0  0  0  0  0  0  0  0  0  0  0  0
    6.9051   -7.9575   16.4222 C   0  0  0  0  0  0  0  0  0  0  0  0
    8.9969   -6.3552   17.9668 N   0  0  0  0  0  0  0  0  0  0  0  0
   10.6702   -3.9051   22.4070 C   0  0  0  0  0  0  0  0  0  0  0  0
   11.0625   -3.0028   18.8894 C   0  0  0  0  0  0  0  0  0  0  0  0
    5.6180   -7.9194   16.1754 O   0  0  0  0  0  0  0  0  0  0  0  0
    9.7259   -5.3080   18.4485 C   0  0  0  0  0  0  0  0  0  0  0  0
    9.4578   -5.0200   16.3036 N   0  0  0  0  0  0  0  0  0  0  0  0
    5.0287   -8.9365   16.8223 C   0  0  0  0  0  0  0  0  0  0  0  0
    8.7742   -6.1498   16.6764 C   0  0  0  0  0  0  0  0  0  0  0  0
   10.9418   -3.4032   21.2053 O   0  0  0  0  0  0  0  0  0  0  0  0
    1.4797   -8.6258   16.2950 C   0  0  0  0  0  0  0  0  0  0  0  0
    9.2861   -1.2743   25.3585 C   0  0  0  0  0  0  0  0  0  0  0  0
    1.8892  -10.3985   17.7511 N   0  0  0  0  0  0  0  0  0  0  0  0
    9.6210   -0.6952   24.0976 C   0  0  0  0  0  0  0  0  0  0  0  0
    7.0792   -9.0217   17.1429 C   0  0  0  0  0  0  0  0  0  0  0  0
    3.1713  -10.1816   17.6634 C   0  0  0  0  0  0  0  0  0  0  0  0
    2.7878   -8.3822   16.2137 C   0  0  0  0  0  0  0  0  0  0  0  0
    9.4601   -2.6590   25.6528 C   0  0  0  0  0  0  0  0  0  0  0  0
   10.1182   -1.5672   23.1165 C   0  0  0  0  0  0  0  0  0  0  0  0
    1.0552   -9.6360   17.0650 C   0  0  0  0  0  0  0  0  0  0  0  0
    3.6519   -9.1783   16.9039 C   0  0  0  0  0  0  0  0  0  0  0  0
    7.8675   -7.0096   15.9415 C   0  0  0  0  0  0  0  0  0  0  0  0
    5.9733   -9.6553   17.3832 N   0  0  0  0  0  0  0  0  0  0  0  0
   10.2411   -2.9363   23.4301 C   0  0  0  0  0  0  0  0  0  0  0  0
   10.7288   -3.8197   19.9525 C   0  0  0  0  0  0  0  0  0  0  0  0
   10.1189   -5.0054   19.6987 C   0  0  0  0  0  0  0  0  0  0  0  0
  1  3  4  0
  1  7  4  0
  2 21  4  0
  2 27  4  0
  3  9  4  0
  3 10  4  0
  4  8  4  0
  4 18  4  0
  4 25  1  0
  5  9  4  0
  5 12  4  0
  6 13  1  0
  6 27  1  0
  7 28  4  0
  8 11  4  0
  9 29  4  0
 10 12  4  0
 11 24  1  0
 11 26  4  0
 12 25  1  0
 13 28  1  0
 14 20  4  0
 14 23  4  0
 15 17  4  0
 15 21  4  0
 16 19  4  0
 16 23  4  0
 17 22  4  0
 18 26  4  0
 19 24  4  0
 20 24  4  0
 22 27  4  0
 28 29  4  0
M  END
$$$$

 Created by Python create_sdf_string function

 29 33  0  0  0  0  0  0  0  0999 V2000
   10.7215   -3.3326   17.6437 C   0  0  0  0  0  0  0  0  0  0  0  0
    9.9489   -3.4675   24.6487 N   0  0  0  0  0  0  0  0  0  0  0  0
   10.0172   -4.4740   17.4101 C   0  0  0  0  0  0  0  0  0  0  0  0
    6.9051   -7.9575   16.4222 C   0  0  0  0  0  0  0  0  0  0  0  0
    8.9969   -6.3552   17.9668 N   0  0  0  0  0  0  0  0  0  0  0  0
   10.6702   -3.9051   22.4070 C   0  0  0  0  0  0  0  0  0  0  0  0
   11.0625   -3.0028   18.8894 C   0  0  0  0  0  0  0  0  0  0  0  0
    5.6180   -7.9194   16.1754 O   0  0  0  0  0  0  0  0  0  0  0  0
    9.7259   -5.3080   18.4485 C   0  0  0  0  0  0  0  0  0  0  0  0
    9.4578   -5.0200   16.3036 N   0  0  0  0  0  0  0  0  0  0  0  0
    5.0287   -8.9365   16.8223 C   0  0  0  0  0  0  0  0  0  0  0  0
    8.7742   -6.1498   16.6764 C   0  0  0  0  0  0  0  0  0  0  0  0
   10.9418   -3.4032   21.2053 O   0  0  0  0  0  0  0  0  0  0  0  0
    1.4797   -8.6258   16.2950 C   0  0  0  0  0  0  0  0  0  0  0  0
    9.2861   -1.2743   25.3585 C   0  0  0  0  0  0  0  0  0  0  0  0
    1.8892  -10.3985   17.7511 N   0  0  0  0  0  0  0  0  0  0  0  0
    9.6210   -0.6952   24.0976 C   0  0  0  0  0  0  0  0  0  0  0  0
    7.0792   -9.0217   17.1429 C   0  0  0  0  0  0  0  0  0  0  0  0
    3.1713  -10.1816   17.6634 C   0  0  0  0  0  0  0  0  0  0  0  0
    2.7878   -8.3822   16.2137 C   0  0  0  0  0  0  0  0  0  0  0  0
    9.4601   -2.6590   25.6528 C   0  0  0  0  0  0  0  0  0  0  0  0
   10.1182   -1.5672   23.1165 C   0  0  0  0  0  0  0  0  0  0  0  0
    1.0552   -9.6360   17.0650 C   0  0  0  0  0  0  0  0  0  0  0  0
    3.6519   -9.1783   16.9039 C   0  0  0  0  0  0  0  0  0  0  0  0
    7.8675   -7.0096   15.9415 C   0  0  0  0  0  0  0  0  0  0  0  0
    5.9733   -9.6553   17.3832 N   0  0  0  0  0  0  0  0  0  0  0  0
   10.2411   -2.9363   23.4301 C   0  0  0  0  0  0  0  0  0  0  0  0
   10.7288   -3.8197   19.9525 C   0  0  0  0  0  0  0  0  0  0  0  0
   10.1189   -5.0054   19.6987 C   0  0  0  0  0  0  0  0  0  0  0  0
  1  3  4  0
  1  7  4  0
  2 21  4  0
  2 27  4  0
  3  9  4  0
  3 10  4  0
  4  8  4  0
  4 18  4  0
  4 25  1  0
  5  9  4  0
  5 12  4  0
  6 13  1  0
  6 27  1  0
  7 28  4  0
  8 11  4  0
  9 29  4  0
 10 12  4  0
 11 24  1  0
 11 26  4  0
 12 25  1  0
 13 28  1  0
 14 20  4  0
 14 23  4  0
 15 17  4  0
 15 21  4  0
 16 19  4  0
 16 23  4  0
 17 22  4  0
 18 26  4  0
 19 24  4  0
 20 24  4  0
 22 27  4  0
 28 29  4  0
M  END
$$$$

 Created by Python create_sdf_string function

 29 33  0  0  0  0  0  0  0  0999 V2000
   10.7215   -3.3326   17.6437 C   0  0  0  0  0  0  0  0  0  0  0  0
    9.9489   -3.4675   24.6487 N   0  0  0  0  0  0  0  0  0  0  0  0
   10.0172   -4.4740   17.4101 C   0  0  0  0  0  0  0  0  0  0  0  0
    6.9051   -7.9575   16.4222 C   0  0  0  0  0  0  0  0  0  0  0  0
    8.9969   -6.3552   17.9668 N   0  0  0  0  0  0  0  0  0  0  0  0
   10.6702   -3.9051   22.4070 C   0  0  0  0  0  0  0  0  0  0  0  0
   11.0625   -3.0028   18.8894 C   0  0  0  0  0  0  0  0  0  0  0  0
    5.6180   -7.9194   16.1754 O   0  0  0  0  0  0  0  0  0  0  0  0
    9.7259   -5.3080   18.4485 C   0  0  0  0  0  0  0  0  0  0  0  0
    9.4578   -5.0200   16.3036 N   0  0  0  0  0  0  0  0  0  0  0  0
    5.0287   -8.9365   16.8223 C   0  0  0  0  0  0  0  0  0  0  0  0
    8.7742   -6.1498   16.6764 C   0  0  0  0  0  0  0  0  0  0  0  0
   10.9418   -3.4032   21.2053 O   0  0  0  0  0  0  0  0  0  0  0  0
    1.4797   -8.6258   16.2950 C   0  0  0  0  0  0  0  0  0  0  0  0
    9.2861   -1.2743   25.3585 C   0  0  0  0  0  0  0  0  0  0  0  0
    1.8892  -10.3985   17.7511 N   0  0  0  0  0  0  0  0  0  0  0  0
    9.6210   -0.6952   24.0976 C   0  0  0  0  0  0  0  0  0  0  0  0
    7.0792   -9.0217   17.1429 C   0  0  0  0  0  0  0  0  0  0  0  0
    3.1713  -10.1816   17.6634 C   0  0  0  0  0  0  0  0  0  0  0  0
    2.7878   -8.3822   16.2137 C   0  0  0  0  0  0  0  0  0  0  0  0
    9.4601   -2.6590   25.6528 C   0  0  0  0  0  0  0  0  0  0  0  0
   10.1182   -1.5672   23.1165 C   0  0  0  0  0  0  0  0  0  0  0  0
    1.0552   -9.6360   17.0650 C   0  0  0  0  0  0  0  0  0  0  0  0
    3.6519   -9.1783   16.9039 C   0  0  0  0  0  0  0  0  0  0  0  0
    7.8675   -7.0096   15.9415 C   0  0  0  0  0  0  0  0  0  0  0  0
    5.9733   -9.6553   17.3832 N   0  0  0  0  0  0  0  0  0  0  0  0
   10.2411   -2.9363   23.4301 C   0  0  0  0  0  0  0  0  0  0  0  0
   10.7288   -3.8197   19.9525 C   0  0  0  0  0  0  0  0  0  0  0  0
   10.1189   -5.0054   19.6987 C   0  0  0  0  0  0  0  0  0  0  0  0
  1  3  4  0
  1  7  4  0
  2 21  4  0
  2 27  4  0
  3  9  4  0
  3 10  4  0
  4  8  4  0
  4 18  4  0
  4 25  1  0
  5  9  4  0
  5 12  4  0
  6 13  1  0
  6 27  1  0
  7 28  4  0
  8 11  4  0
  9 29  4  0
 10 12  4  0
 11 24  1  0
 11 26  4  0
 12 25  1  0
 13 28  1  0
 14 20  4  0
 14 23  4  0
 15 17  4  0
 15 21  4  0
 16 19  4  0
 16 23  4  0
 17 22  4  0
 18 26  4  0
 19 24  4  0
 20 24  4  0
 22 27  4  0
 28 29  4  0
M  END
$$$$

 Created by Python create_sdf_string function

 29 33  0  0  0  0  0  0  0  0999 V2000
   10.7215   -3.3326   17.6437 C   0  0  0  0  0  0  0  0  0  0  0  0
    9.9489   -3.4675   24.6487 N   0  0  0  0  0  0  0  0  0  0  0  0
   10.0172   -4.4740   17.4101 C   0  0  0  0  0  0  0  0  0  0  0  0
    6.9051   -7.9575   16.4222 C   0  0  0  0  0  0  0  0  0  0  0  0
    8.9969   -6.3552   17.9668 N   0  0  0  0  0  0  0  0  0  0  0  0
   10.6702   -3.9051   22.4070 C   0  0  0  0  0  0  0  0  0  0  0  0
   11.0625   -3.0028   18.8894 C   0  0  0  0  0  0  0  0  0  0  0  0
    5.6180   -7.9194   16.1754 O   0  0  0  0  0  0  0  0  0  0  0  0
    9.7259   -5.3080   18.4485 C   0  0  0  0  0  0  0  0  0  0  0  0
    9.4578   -5.0200   16.3036 N   0  0  0  0  0  0  0  0  0  0  0  0
    5.0287   -8.9365   16.8223 C   0  0  0  0  0  0  0  0  0  0  0  0
    8.7742   -6.1498   16.6764 C   0  0  0  0  0  0  0  0  0  0  0  0
   10.9418   -3.4032   21.2053 O   0  0  0  0  0  0  0  0  0  0  0  0
    1.4797   -8.6258   16.2950 C   0  0  0  0  0  0  0  0  0  0  0  0
    9.2861   -1.2743   25.3585 C   0  0  0  0  0  0  0  0  0  0  0  0
    1.8892  -10.3985   17.7511 N   0  0  0  0  0  0  0  0  0  0  0  0
    9.6210   -0.6952   24.0976 C   0  0  0  0  0  0  0  0  0  0  0  0
    7.0792   -9.0217   17.1429 C   0  0  0  0  0  0  0  0  0  0  0  0
    3.1713  -10.1816   17.6634 C   0  0  0  0  0  0  0  0  0  0  0  0
    2.7878   -8.3822   16.2137 C   0  0  0  0  0  0  0  0  0  0  0  0
    9.4601   -2.6590   25.6528 C   0  0  0  0  0  0  0  0  0  0  0  0
   10.1182   -1.5672   23.1165 C   0  0  0  0  0  0  0  0  0  0  0  0
    1.0552   -9.6360   17.0650 C   0  0  0  0  0  0  0  0  0  0  0  0
    3.6519   -9.1783   16.9039 C   0  0  0  0  0  0  0  0  0  0  0  0
    7.8675   -7.0096   15.9415 C   0  0  0  0  0  0  0  0  0  0  0  0
    5.9733   -9.6553   17.3832 N   0  0  0  0  0  0  0  0  0  0  0  0
   10.2411   -2.9363   23.4301 C   0  0  0  0  0  0  0  0  0  0  0  0
   10.7288   -3.8197   19.9525 C   0  0  0  0  0  0  0  0  0  0  0  0
   10.1189   -5.0054   19.6987 C   0  0  0  0  0  0  0  0  0  0  0  0
  1  3  4  0
  1  7  4  0
  2 21  4  0
  2 27  4  0
  3  9  4  0
  3 10  4  0
  4  8  4  0
  4 18  4  0
  4 25  1  0
  5  9  4  0
  5 12  4  0
  6 13  1  0
  6 27  1  0
  7 28  4  0
  8 11  4  0
  9 29  4  0
 10 12  4  0
 11 24  1  0
 11 26  4  0
 12 25  1  0
 13 28  1  0
 14 20  4  0
 14 23  4  0
 15 17  4  0
 15 21  4  0
 16 19  4  0
 16 23  4  0
 17 22  4  0
 18 26  4  0
 19 24  4  0
 20 24  4  0
 22 27  4  0
 28 29  4  0
M  END
$$$$

 Created by Python create_sdf_string function

 29 33  0  0  0  0  0  0  0  0999 V2000
   10.7215   -3.3326   17.6437 C   0  0  0  0  0  0  0  0  0  0  0  0
    9.9489   -3.4675   24.6487 N   0  0  0  0  0  0  0  0  0  0  0  0
   10.0172   -4.4740   17.4101 C   0  0  0  0  0  0  0  0  0  0  0  0
    6.9051   -7.9575   16.4222 C   0  0  0  0  0  0  0  0  0  0  0  0
    8.9969   -6.3552   17.9668 N   0  0  0  0  0  0  0  0  0  0  0  0
   10.6702   -3.9051   22.4070 C   0  0  0  0  0  0  0  0  0  0  0  0
   11.0625   -3.0028   18.8894 C   0  0  0  0  0  0  0  0  0  0  0  0
    5.6180   -7.9194   16.1754 O   0  0  0  0  0  0  0  0  0  0  0  0
    9.7259   -5.3080   18.4485 C   0  0  0  0  0  0  0  0  0  0  0  0
    9.4578   -5.0200   16.3036 N   0  0  0  0  0  0  0  0  0  0  0  0
    5.0287   -8.9365   16.8223 C   0  0  0  0  0  0  0  0  0  0  0  0
    8.7742   -6.1498   16.6764 C   0  0  0  0  0  0  0  0  0  0  0  0
   10.9418   -3.4032   21.2053 O   0  0  0  0  0  0  0  0  0  0  0  0
    1.4797   -8.6258   16.2950 C   0  0  0  0  0  0  0  0  0  0  0  0
    9.2861   -1.2743   25.3585 C   0  0  0  0  0  0  0  0  0  0  0  0
    1.8892  -10.3985   17.7511 N   0  0  0  0  0  0  0  0  0  0  0  0
    9.6210   -0.6952   24.0976 C   0  0  0  0  0  0  0  0  0  0  0  0
    7.0792   -9.0217   17.1429 C   0  0  0  0  0  0  0  0  0  0  0  0
    3.1713  -10.1816   17.6634 C   0  0  0  0  0  0  0  0  0  0  0  0
    2.7878   -8.3822   16.2137 C   0  0  0  0  0  0  0  0  0  0  0  0
    9.4601   -2.6590   25.6528 C   0  0  0  0  0  0  0  0  0  0  0  0
   10.1182   -1.5672   23.1165 C   0  0  0  0  0  0  0  0  0  0  0  0
    1.0552   -9.6360   17.0650 C   0  0  0  0  0  0  0  0  0  0  0  0
    3.6519   -9.1783   16.9039 C   0  0  0  0  0  0  0  0  0  0  0  0
    7.8675   -7.0096   15.9415 C   0  0  0  0  0  0  0  0  0  0  0  0
    5.9733   -9.6553   17.3832 N   0  0  0  0  0  0  0  0  0  0  0  0
   10.2411   -2.9363   23.4301 C   0  0  0  0  0  0  0  0  0  0  0  0
   10.7288   -3.8197   19.9525 C   0  0  0  0  0  0  0  0  0  0  0  0
   10.1189   -5.0054   19.6987 C   0  0  0  0  0  0  0  0  0  0  0  0
  1  3  4  0
  1  7  4  0
  2 21  4  0
  2 27  4  0
  3  9  4  0
  3 10  4  0
  4  8  4  0
  4 18  4  0
  4 25  1  0
  5  9  4  0
  5 12  4  0
  6 13  1  0
  6 27  1  0
  7 28  4  0
  8 11  4  0
  9 29  4  0
 10 12  4  0
 11 24  1  0
 11 26  4  0
 12 25  1  0
 13 28  1  0
 14 20  4  0
 14 23  4  0
 15 17  4  0
 15 21  4  0
 16 19  4  0
 16 23  4  0
 17 22  4  0
 18 26  4  0
 19 24  4  0
 20 24  4  0
 22 27  4  0
 28 29  4  0
M  END
$$$$

 Created by Python create_sdf_string function

 29 33  0  0  0  0  0  0  0  0999 V2000
   10.7215   -3.3326   17.6437 C   0  0  0  0  0  0  0  0  0  0  0  0
    9.9489   -3.4675   24.6487 N   0  0  0  0  0  0  0  0  0  0  0  0
   10.0172   -4.4740   17.4101 C   0  0  0  0  0  0  0  0  0  0  0  0
    6.9051   -7.9575   16.4222 C   0  0  0  0  0  0  0  0  0  0  0  0
    8.9969   -6.3552   17.9668 N   0  0  0  0  0  0  0  0  0  0  0  0
   10.6702   -3.9051   22.4070 C   0  0  0  0  0  0  0  0  0  0  0  0
   11.0625   -3.0028   18.8894 C   0  0  0  0  0  0  0  0  0  0  0  0
    5.6180   -7.9194   16.1754 O   0  0  0  0  0  0  0  0  0  0  0  0
    9.7259   -5.3080   18.4485 C   0  0  0  0  0  0  0  0  0  0  0  0
    9.4578   -5.0200   16.3036 N   0  0  0  0  0  0  0  0  0  0  0  0
    5.0287   -8.9365   16.8223 C   0  0  0  0  0  0  0  0  0  0  0  0
    8.7742   -6.1498   16.6764 C   0  0  0  0  0  0  0  0  0  0  0  0
   10.9418   -3.4032   21.2053 O   0  0  0  0  0  0  0  0  0  0  0  0
    1.4797   -8.6258   16.2950 C   0  0  0  0  0  0  0  0  0  0  0  0
    9.2861   -1.2743   25.3585 C   0  0  0  0  0  0  0  0  0  0  0  0
    1.8892  -10.3985   17.7511 N   0  0  0  0  0  0  0  0  0  0  0  0
    9.6210   -0.6952   24.0976 C   0  0  0  0  0  0  0  0  0  0  0  0
    7.0792   -9.0217   17.1429 C   0  0  0  0  0  0  0  0  0  0  0  0
    3.1713  -10.1816   17.6634 C   0  0  0  0  0  0  0  0  0  0  0  0
    2.7878   -8.3822   16.2137 C   0  0  0  0  0  0  0  0  0  0  0  0
    9.4601   -2.6590   25.6528 C   0  0  0  0  0  0  0  0  0  0  0  0
   10.1182   -1.5672   23.1165 C   0  0  0  0  0  0  0  0  0  0  0  0
    1.0552   -9.6360   17.0650 C   0  0  0  0  0  0  0  0  0  0  0  0
    3.6519   -9.1783   16.9039 C   0  0  0  0  0  0  0  0  0  0  0  0
    7.8675   -7.0096   15.9415 C   0  0  0  0  0  0  0  0  0  0  0  0
    5.9733   -9.6553   17.3832 N   0  0  0  0  0  0  0  0  0  0  0  0
   10.2411   -2.9363   23.4301 C   0  0  0  0  0  0  0  0  0  0  0  0
   10.7288   -3.8197   19.9525 C   0  0  0  0  0  0  0  0  0  0  0  0
   10.1189   -5.0054   19.6987 C   0  0  0  0  0  0  0  0  0  0  0  0
  1  3  4  0
  1  7  4  0
  2 21  4  0
  2 27  4  0
  3  9  4  0
  3 10  4  0
  4  8  4  0
  4 18  4  0
  4 25  1  0
  5  9  4  0
  5 12  4  0
  6 13  1  0
  6 27  1  0
  7 28  4  0
  8 11  4  0
  9 29  4  0
 10 12  4  0
 11 24  1  0
 11 26  4  0
 12 25  1  0
 13 28  1  0
 14 20  4  0
 14 23  4  0
 15 17  4  0
 15 21  4  0
 16 19  4  0
 16 23  4  0
 17 22  4  0
 18 26  4  0
 19 24  4  0
 20 24  4  0
 22 27  4  0
 28 29  4  0
M  END
$$$$

 Created by Python create_sdf_string function

 29 33  0  0  0  0  0  0  0  0999 V2000
   10.7215   -3.3326   17.6437 C   0  0  0  0  0  0  0  0  0  0  0  0
    9.9489   -3.4675   24.6487 N   0  0  0  0  0  0  0  0  0  0  0  0
   10.0172   -4.4740   17.4101 C   0  0  0  0  0  0  0  0  0  0  0  0
    6.9051   -7.9575   16.4222 C   0  0  0  0  0  0  0  0  0  0  0  0
    8.9969   -6.3552   17.9668 N   0  0  0  0  0  0  0  0  0  0  0  0
   10.6702   -3.9051   22.4070 C   0  0  0  0  0  0  0  0  0  0  0  0
   11.0625   -3.0028   18.8894 C   0  0  0  0  0  0  0  0  0  0  0  0
    5.6180   -7.9194   16.1754 O   0  0  0  0  0  0  0  0  0  0  0  0
    9.7259   -5.3080   18.4485 C   0  0  0  0  0  0  0  0  0  0  0  0
    9.4578   -5.0200   16.3036 N   0  0  0  0  0  0  0  0  0  0  0  0
    5.0287   -8.9365   16.8223 C   0  0  0  0  0  0  0  0  0  0  0  0
    8.7742   -6.1498   16.6764 C   0  0  0  0  0  0  0  0  0  0  0  0
   10.9418   -3.4032   21.2053 O   0  0  0  0  0  0  0  0  0  0  0  0
    1.4797   -8.6258   16.2950 C   0  0  0  0  0  0  0  0  0  0  0  0
    9.2861   -1.2743   25.3585 C   0  0  0  0  0  0  0  0  0  0  0  0
    1.8892  -10.3985   17.7511 N   0  0  0  0  0  0  0  0  0  0  0  0
    9.6210   -0.6952   24.0976 C   0  0  0  0  0  0  0  0  0  0  0  0
    7.0792   -9.0217   17.1429 C   0  0  0  0  0  0  0  0  0  0  0  0
    3.1713  -10.1816   17.6634 C   0  0  0  0  0  0  0  0  0  0  0  0
    2.7878   -8.3822   16.2137 C   0  0  0  0  0  0  0  0  0  0  0  0
    9.4601   -2.6590   25.6528 C   0  0  0  0  0  0  0  0  0  0  0  0
   10.1182   -1.5672   23.1165 C   0  0  0  0  0  0  0  0  0  0  0  0
    1.0552   -9.6360   17.0650 C   0  0  0  0  0  0  0  0  0  0  0  0
    3.6519   -9.1783   16.9039 C   0  0  0  0  0  0  0  0  0  0  0  0
    7.8675   -7.0096   15.9415 C   0  0  0  0  0  0  0  0  0  0  0  0
    5.9733   -9.6553   17.3832 N   0  0  0  0  0  0  0  0  0  0  0  0
   10.2411   -2.9363   23.4301 C   0  0  0  0  0  0  0  0  0  0  0  0
   10.7288   -3.8197   19.9525 C   0  0  0  0  0  0  0  0  0  0  0  0
   10.1189   -5.0054   19.6987 C   0  0  0  0  0  0  0  0  0  0  0  0
  1  3  4  0
  1  7  4  0
  2 21  4  0
  2 27  4  0
  3  9  4  0
  3 10  4  0
  4  8  4  0
  4 18  4  0
  4 25  1  0
  5  9  4  0
  5 12  4  0
  6 13  1  0
  6 27  1  0
  7 28  4  0
  8 11  4  0
  9 29  4  0
 10 12  4  0
 11 24  1  0
 11 26  4  0
 12 25  1  0
 13 28  1  0
 14 20  4  0
 14 23  4  0
 15 17  4  0
 15 21  4  0
 16 19  4  0
 16 23  4  0
 17 22  4  0
 18 26  4  0
 19 24  4  0
 20 24  4  0
 22 27  4  0
 28 29  4  0
M  END
$$$$

 Created by Python create_sdf_string function

 29 33  0  0  0  0  0  0  0  0999 V2000
   10.7215   -3.3326   17.6437 C   0  0  0  0  0  0  0  0  0  0  0  0
    9.9489   -3.4675   24.6487 N   0  0  0  0  0  0  0  0  0  0  0  0
   10.0172   -4.4740   17.4101 C   0  0  0  0  0  0  0  0  0  0  0  0
    6.9051   -7.9575   16.4222 C   0  0  0  0  0  0  0  0  0  0  0  0
    8.9969   -6.3552   17.9668 N   0  0  0  0  0  0  0  0  0  0  0  0
   10.6702   -3.9051   22.4070 C   0  0  0  0  0  0  0  0  0  0  0  0
   11.0625   -3.0028   18.8894 C   0  0  0  0  0  0  0  0  0  0  0  0
    5.6180   -7.9194   16.1754 O   0  0  0  0  0  0  0  0  0  0  0  0
    9.7259   -5.3080   18.4485 C   0  0  0  0  0  0  0  0  0  0  0  0
    9.4578   -5.0200   16.3036 N   0  0  0  0  0  0  0  0  0  0  0  0
    5.0287   -8.9365   16.8223 C   0  0  0  0  0  0  0  0  0  0  0  0
    8.7742   -6.1498   16.6764 C   0  0  0  0  0  0  0  0  0  0  0  0
   10.9418   -3.4032   21.2053 O   0  0  0  0  0  0  0  0  0  0  0  0
    1.4797   -8.6258   16.2950 C   0  0  0  0  0  0  0  0  0  0  0  0
    9.2861   -1.2743   25.3585 C   0  0  0  0  0  0  0  0  0  0  0  0
    1.8892  -10.3985   17.7511 N   0  0  0  0  0  0  0  0  0  0  0  0
    9.6210   -0.6952   24.0976 C   0  0  0  0  0  0  0  0  0  0  0  0
    7.0792   -9.0217   17.1429 C   0  0  0  0  0  0  0  0  0  0  0  0
    3.1713  -10.1816   17.6634 C   0  0  0  0  0  0  0  0  0  0  0  0
    2.7878   -8.3822   16.2137 C   0  0  0  0  0  0  0  0  0  0  0  0
    9.4601   -2.6590   25.6528 C   0  0  0  0  0  0  0  0  0  0  0  0
   10.1182   -1.5672   23.1165 C   0  0  0  0  0  0  0  0  0  0  0  0
    1.0552   -9.6360   17.0650 C   0  0  0  0  0  0  0  0  0  0  0  0
    3.6519   -9.1783   16.9039 C   0  0  0  0  0  0  0  0  0  0  0  0
    7.8675   -7.0096   15.9415 C   0  0  0  0  0  0  0  0  0  0  0  0
    5.9733   -9.6553   17.3832 N   0  0  0  0  0  0  0  0  0  0  0  0
   10.2411   -2.9363   23.4301 C   0  0  0  0  0  0  0  0  0  0  0  0
   10.7288   -3.8197   19.9525 C   0  0  0  0  0  0  0  0  0  0  0  0
   10.1189   -5.0054   19.6987 C   0  0  0  0  0  0  0  0  0  0  0  0
  1  3  4  0
  1  7  4  0
  2 21  4  0
  2 27  4  0
  3  9  4  0
  3 10  4  0
  4  8  4  0
  4 18  4  0
  4 25  1  0
  5  9  4  0
  5 12  4  0
  6 13  1  0
  6 27  1  0
  7 28  4  0
  8 11  4  0
  9 29  4  0
 10 12  4  0
 11 24  1  0
 11 26  4  0
 12 25  1  0
 13 28  1  0
 14 20  4  0
 14 23  4  0
 15 17  4  0
 15 21  4  0
 16 19  4  0
 16 23  4  0
 17 22  4  0
 18 26  4  0
 19 24  4  0
 20 24  4  0
 22 27  4  0
 28 29  4  0
M  END
$$$$

 Created by Python create_sdf_string function

 29 33  0  0  0  0  0  0  0  0999 V2000
   10.7215   -3.3326   17.6437 C   0  0  0  0  0  0  0  0  0  0  0  0
    9.9489   -3.4675   24.6487 N   0  0  0  0  0  0  0  0  0  0  0  0
   10.0172   -4.4740   17.4101 C   0  0  0  0  0  0  0  0  0  0  0  0
    6.9051   -7.9575   16.4222 C   0  0  0  0  0  0  0  0  0  0  0  0
    8.9969   -6.3552   17.9668 N   0  0  0  0  0  0  0  0  0  0  0  0
   10.6702   -3.9051   22.4070 C   0  0  0  0  0  0  0  0  0  0  0  0
   11.0625   -3.0028   18.8894 C   0  0  0  0  0  0  0  0  0  0  0  0
    5.6180   -7.9194   16.1754 O   0  0  0  0  0  0  0  0  0  0  0  0
    9.7259   -5.3080   18.4485 C   0  0  0  0  0  0  0  0  0  0  0  0
    9.4578   -5.0200   16.3036 N   0  0  0  0  0  0  0  0  0  0  0  0
    5.0287   -8.9365   16.8223 C   0  0  0  0  0  0  0  0  0  0  0  0
    8.7742   -6.1498   16.6764 C   0  0  0  0  0  0  0  0  0  0  0  0
   10.9418   -3.4032   21.2053 O   0  0  0  0  0  0  0  0  0  0  0  0
    1.4797   -8.6258   16.2950 C   0  0  0  0  0  0  0  0  0  0  0  0
    9.2861   -1.2743   25.3585 C   0  0  0  0  0  0  0  0  0  0  0  0
    1.8892  -10.3985   17.7511 N   0  0  0  0  0  0  0  0  0  0  0  0
    9.6210   -0.6952   24.0976 C   0  0  0  0  0  0  0  0  0  0  0  0
    7.0792   -9.0217   17.1429 C   0  0  0  0  0  0  0  0  0  0  0  0
    3.1713  -10.1816   17.6634 C   0  0  0  0  0  0  0  0  0  0  0  0
    2.7878   -8.3822   16.2137 C   0  0  0  0  0  0  0  0  0  0  0  0
    9.4601   -2.6590   25.6528 C   0  0  0  0  0  0  0  0  0  0  0  0
   10.1182   -1.5672   23.1165 C   0  0  0  0  0  0  0  0  0  0  0  0
    1.0552   -9.6360   17.0650 C   0  0  0  0  0  0  0  0  0  0  0  0
    3.6519   -9.1783   16.9039 C   0  0  0  0  0  0  0  0  0  0  0  0
    7.8675   -7.0096   15.9415 C   0  0  0  0  0  0  0  0  0  0  0  0
    5.9733   -9.6553   17.3832 N   0  0  0  0  0  0  0  0  0  0  0  0
   10.2411   -2.9363   23.4301 C   0  0  0  0  0  0  0  0  0  0  0  0
   10.7288   -3.8197   19.9525 C   0  0  0  0  0  0  0  0  0  0  0  0
   10.1189   -5.0054   19.6987 C   0  0  0  0  0  0  0  0  0  0  0  0
  1  3  4  0
  1  7  4  0
  2 21  4  0
  2 27  4  0
  3  9  4  0
  3 10  4  0
  4  8  4  0
  4 18  4  0
  4 25  1  0
  5  9  4  0
  5 12  4  0
  6 13  1  0
  6 27  1  0
  7 28  4  0
  8 11  4  0
  9 29  4  0
 10 12  4  0
 11 24  1  0
 11 26  4  0
 12 25  1  0
 13 28  1  0
 14 20  4  0
 14 23  4  0
 15 17  4  0
 15 21  4  0
 16 19  4  0
 16 23  4  0
 17 22  4  0
 18 26  4  0
 19 24  4  0
 20 24  4  0
 22 27  4  0
 28 29  4  0
M  END
$$$$

 Created by Python create_sdf_string function

 29 33  0  0  0  0  0  0  0  0999 V2000
   10.7215   -3.3326   17.6437 C   0  0  0  0  0  0  0  0  0  0  0  0
    9.9489   -3.4675   24.6487 N   0  0  0  0  0  0  0  0  0  0  0  0
   10.0172   -4.4740   17.4101 C   0  0  0  0  0  0  0  0  0  0  0  0
    6.9051   -7.9575   16.4222 C   0  0  0  0  0  0  0  0  0  0  0  0
    8.9969   -6.3552   17.9668 N   0  0  0  0  0  0  0  0  0  0  0  0
   10.6702   -3.9051   22.4070 C   0  0  0  0  0  0  0  0  0  0  0  0
   11.0625   -3.0028   18.8894 C   0  0  0  0  0  0  0  0  0  0  0  0
    5.6180   -7.9194   16.1754 O   0  0  0  0  0  0  0  0  0  0  0  0
    9.7259   -5.3080   18.4485 C   0  0  0  0  0  0  0  0  0  0  0  0
    9.4578   -5.0200   16.3036 N   0  0  0  0  0  0  0  0  0  0  0  0
    5.0287   -8.9365   16.8223 C   0  0  0  0  0  0  0  0  0  0  0  0
    8.7742   -6.1498   16.6764 C   0  0  0  0  0  0  0  0  0  0  0  0
   10.9418   -3.4032   21.2053 O   0  0  0  0  0  0  0  0  0  0  0  0
    1.4797   -8.6258   16.2950 C   0  0  0  0  0  0  0  0  0  0  0  0
    9.2861   -1.2743   25.3585 C   0  0  0  0  0  0  0  0  0  0  0  0
    1.8892  -10.3985   17.7511 N   0  0  0  0  0  0  0  0  0  0  0  0
    9.6210   -0.6952   24.0976 C   0  0  0  0  0  0  0  0  0  0  0  0
    7.0792   -9.0217   17.1429 C   0  0  0  0  0  0  0  0  0  0  0  0
    3.1713  -10.1816   17.6634 C   0  0  0  0  0  0  0  0  0  0  0  0
    2.7878   -8.3822   16.2137 C   0  0  0  0  0  0  0  0  0  0  0  0
    9.4601   -2.6590   25.6528 C   0  0  0  0  0  0  0  0  0  0  0  0
   10.1182   -1.5672   23.1165 C   0  0  0  0  0  0  0  0  0  0  0  0
    1.0552   -9.6360   17.0650 C   0  0  0  0  0  0  0  0  0  0  0  0
    3.6519   -9.1783   16.9039 C   0  0  0  0  0  0  0  0  0  0  0  0
    7.8675   -7.0096   15.9415 C   0  0  0  0  0  0  0  0  0  0  0  0
    5.9733   -9.6553   17.3832 N   0  0  0  0  0  0  0  0  0  0  0  0
   10.2411   -2.9363   23.4301 C   0  0  0  0  0  0  0  0  0  0  0  0
   10.7288   -3.8197   19.9525 C   0  0  0  0  0  0  0  0  0  0  0  0
   10.1189   -5.0054   19.6987 C   0  0  0  0  0  0  0  0  0  0  0  0
  1  3  4  0
  1  7  4  0
  2 21  4  0
  2 27  4  0
  3  9  4  0
  3 10  4  0
  4  8  4  0
  4 18  4  0
  4 25  1  0
  5  9  4  0
  5 12  4  0
  6 13  1  0
  6 27  1  0
  7 28  4  0
  8 11  4  0
  9 29  4  0
 10 12  4  0
 11 24  1  0
 11 26  4  0
 12 25  1  0
 13 28  1  0
 14 20  4  0
 14 23  4  0
 15 17  4  0
 15 21  4  0
 16 19  4  0
 16 23  4  0
 17 22  4  0
 18 26  4  0
 19 24  4  0
 20 24  4  0
 22 27  4  0
 28 29  4  0
M  END
$$$$

 Created by Python create_sdf_string function

 29 33  0  0  0  0  0  0  0  0999 V2000
   10.7215   -3.3326   17.6437 C   0  0  0  0  0  0  0  0  0  0  0  0
    9.9489   -3.4675   24.6487 N   0  0  0  0  0  0  0  0  0  0  0  0
   10.0172   -4.4740   17.4101 C   0  0  0  0  0  0  0  0  0  0  0  0
    6.9051   -7.9575   16.4222 C   0  0  0  0  0  0  0  0  0  0  0  0
    8.9969   -6.3552   17.9668 N   0  0  0  0  0  0  0  0  0  0  0  0
   10.6702   -3.9051   22.4070 C   0  0  0  0  0  0  0  0  0  0  0  0
   11.0625   -3.0028   18.8894 C   0  0  0  0  0  0  0  0  0  0  0  0
    5.6180   -7.9194   16.1754 O   0  0  0  0  0  0  0  0  0  0  0  0
    9.7259   -5.3080   18.4485 C   0  0  0  0  0  0  0  0  0  0  0  0
    9.4578   -5.0200   16.3036 N   0  0  0  0  0  0  0  0  0  0  0  0
    5.0287   -8.9365   16.8223 C   0  0  0  0  0  0  0  0  0  0  0  0
    8.7742   -6.1498   16.6764 C   0  0  0  0  0  0  0  0  0  0  0  0
   10.9418   -3.4032   21.2053 O   0  0  0  0  0  0  0  0  0  0  0  0
    1.4797   -8.6258   16.2950 C   0  0  0  0  0  0  0  0  0  0  0  0
    9.2861   -1.2743   25.3585 C   0  0  0  0  0  0  0  0  0  0  0  0
    1.8892  -10.3985   17.7511 N   0  0  0  0  0  0  0  0  0  0  0  0
    9.6210   -0.6952   24.0976 C   0  0  0  0  0  0  0  0  0  0  0  0
    7.0792   -9.0217   17.1429 C   0  0  0  0  0  0  0  0  0  0  0  0
    3.1713  -10.1816   17.6634 C   0  0  0  0  0  0  0  0  0  0  0  0
    2.7878   -8.3822   16.2137 C   0  0  0  0  0  0  0  0  0  0  0  0
    9.4601   -2.6590   25.6528 C   0  0  0  0  0  0  0  0  0  0  0  0
   10.1182   -1.5672   23.1165 C   0  0  0  0  0  0  0  0  0  0  0  0
    1.0552   -9.6360   17.0650 C   0  0  0  0  0  0  0  0  0  0  0  0
    3.6519   -9.1783   16.9039 C   0  0  0  0  0  0  0  0  0  0  0  0
    7.8675   -7.0096   15.9415 C   0  0  0  0  0  0  0  0  0  0  0  0
    5.9733   -9.6553   17.3832 N   0  0  0  0  0  0  0  0  0  0  0  0
   10.2411   -2.9363   23.4301 C   0  0  0  0  0  0  0  0  0  0  0  0
   10.7288   -3.8197   19.9525 C   0  0  0  0  0  0  0  0  0  0  0  0
   10.1189   -5.0054   19.6987 C   0  0  0  0  0  0  0  0  0  0  0  0
  1  3  4  0
  1  7  4  0
  2 21  4  0
  2 27  4  0
  3  9  4  0
  3 10  4  0
  4  8  4  0
  4 18  4  0
  4 25  1  0
  5  9  4  0
  5 12  4  0
  6 13  1  0
  6 27  1  0
  7 28  4  0
  8 11  4  0
  9 29  4  0
 10 12  4  0
 11 24  1  0
 11 26  4  0
 12 25  1  0
 13 28  1  0
 14 20  4  0
 14 23  4  0
 15 17  4  0
 15 21  4  0
 16 19  4  0
 16 23  4  0
 17 22  4  0
 18 26  4  0
 19 24  4  0
 20 24  4  0
 22 27  4  0
 28 29  4  0
M  END
$$$$

 Created by Python create_sdf_string function

 29 33  0  0  0  0  0  0  0  0999 V2000
   10.7215   -3.3326   17.6437 C   0  0  0  0  0  0  0  0  0  0  0  0
    9.9489   -3.4675   24.6487 N   0  0  0  0  0  0  0  0  0  0  0  0
   10.0172   -4.4740   17.4101 C   0  0  0  0  0  0  0  0  0  0  0  0
    6.9051   -7.9575   16.4222 C   0  0  0  0  0  0  0  0  0  0  0  0
    8.9969   -6.3552   17.9668 N   0  0  0  0  0  0  0  0  0  0  0  0
   10.6702   -3.9051   22.4070 C   0  0  0  0  0  0  0  0  0  0  0  0
   11.0625   -3.0028   18.8894 C   0  0  0  0  0  0  0  0  0  0  0  0
    5.6180   -7.9194   16.1754 O   0  0  0  0  0  0  0  0  0  0  0  0
    9.7259   -5.3080   18.4485 C   0  0  0  0  0  0  0  0  0  0  0  0
    9.4578   -5.0200   16.3036 N   0  0  0  0  0  0  0  0  0  0  0  0
    5.0287   -8.9365   16.8223 C   0  0  0  0  0  0  0  0  0  0  0  0
    8.7742   -6.1498   16.6764 C   0  0  0  0  0  0  0  0  0  0  0  0
   10.9418   -3.4032   21.2053 O   0  0  0  0  0  0  0  0  0  0  0  0
    1.4797   -8.6258   16.2950 C   0  0  0  0  0  0  0  0  0  0  0  0
    9.2861   -1.2743   25.3585 C   0  0  0  0  0  0  0  0  0  0  0  0
    1.8892  -10.3985   17.7511 N   0  0  0  0  0  0  0  0  0  0  0  0
    9.6210   -0.6952   24.0976 C   0  0  0  0  0  0  0  0  0  0  0  0
    7.0792   -9.0217   17.1429 C   0  0  0  0  0  0  0  0  0  0  0  0
    3.1713  -10.1816   17.6634 C   0  0  0  0  0  0  0  0  0  0  0  0
    2.7878   -8.3822   16.2137 C   0  0  0  0  0  0  0  0  0  0  0  0
    9.4601   -2.6590   25.6528 C   0  0  0  0  0  0  0  0  0  0  0  0
   10.1182   -1.5672   23.1165 C   0  0  0  0  0  0  0  0  0  0  0  0
    1.0552   -9.6360   17.0650 C   0  0  0  0  0  0  0  0  0  0  0  0
    3.6519   -9.1783   16.9039 C   0  0  0  0  0  0  0  0  0  0  0  0
    7.8675   -7.0096   15.9415 C   0  0  0  0  0  0  0  0  0  0  0  0
    5.9733   -9.6553   17.3832 N   0  0  0  0  0  0  0  0  0  0  0  0
   10.2411   -2.9363   23.4301 C   0  0  0  0  0  0  0  0  0  0  0  0
   10.7288   -3.8197   19.9525 C   0  0  0  0  0  0  0  0  0  0  0  0
   10.1189   -5.0054   19.6987 C   0  0  0  0  0  0  0  0  0  0  0  0
  1  3  4  0
  1  7  4  0
  2 21  4  0
  2 27  4  0
  3  9  4  0
  3 10  4  0
  4  8  4  0
  4 18  4  0
  4 25  1  0
  5  9  4  0
  5 12  4  0
  6 13  1  0
  6 27  1  0
  7 28  4  0
  8 11  4  0
  9 29  4  0
 10 12  4  0
 11 24  1  0
 11 26  4  0
 12 25  1  0
 13 28  1  0
 14 20  4  0
 14 23  4  0
 15 17  4  0
 15 21  4  0
 16 19  4  0
 16 23  4  0
 17 22  4  0
 18 26  4  0
 19 24  4  0
 20 24  4  0
 22 27  4  0
 28 29  4  0
M  END
$$$$

 Created by Python create_sdf_string function

 29 33  0  0  0  0  0  0  0  0999 V2000
   10.7215   -3.3326   17.6437 C   0  0  0  0  0  0  0  0  0  0  0  0
    9.9489   -3.4675   24.6487 N   0  0  0  0  0  0  0  0  0  0  0  0
   10.0172   -4.4740   17.4101 C   0  0  0  0  0  0  0  0  0  0  0  0
    6.9051   -7.9575   16.4222 C   0  0  0  0  0  0  0  0  0  0  0  0
    8.9969   -6.3552   17.9668 N   0  0  0  0  0  0  0  0  0  0  0  0
   10.6702   -3.9051   22.4070 C   0  0  0  0  0  0  0  0  0  0  0  0
   11.0625   -3.0028   18.8894 C   0  0  0  0  0  0  0  0  0  0  0  0
    5.6180   -7.9194   16.1754 O   0  0  0  0  0  0  0  0  0  0  0  0
    9.7259   -5.3080   18.4485 C   0  0  0  0  0  0  0  0  0  0  0  0
    9.4578   -5.0200   16.3036 N   0  0  0  0  0  0  0  0  0  0  0  0
    5.0287   -8.9365   16.8223 C   0  0  0  0  0  0  0  0  0  0  0  0
    8.7742   -6.1498   16.6764 C   0  0  0  0  0  0  0  0  0  0  0  0
   10.9418   -3.4032   21.2053 O   0  0  0  0  0  0  0  0  0  0  0  0
    1.4797   -8.6258   16.2950 C   0  0  0  0  0  0  0  0  0  0  0  0
    9.2861   -1.2743   25.3585 C   0  0  0  0  0  0  0  0  0  0  0  0
    1.8892  -10.3985   17.7511 N   0  0  0  0  0  0  0  0  0  0  0  0
    9.6210   -0.6952   24.0976 C   0  0  0  0  0  0  0  0  0  0  0  0
    7.0792   -9.0217   17.1429 C   0  0  0  0  0  0  0  0  0  0  0  0
    3.1713  -10.1816   17.6634 C   0  0  0  0  0  0  0  0  0  0  0  0
    2.7878   -8.3822   16.2137 C   0  0  0  0  0  0  0  0  0  0  0  0
    9.4601   -2.6590   25.6528 C   0  0  0  0  0  0  0  0  0  0  0  0
   10.1182   -1.5672   23.1165 C   0  0  0  0  0  0  0  0  0  0  0  0
    1.0552   -9.6360   17.0650 C   0  0  0  0  0  0  0  0  0  0  0  0
    3.6519   -9.1783   16.9039 C   0  0  0  0  0  0  0  0  0  0  0  0
    7.8675   -7.0096   15.9415 C   0  0  0  0  0  0  0  0  0  0  0  0
    5.9733   -9.6553   17.3832 N   0  0  0  0  0  0  0  0  0  0  0  0
   10.2411   -2.9363   23.4301 C   0  0  0  0  0  0  0  0  0  0  0  0
   10.7288   -3.8197   19.9525 C   0  0  0  0  0  0  0  0  0  0  0  0
   10.1189   -5.0054   19.6987 C   0  0  0  0  0  0  0  0  0  0  0  0
  1  3  4  0
  1  7  4  0
  2 21  4  0
  2 27  4  0
  3  9  4  0
  3 10  4  0
  4  8  4  0
  4 18  4  0
  4 25  1  0
  5  9  4  0
  5 12  4  0
  6 13  1  0
  6 27  1  0
  7 28  4  0
  8 11  4  0
  9 29  4  0
 10 12  4  0
 11 24  1  0
 11 26  4  0
 12 25  1  0
 13 28  1  0
 14 20  4  0
 14 23  4  0
 15 17  4  0
 15 21  4  0
 16 19  4  0
 16 23  4  0
 17 22  4  0
 18 26  4  0
 19 24  4  0
 20 24  4  0
 22 27  4  0
 28 29  4  0
M  END
$$$$

 Created by Python create_sdf_string function

 29 33  0  0  0  0  0  0  0  0999 V2000
   10.7215   -3.3326   17.6437 C   0  0  0  0  0  0  0  0  0  0  0  0
    9.9489   -3.4675   24.6487 N   0  0  0  0  0  0  0  0  0  0  0  0
   10.0172   -4.4740   17.4101 C   0  0  0  0  0  0  0  0  0  0  0  0
    6.9051   -7.9575   16.4222 C   0  0  0  0  0  0  0  0  0  0  0  0
    8.9969   -6.3552   17.9668 N   0  0  0  0  0  0  0  0  0  0  0  0
   10.6702   -3.9051   22.4070 C   0  0  0  0  0  0  0  0  0  0  0  0
   11.0625   -3.0028   18.8894 C   0  0  0  0  0  0  0  0  0  0  0  0
    5.6180   -7.9194   16.1754 O   0  0  0  0  0  0  0  0  0  0  0  0
    9.7259   -5.3080   18.4485 C   0  0  0  0  0  0  0  0  0  0  0  0
    9.4578   -5.0200   16.3036 N   0  0  0  0  0  0  0  0  0  0  0  0
    5.0287   -8.9365   16.8223 C   0  0  0  0  0  0  0  0  0  0  0  0
    8.7742   -6.1498   16.6764 C   0  0  0  0  0  0  0  0  0  0  0  0
   10.9418   -3.4032   21.2053 O   0  0  0  0  0  0  0  0  0  0  0  0
    1.4797   -8.6258   16.2950 C   0  0  0  0  0  0  0  0  0  0  0  0
    9.2861   -1.2743   25.3585 C   0  0  0  0  0  0  0  0  0  0  0  0
    1.8892  -10.3985   17.7511 N   0  0  0  0  0  0  0  0  0  0  0  0
    9.6210   -0.6952   24.0976 C   0  0  0  0  0  0  0  0  0  0  0  0
    7.0792   -9.0217   17.1429 C   0  0  0  0  0  0  0  0  0  0  0  0
    3.1713  -10.1816   17.6634 C   0  0  0  0  0  0  0  0  0  0  0  0
    2.7878   -8.3822   16.2137 C   0  0  0  0  0  0  0  0  0  0  0  0
    9.4601   -2.6590   25.6528 C   0  0  0  0  0  0  0  0  0  0  0  0
   10.1182   -1.5672   23.1165 C   0  0  0  0  0  0  0  0  0  0  0  0
    1.0552   -9.6360   17.0650 C   0  0  0  0  0  0  0  0  0  0  0  0
    3.6519   -9.1783   16.9039 C   0  0  0  0  0  0  0  0  0  0  0  0
    7.8675   -7.0096   15.9415 C   0  0  0  0  0  0  0  0  0  0  0  0
    5.9733   -9.6553   17.3832 N   0  0  0  0  0  0  0  0  0  0  0  0
   10.2411   -2.9363   23.4301 C   0  0  0  0  0  0  0  0  0  0  0  0
   10.7288   -3.8197   19.9525 C   0  0  0  0  0  0  0  0  0  0  0  0
   10.1189   -5.0054   19.6987 C   0  0  0  0  0  0  0  0  0  0  0  0
  1  3  4  0
  1  7  4  0
  2 21  4  0
  2 27  4  0
  3  9  4  0
  3 10  4  0
  4  8  4  0
  4 18  4  0
  4 25  1  0
  5  9  4  0
  5 12  4  0
  6 13  1  0
  6 27  1  0
  7 28  4  0
  8 11  4  0
  9 29  4  0
 10 12  4  0
 11 24  1  0
 11 26  4  0
 12 25  1  0
 13 28  1  0
 14 20  4  0
 14 23  4  0
 15 17  4  0
 15 21  4  0
 16 19  4  0
 16 23  4  0
 17 22  4  0
 18 26  4  0
 19 24  4  0
 20 24  4  0
 22 27  4  0
 28 29  4  0
M  END
$$$$

 Created by Python create_sdf_string function

 29 33  0  0  0  0  0  0  0  0999 V2000
   10.7215   -3.3326   17.6437 C   0  0  0  0  0  0  0  0  0  0  0  0
    9.9489   -3.4675   24.6487 N   0  0  0  0  0  0  0  0  0  0  0  0
   10.0172   -4.4740   17.4101 C   0  0  0  0  0  0  0  0  0  0  0  0
    6.9051   -7.9575   16.4222 C   0  0  0  0  0  0  0  0  0  0  0  0
    8.9969   -6.3552   17.9668 N   0  0  0  0  0  0  0  0  0  0  0  0
   10.6702   -3.9051   22.4070 C   0  0  0  0  0  0  0  0  0  0  0  0
   11.0625   -3.0028   18.8894 C   0  0  0  0  0  0  0  0  0  0  0  0
    5.6180   -7.9194   16.1754 O   0  0  0  0  0  0  0  0  0  0  0  0
    9.7259   -5.3080   18.4485 C   0  0  0  0  0  0  0  0  0  0  0  0
    9.4578   -5.0200   16.3036 N   0  0  0  0  0  0  0  0  0  0  0  0
    5.0287   -8.9365   16.8223 C   0  0  0  0  0  0  0  0  0  0  0  0
    8.7742   -6.1498   16.6764 C   0  0  0  0  0  0  0  0  0  0  0  0
   10.9418   -3.4032   21.2053 O   0  0  0  0  0  0  0  0  0  0  0  0
    1.4797   -8.6258   16.2950 C   0  0  0  0  0  0  0  0  0  0  0  0
    9.2861   -1.2743   25.3585 C   0  0  0  0  0  0  0  0  0  0  0  0
    1.8892  -10.3985   17.7511 N   0  0  0  0  0  0  0  0  0  0  0  0
    9.6210   -0.6952   24.0976 C   0  0  0  0  0  0  0  0  0  0  0  0
    7.0792   -9.0217   17.1429 C   0  0  0  0  0  0  0  0  0  0  0  0
    3.1713  -10.1816   17.6634 C   0  0  0  0  0  0  0  0  0  0  0  0
    2.7878   -8.3822   16.2137 C   0  0  0  0  0  0  0  0  0  0  0  0
    9.4601   -2.6590   25.6528 C   0  0  0  0  0  0  0  0  0  0  0  0
   10.1182   -1.5672   23.1165 C   0  0  0  0  0  0  0  0  0  0  0  0
    1.0552   -9.6360   17.0650 C   0  0  0  0  0  0  0  0  0  0  0  0
    3.6519   -9.1783   16.9039 C   0  0  0  0  0  0  0  0  0  0  0  0
    7.8675   -7.0096   15.9415 C   0  0  0  0  0  0  0  0  0  0  0  0
    5.9733   -9.6553   17.3832 N   0  0  0  0  0  0  0  0  0  0  0  0
   10.2411   -2.9363   23.4301 C   0  0  0  0  0  0  0  0  0  0  0  0
   10.7288   -3.8197   19.9525 C   0  0  0  0  0  0  0  0  0  0  0  0
   10.1189   -5.0054   19.6987 C   0  0  0  0  0  0  0  0  0  0  0  0
  1  3  4  0
  1  7  4  0
  2 21  4  0
  2 27  4  0
  3  9  4  0
  3 10  4  0
  4  8  4  0
  4 18  4  0
  4 25  1  0
  5  9  4  0
  5 12  4  0
  6 13  1  0
  6 27  1  0
  7 28  4  0
  8 11  4  0
  9 29  4  0
 10 12  4  0
 11 24  1  0
 11 26  4  0
 12 25  1  0
 13 28  1  0
 14 20  4  0
 14 23  4  0
 15 17  4  0
 15 21  4  0
 16 19  4  0
 16 23  4  0
 17 22  4  0
 18 26  4  0
 19 24  4  0
 20 24  4  0
 22 27  4  0
 28 29  4  0
M  END
$$$$

 Created by Python create_sdf_string function

 29 33  0  0  0  0  0  0  0  0999 V2000
   10.7215   -3.3326   17.6437 C   0  0  0  0  0  0  0  0  0  0  0  0
    9.9489   -3.4675   24.6487 N   0  0  0  0  0  0  0  0  0  0  0  0
   10.0172   -4.4740   17.4101 C   0  0  0  0  0  0  0  0  0  0  0  0
    6.9051   -7.9575   16.4222 C   0  0  0  0  0  0  0  0  0  0  0  0
    8.9969   -6.3552   17.9668 N   0  0  0  0  0  0  0  0  0  0  0  0
   10.6702   -3.9051   22.4070 C   0  0  0  0  0  0  0  0  0  0  0  0
   11.0625   -3.0028   18.8894 C   0  0  0  0  0  0  0  0  0  0  0  0
    5.6180   -7.9194   16.1754 O   0  0  0  0  0  0  0  0  0  0  0  0
    9.7259   -5.3080   18.4485 C   0  0  0  0  0  0  0  0  0  0  0  0
    9.4578   -5.0200   16.3036 N   0  0  0  0  0  0  0  0  0  0  0  0
    5.0287   -8.9365   16.8223 C   0  0  0  0  0  0  0  0  0  0  0  0
    8.7742   -6.1498   16.6764 C   0  0  0  0  0  0  0  0  0  0  0  0
   10.9418   -3.4032   21.2053 O   0  0  0  0  0  0  0  0  0  0  0  0
    1.4797   -8.6258   16.2950 C   0  0  0  0  0  0  0  0  0  0  0  0
    9.2861   -1.2743   25.3585 C   0  0  0  0  0  0  0  0  0  0  0  0
    1.8892  -10.3985   17.7511 N   0  0  0  0  0  0  0  0  0  0  0  0
    9.6210   -0.6952   24.0976 C   0  0  0  0  0  0  0  0  0  0  0  0
    7.0792   -9.0217   17.1429 C   0  0  0  0  0  0  0  0  0  0  0  0
    3.1713  -10.1816   17.6634 C   0  0  0  0  0  0  0  0  0  0  0  0
    2.7878   -8.3822   16.2137 C   0  0  0  0  0  0  0  0  0  0  0  0
    9.4601   -2.6590   25.6528 C   0  0  0  0  0  0  0  0  0  0  0  0
   10.1182   -1.5672   23.1165 C   0  0  0  0  0  0  0  0  0  0  0  0
    1.0552   -9.6360   17.0650 C   0  0  0  0  0  0  0  0  0  0  0  0
    3.6519   -9.1783   16.9039 C   0  0  0  0  0  0  0  0  0  0  0  0
    7.8675   -7.0096   15.9415 C   0  0  0  0  0  0  0  0  0  0  0  0
    5.9733   -9.6553   17.3832 N   0  0  0  0  0  0  0  0  0  0  0  0
   10.2411   -2.9363   23.4301 C   0  0  0  0  0  0  0  0  0  0  0  0
   10.7288   -3.8197   19.9525 C   0  0  0  0  0  0  0  0  0  0  0  0
   10.1189   -5.0054   19.6987 C   0  0  0  0  0  0  0  0  0  0  0  0
  1  3  4  0
  1  7  4  0
  2 21  4  0
  2 27  4  0
  3  9  4  0
  3 10  4  0
  4  8  4  0
  4 18  4  0
  4 25  1  0
  5  9  4  0
  5 12  4  0
  6 13  1  0
  6 27  1  0
  7 28  4  0
  8 11  4  0
  9 29  4  0
 10 12  4  0
 11 24  1  0
 11 26  4  0
 12 25  1  0
 13 28  1  0
 14 20  4  0
 14 23  4  0
 15 17  4  0
 15 21  4  0
 16 19  4  0
 16 23  4  0
 17 22  4  0
 18 26  4  0
 19 24  4  0
 20 24  4  0
 22 27  4  0
 28 29  4  0
M  END
$$$$

 Created by Python create_sdf_string function

 29 33  0  0  0  0  0  0  0  0999 V2000
   10.7215   -3.3326   17.6437 C   0  0  0  0  0  0  0  0  0  0  0  0
    9.9489   -3.4675   24.6487 N   0  0  0  0  0  0  0  0  0  0  0  0
   10.0172   -4.4740   17.4101 C   0  0  0  0  0  0  0  0  0  0  0  0
    6.9051   -7.9575   16.4222 C   0  0  0  0  0  0  0  0  0  0  0  0
    8.9969   -6.3552   17.9668 N   0  0  0  0  0  0  0  0  0  0  0  0
   10.6702   -3.9051   22.4070 C   0  0  0  0  0  0  0  0  0  0  0  0
   11.0625   -3.0028   18.8894 C   0  0  0  0  0  0  0  0  0  0  0  0
    5.6180   -7.9194   16.1754 O   0  0  0  0  0  0  0  0  0  0  0  0
    9.7259   -5.3080   18.4485 C   0  0  0  0  0  0  0  0  0  0  0  0
    9.4578   -5.0200   16.3036 N   0  0  0  0  0  0  0  0  0  0  0  0
    5.0287   -8.9365   16.8223 C   0  0  0  0  0  0  0  0  0  0  0  0
    8.7742   -6.1498   16.6764 C   0  0  0  0  0  0  0  0  0  0  0  0
   10.9418   -3.4032   21.2053 O   0  0  0  0  0  0  0  0  0  0  0  0
    1.4797   -8.6258   16.2950 C   0  0  0  0  0  0  0  0  0  0  0  0
    9.2861   -1.2743   25.3585 C   0  0  0  0  0  0  0  0  0  0  0  0
    1.8892  -10.3985   17.7511 N   0  0  0  0  0  0  0  0  0  0  0  0
    9.6210   -0.6952   24.0976 C   0  0  0  0  0  0  0  0  0  0  0  0
    7.0792   -9.0217   17.1429 C   0  0  0  0  0  0  0  0  0  0  0  0
    3.1713  -10.1816   17.6634 C   0  0  0  0  0  0  0  0  0  0  0  0
    2.7878   -8.3822   16.2137 C   0  0  0  0  0  0  0  0  0  0  0  0
    9.4601   -2.6590   25.6528 C   0  0  0  0  0  0  0  0  0  0  0  0
   10.1182   -1.5672   23.1165 C   0  0  0  0  0  0  0  0  0  0  0  0
    1.0552   -9.6360   17.0650 C   0  0  0  0  0  0  0  0  0  0  0  0
    3.6519   -9.1783   16.9039 C   0  0  0  0  0  0  0  0  0  0  0  0
    7.8675   -7.0096   15.9415 C   0  0  0  0  0  0  0  0  0  0  0  0
    5.9733   -9.6553   17.3832 N   0  0  0  0  0  0  0  0  0  0  0  0
   10.2411   -2.9363   23.4301 C   0  0  0  0  0  0  0  0  0  0  0  0
   10.7288   -3.8197   19.9525 C   0  0  0  0  0  0  0  0  0  0  0  0
   10.1189   -5.0054   19.6987 C   0  0  0  0  0  0  0  0  0  0  0  0
  1  3  4  0
  1  7  4  0
  2 21  4  0
  2 27  4  0
  3  9  4  0
  3 10  4  0
  4  8  4  0
  4 18  4  0
  4 25  1  0
  5  9  4  0
  5 12  4  0
  6 13  1  0
  6 27  1  0
  7 28  4  0
  8 11  4  0
  9 29  4  0
 10 12  4  0
 11 24  1  0
 11 26  4  0
 12 25  1  0
 13 28  1  0
 14 20  4  0
 14 23  4  0
 15 17  4  0
 15 21  4  0
 16 19  4  0
 16 23  4  0
 17 22  4  0
 18 26  4  0
 19 24  4  0
 20 24  4  0
 22 27  4  0
 28 29  4  0
M  END
$$$$

 Created by Python create_sdf_string function

 29 33  0  0  0  0  0  0  0  0999 V2000
   10.7215   -3.3326   17.6437 C   0  0  0  0  0  0  0  0  0  0  0  0
    9.9489   -3.4675   24.6487 N   0  0  0  0  0  0  0  0  0  0  0  0
   10.0172   -4.4740   17.4101 C   0  0  0  0  0  0  0  0  0  0  0  0
    6.9051   -7.9575   16.4222 C   0  0  0  0  0  0  0  0  0  0  0  0
    8.9969   -6.3552   17.9668 N   0  0  0  0  0  0  0  0  0  0  0  0
   10.6702   -3.9051   22.4070 C   0  0  0  0  0  0  0  0  0  0  0  0
   11.0625   -3.0028   18.8894 C   0  0  0  0  0  0  0  0  0  0  0  0
    5.6180   -7.9194   16.1754 O   0  0  0  0  0  0  0  0  0  0  0  0
    9.7259   -5.3080   18.4485 C   0  0  0  0  0  0  0  0  0  0  0  0
    9.4578   -5.0200   16.3036 N   0  0  0  0  0  0  0  0  0  0  0  0
    5.0287   -8.9365   16.8223 C   0  0  0  0  0  0  0  0  0  0  0  0
    8.7742   -6.1498   16.6764 C   0  0  0  0  0  0  0  0  0  0  0  0
   10.9418   -3.4032   21.2053 O   0  0  0  0  0  0  0  0  0  0  0  0
    1.4797   -8.6258   16.2950 C   0  0  0  0  0  0  0  0  0  0  0  0
    9.2861   -1.2743   25.3585 C   0  0  0  0  0  0  0  0  0  0  0  0
    1.8892  -10.3985   17.7511 N   0  0  0  0  0  0  0  0  0  0  0  0
    9.6210   -0.6952   24.0976 C   0  0  0  0  0  0  0  0  0  0  0  0
    7.0792   -9.0217   17.1429 C   0  0  0  0  0  0  0  0  0  0  0  0
    3.1713  -10.1816   17.6634 C   0  0  0  0  0  0  0  0  0  0  0  0
    2.7878   -8.3822   16.2137 C   0  0  0  0  0  0  0  0  0  0  0  0
    9.4601   -2.6590   25.6528 C   0  0  0  0  0  0  0  0  0  0  0  0
   10.1182   -1.5672   23.1165 C   0  0  0  0  0  0  0  0  0  0  0  0
    1.0552   -9.6360   17.0650 C   0  0  0  0  0  0  0  0  0  0  0  0
    3.6519   -9.1783   16.9039 C   0  0  0  0  0  0  0  0  0  0  0  0
    7.8675   -7.0096   15.9415 C   0  0  0  0  0  0  0  0  0  0  0  0
    5.9733   -9.6553   17.3832 N   0  0  0  0  0  0  0  0  0  0  0  0
   10.2411   -2.9363   23.4301 C   0  0  0  0  0  0  0  0  0  0  0  0
   10.7288   -3.8197   19.9525 C   0  0  0  0  0  0  0  0  0  0  0  0
   10.1189   -5.0054   19.6987 C   0  0  0  0  0  0  0  0  0  0  0  0
  1  3  4  0
  1  7  4  0
  2 21  4  0
  2 27  4  0
  3  9  4  0
  3 10  4  0
  4  8  4  0
  4 18  4  0
  4 25  1  0
  5  9  4  0
  5 12  4  0
  6 13  1  0
  6 27  1  0
  7 28  4  0
  8 11  4  0
  9 29  4  0
 10 12  4  0
 11 24  1  0
 11 26  4  0
 12 25  1  0
 13 28  1  0
 14 20  4  0
 14 23  4  0
 15 17  4  0
 15 21  4  0
 16 19  4  0
 16 23  4  0
 17 22  4  0
 18 26  4  0
 19 24  4  0
 20 24  4  0
 22 27  4  0
 28 29  4  0
M  END
$$$$

 Created by Python create_sdf_string function

 29 33  0  0  0  0  0  0  0  0999 V2000
   10.7215   -3.3326   17.6437 C   0  0  0  0  0  0  0  0  0  0  0  0
    9.9489   -3.4675   24.6487 N   0  0  0  0  0  0  0  0  0  0  0  0
   10.0172   -4.4740   17.4101 C   0  0  0  0  0  0  0  0  0  0  0  0
    6.9051   -7.9575   16.4222 C   0  0  0  0  0  0  0  0  0  0  0  0
    8.9969   -6.3552   17.9668 N   0  0  0  0  0  0  0  0  0  0  0  0
   10.6702   -3.9051   22.4070 C   0  0  0  0  0  0  0  0  0  0  0  0
   11.0625   -3.0028   18.8894 C   0  0  0  0  0  0  0  0  0  0  0  0
    5.6180   -7.9194   16.1754 O   0  0  0  0  0  0  0  0  0  0  0  0
    9.7259   -5.3080   18.4485 C   0  0  0  0  0  0  0  0  0  0  0  0
    9.4578   -5.0200   16.3036 N   0  0  0  0  0  0  0  0  0  0  0  0
    5.0287   -8.9365   16.8223 C   0  0  0  0  0  0  0  0  0  0  0  0
    8.7742   -6.1498   16.6764 C   0  0  0  0  0  0  0  0  0  0  0  0
   10.9418   -3.4032   21.2053 O   0  0  0  0  0  0  0  0  0  0  0  0
    1.4797   -8.6258   16.2950 C   0  0  0  0  0  0  0  0  0  0  0  0
    9.2861   -1.2743   25.3585 C   0  0  0  0  0  0  0  0  0  0  0  0
    1.8892  -10.3985   17.7511 N   0  0  0  0  0  0  0  0  0  0  0  0
    9.6210   -0.6952   24.0976 C   0  0  0  0  0  0  0  0  0  0  0  0
    7.0792   -9.0217   17.1429 C   0  0  0  0  0  0  0  0  0  0  0  0
    3.1713  -10.1816   17.6634 C   0  0  0  0  0  0  0  0  0  0  0  0
    2.7878   -8.3822   16.2137 C   0  0  0  0  0  0  0  0  0  0  0  0
    9.4601   -2.6590   25.6528 C   0  0  0  0  0  0  0  0  0  0  0  0
   10.1182   -1.5672   23.1165 C   0  0  0  0  0  0  0  0  0  0  0  0
    1.0552   -9.6360   17.0650 C   0  0  0  0  0  0  0  0  0  0  0  0
    3.6519   -9.1783   16.9039 C   0  0  0  0  0  0  0  0  0  0  0  0
    7.8675   -7.0096   15.9415 C   0  0  0  0  0  0  0  0  0  0  0  0
    5.9733   -9.6553   17.3832 N   0  0  0  0  0  0  0  0  0  0  0  0
   10.2411   -2.9363   23.4301 C   0  0  0  0  0  0  0  0  0  0  0  0
   10.7288   -3.8197   19.9525 C   0  0  0  0  0  0  0  0  0  0  0  0
   10.1189   -5.0054   19.6987 C   0  0  0  0  0  0  0  0  0  0  0  0
  1  3  4  0
  1  7  4  0
  2 21  4  0
  2 27  4  0
  3  9  4  0
  3 10  4  0
  4  8  4  0
  4 18  4  0
  4 25  1  0
  5  9  4  0
  5 12  4  0
  6 13  1  0
  6 27  1  0
  7 28  4  0
  8 11  4  0
  9 29  4  0
 10 12  4  0
 11 24  1  0
 11 26  4  0
 12 25  1  0
 13 28  1  0
 14 20  4  0
 14 23  4  0
 15 17  4  0
 15 21  4  0
 16 19  4  0
 16 23  4  0
 17 22  4  0
 18 26  4  0
 19 24  4  0
 20 24  4  0
 22 27  4  0
 28 29  4  0
M  END
$$$$

 Created by Python create_sdf_string function

 29 33  0  0  0  0  0  0  0  0999 V2000
   10.7215   -3.3326   17.6437 C   0  0  0  0  0  0  0  0  0  0  0  0
    9.9489   -3.4675   24.6487 N   0  0  0  0  0  0  0  0  0  0  0  0
   10.0172   -4.4740   17.4101 C   0  0  0  0  0  0  0  0  0  0  0  0
    6.9051   -7.9575   16.4222 C   0  0  0  0  0  0  0  0  0  0  0  0
    8.9969   -6.3552   17.9668 N   0  0  0  0  0  0  0  0  0  0  0  0
   10.6702   -3.9051   22.4070 C   0  0  0  0  0  0  0  0  0  0  0  0
   11.0625   -3.0028   18.8894 C   0  0  0  0  0  0  0  0  0  0  0  0
    5.6180   -7.9194   16.1754 O   0  0  0  0  0  0  0  0  0  0  0  0
    9.7259   -5.3080   18.4485 C   0  0  0  0  0  0  0  0  0  0  0  0
    9.4578   -5.0200   16.3036 N   0  0  0  0  0  0  0  0  0  0  0  0
    5.0287   -8.9365   16.8223 C   0  0  0  0  0  0  0  0  0  0  0  0
    8.7742   -6.1498   16.6764 C   0  0  0  0  0  0  0  0  0  0  0  0
   10.9418   -3.4032   21.2053 O   0  0  0  0  0  0  0  0  0  0  0  0
    1.4797   -8.6258   16.2950 C   0  0  0  0  0  0  0  0  0  0  0  0
    9.2861   -1.2743   25.3585 C   0  0  0  0  0  0  0  0  0  0  0  0
    1.8892  -10.3985   17.7511 N   0  0  0  0  0  0  0  0  0  0  0  0
    9.6210   -0.6952   24.0976 C   0  0  0  0  0  0  0  0  0  0  0  0
    7.0792   -9.0217   17.1429 C   0  0  0  0  0  0  0  0  0  0  0  0
    3.1713  -10.1816   17.6634 C   0  0  0  0  0  0  0  0  0  0  0  0
    2.7878   -8.3822   16.2137 C   0  0  0  0  0  0  0  0  0  0  0  0
    9.4601   -2.6590   25.6528 C   0  0  0  0  0  0  0  0  0  0  0  0
   10.1182   -1.5672   23.1165 C   0  0  0  0  0  0  0  0  0  0  0  0
    1.0552   -9.6360   17.0650 C   0  0  0  0  0  0  0  0  0  0  0  0
    3.6519   -9.1783   16.9039 C   0  0  0  0  0  0  0  0  0  0  0  0
    7.8675   -7.0096   15.9415 C   0  0  0  0  0  0  0  0  0  0  0  0
    5.9733   -9.6553   17.3832 N   0  0  0  0  0  0  0  0  0  0  0  0
   10.2411   -2.9363   23.4301 C   0  0  0  0  0  0  0  0  0  0  0  0
   10.7288   -3.8197   19.9525 C   0  0  0  0  0  0  0  0  0  0  0  0
   10.1189   -5.0054   19.6987 C   0  0  0  0  0  0  0  0  0  0  0  0
  1  3  4  0
  1  7  4  0
  2 21  4  0
  2 27  4  0
  3  9  4  0
  3 10  4  0
  4  8  4  0
  4 18  4  0
  4 25  1  0
  5  9  4  0
  5 12  4  0
  6 13  1  0
  6 27  1  0
  7 28  4  0
  8 11  4  0
  9 29  4  0
 10 12  4  0
 11 24  1  0
 11 26  4  0
 12 25  1  0
 13 28  1  0
 14 20  4  0
 14 23  4  0
 15 17  4  0
 15 21  4  0
 16 19  4  0
 16 23  4  0
 17 22  4  0
 18 26  4  0
 19 24  4  0
 20 24  4  0
 22 27  4  0
 28 29  4  0
M  END
$$$$

 Created by Python create_sdf_string function

 29 33  0  0  0  0  0  0  0  0999 V2000
   10.7215   -3.3326   17.6437 C   0  0  0  0  0  0  0  0  0  0  0  0
    9.9489   -3.4675   24.6487 N   0  0  0  0  0  0  0  0  0  0  0  0
   10.0172   -4.4740   17.4101 C   0  0  0  0  0  0  0  0  0  0  0  0
    6.9051   -7.9575   16.4222 C   0  0  0  0  0  0  0  0  0  0  0  0
    8.9969   -6.3552   17.9668 N   0  0  0  0  0  0  0  0  0  0  0  0
   10.6702   -3.9051   22.4070 C   0  0  0  0  0  0  0  0  0  0  0  0
   11.0625   -3.0028   18.8894 C   0  0  0  0  0  0  0  0  0  0  0  0
    5.6180   -7.9194   16.1754 O   0  0  0  0  0  0  0  0  0  0  0  0
    9.7259   -5.3080   18.4485 C   0  0  0  0  0  0  0  0  0  0  0  0
    9.4578   -5.0200   16.3036 N   0  0  0  0  0  0  0  0  0  0  0  0
    5.0287   -8.9365   16.8223 C   0  0  0  0  0  0  0  0  0  0  0  0
    8.7742   -6.1498   16.6764 C   0  0  0  0  0  0  0  0  0  0  0  0
   10.9418   -3.4032   21.2053 O   0  0  0  0  0  0  0  0  0  0  0  0
    1.4797   -8.6258   16.2950 C   0  0  0  0  0  0  0  0  0  0  0  0
    9.2861   -1.2743   25.3585 C   0  0  0  0  0  0  0  0  0  0  0  0
    1.8892  -10.3985   17.7511 N   0  0  0  0  0  0  0  0  0  0  0  0
    9.6210   -0.6952   24.0976 C   0  0  0  0  0  0  0  0  0  0  0  0
    7.0792   -9.0217   17.1429 C   0  0  0  0  0  0  0  0  0  0  0  0
    3.1713  -10.1816   17.6634 C   0  0  0  0  0  0  0  0  0  0  0  0
    2.7878   -8.3822   16.2137 C   0  0  0  0  0  0  0  0  0  0  0  0
    9.4601   -2.6590   25.6528 C   0  0  0  0  0  0  0  0  0  0  0  0
   10.1182   -1.5672   23.1165 C   0  0  0  0  0  0  0  0  0  0  0  0
    1.0552   -9.6360   17.0650 C   0  0  0  0  0  0  0  0  0  0  0  0
    3.6519   -9.1783   16.9039 C   0  0  0  0  0  0  0  0  0  0  0  0
    7.8675   -7.0096   15.9415 C   0  0  0  0  0  0  0  0  0  0  0  0
    5.9733   -9.6553   17.3832 N   0  0  0  0  0  0  0  0  0  0  0  0
   10.2411   -2.9363   23.4301 C   0  0  0  0  0  0  0  0  0  0  0  0
   10.7288   -3.8197   19.9525 C   0  0  0  0  0  0  0  0  0  0  0  0
   10.1189   -5.0054   19.6987 C   0  0  0  0  0  0  0  0  0  0  0  0
  1  3  4  0
  1  7  4  0
  2 21  4  0
  2 27  4  0
  3  9  4  0
  3 10  4  0
  4  8  4  0
  4 18  4  0
  4 25  1  0
  5  9  4  0
  5 12  4  0
  6 13  1  0
  6 27  1  0
  7 28  4  0
  8 11  4  0
  9 29  4  0
 10 12  4  0
 11 24  1  0
 11 26  4  0
 12 25  1  0
 13 28  1  0
 14 20  4  0
 14 23  4  0
 15 17  4  0
 15 21  4  0
 16 19  4  0
 16 23  4  0
 17 22  4  0
 18 26  4  0
 19 24  4  0
 20 24  4  0
 22 27  4  0
 28 29  4  0
M  END
$$$$

 Created by Python create_sdf_string function

 29 33  0  0  0  0  0  0  0  0999 V2000
   10.7215   -3.3326   17.6437 C   0  0  0  0  0  0  0  0  0  0  0  0
    9.9489   -3.4675   24.6487 N   0  0  0  0  0  0  0  0  0  0  0  0
   10.0172   -4.4740   17.4101 C   0  0  0  0  0  0  0  0  0  0  0  0
    6.9051   -7.9575   16.4222 C   0  0  0  0  0  0  0  0  0  0  0  0
    8.9969   -6.3552   17.9668 N   0  0  0  0  0  0  0  0  0  0  0  0
   10.6702   -3.9051   22.4070 C   0  0  0  0  0  0  0  0  0  0  0  0
   11.0625   -3.0028   18.8894 C   0  0  0  0  0  0  0  0  0  0  0  0
    5.6180   -7.9194   16.1754 O   0  0  0  0  0  0  0  0  0  0  0  0
    9.7259   -5.3080   18.4485 C   0  0  0  0  0  0  0  0  0  0  0  0
    9.4578   -5.0200   16.3036 N   0  0  0  0  0  0  0  0  0  0  0  0
    5.0287   -8.9365   16.8223 C   0  0  0  0  0  0  0  0  0  0  0  0
    8.7742   -6.1498   16.6764 C   0  0  0  0  0  0  0  0  0  0  0  0
   10.9418   -3.4032   21.2053 O   0  0  0  0  0  0  0  0  0  0  0  0
    1.4797   -8.6258   16.2950 C   0  0  0  0  0  0  0  0  0  0  0  0
    9.2861   -1.2743   25.3585 C   0  0  0  0  0  0  0  0  0  0  0  0
    1.8892  -10.3985   17.7511 N   0  0  0  0  0  0  0  0  0  0  0  0
    9.6210   -0.6952   24.0976 C   0  0  0  0  0  0  0  0  0  0  0  0
    7.0792   -9.0217   17.1429 C   0  0  0  0  0  0  0  0  0  0  0  0
    3.1713  -10.1816   17.6634 C   0  0  0  0  0  0  0  0  0  0  0  0
    2.7878   -8.3822   16.2137 C   0  0  0  0  0  0  0  0  0  0  0  0
    9.4601   -2.6590   25.6528 C   0  0  0  0  0  0  0  0  0  0  0  0
   10.1182   -1.5672   23.1165 C   0  0  0  0  0  0  0  0  0  0  0  0
    1.0552   -9.6360   17.0650 C   0  0  0  0  0  0  0  0  0  0  0  0
    3.6519   -9.1783   16.9039 C   0  0  0  0  0  0  0  0  0  0  0  0
    7.8675   -7.0096   15.9415 C   0  0  0  0  0  0  0  0  0  0  0  0
    5.9733   -9.6553   17.3832 N   0  0  0  0  0  0  0  0  0  0  0  0
   10.2411   -2.9363   23.4301 C   0  0  0  0  0  0  0  0  0  0  0  0
   10.7288   -3.8197   19.9525 C   0  0  0  0  0  0  0  0  0  0  0  0
   10.1189   -5.0054   19.6987 C   0  0  0  0  0  0  0  0  0  0  0  0
  1  3  4  0
  1  7  4  0
  2 21  4  0
  2 27  4  0
  3  9  4  0
  3 10  4  0
  4  8  4  0
  4 18  4  0
  4 25  1  0
  5  9  4  0
  5 12  4  0
  6 13  1  0
  6 27  1  0
  7 28  4  0
  8 11  4  0
  9 29  4  0
 10 12  4  0
 11 24  1  0
 11 26  4  0
 12 25  1  0
 13 28  1  0
 14 20  4  0
 14 23  4  0
 15 17  4  0
 15 21  4  0
 16 19  4  0
 16 23  4  0
 17 22  4  0
 18 26  4  0
 19 24  4  0
 20 24  4  0
 22 27  4  0
 28 29  4  0
M  END
$$$$

 Created by Python create_sdf_string function

 29 33  0  0  0  0  0  0  0  0999 V2000
   10.7215   -3.3326   17.6437 C   0  0  0  0  0  0  0  0  0  0  0  0
    9.9489   -3.4675   24.6487 N   0  0  0  0  0  0  0  0  0  0  0  0
   10.0172   -4.4740   17.4101 C   0  0  0  0  0  0  0  0  0  0  0  0
    6.9051   -7.9575   16.4222 C   0  0  0  0  0  0  0  0  0  0  0  0
    8.9969   -6.3552   17.9668 N   0  0  0  0  0  0  0  0  0  0  0  0
   10.6702   -3.9051   22.4070 C   0  0  0  0  0  0  0  0  0  0  0  0
   11.0625   -3.0028   18.8894 C   0  0  0  0  0  0  0  0  0  0  0  0
    5.6180   -7.9194   16.1754 O   0  0  0  0  0  0  0  0  0  0  0  0
    9.7259   -5.3080   18.4485 C   0  0  0  0  0  0  0  0  0  0  0  0
    9.4578   -5.0200   16.3036 N   0  0  0  0  0  0  0  0  0  0  0  0
    5.0287   -8.9365   16.8223 C   0  0  0  0  0  0  0  0  0  0  0  0
    8.7742   -6.1498   16.6764 C   0  0  0  0  0  0  0  0  0  0  0  0
   10.9418   -3.4032   21.2053 O   0  0  0  0  0  0  0  0  0  0  0  0
    1.4797   -8.6258   16.2950 C   0  0  0  0  0  0  0  0  0  0  0  0
    9.2861   -1.2743   25.3585 C   0  0  0  0  0  0  0  0  0  0  0  0
    1.8892  -10.3985   17.7511 N   0  0  0  0  0  0  0  0  0  0  0  0
    9.6210   -0.6952   24.0976 C   0  0  0  0  0  0  0  0  0  0  0  0
    7.0792   -9.0217   17.1429 C   0  0  0  0  0  0  0  0  0  0  0  0
    3.1713  -10.1816   17.6634 C   0  0  0  0  0  0  0  0  0  0  0  0
    2.7878   -8.3822   16.2137 C   0  0  0  0  0  0  0  0  0  0  0  0
    9.4601   -2.6590   25.6528 C   0  0  0  0  0  0  0  0  0  0  0  0
   10.1182   -1.5672   23.1165 C   0  0  0  0  0  0  0  0  0  0  0  0
    1.0552   -9.6360   17.0650 C   0  0  0  0  0  0  0  0  0  0  0  0
    3.6519   -9.1783   16.9039 C   0  0  0  0  0  0  0  0  0  0  0  0
    7.8675   -7.0096   15.9415 C   0  0  0  0  0  0  0  0  0  0  0  0
    5.9733   -9.6553   17.3832 N   0  0  0  0  0  0  0  0  0  0  0  0
   10.2411   -2.9363   23.4301 C   0  0  0  0  0  0  0  0  0  0  0  0
   10.7288   -3.8197   19.9525 C   0  0  0  0  0  0  0  0  0  0  0  0
   10.1189   -5.0054   19.6987 C   0  0  0  0  0  0  0  0  0  0  0  0
  1  3  4  0
  1  7  4  0
  2 21  4  0
  2 27  4  0
  3  9  4  0
  3 10  4  0
  4  8  4  0
  4 18  4  0
  4 25  1  0
  5  9  4  0
  5 12  4  0
  6 13  1  0
  6 27  1  0
  7 28  4  0
  8 11  4  0
  9 29  4  0
 10 12  4  0
 11 24  1  0
 11 26  4  0
 12 25  1  0
 13 28  1  0
 14 20  4  0
 14 23  4  0
 15 17  4  0
 15 21  4  0
 16 19  4  0
 16 23  4  0
 17 22  4  0
 18 26  4  0
 19 24  4  0
 20 24  4  0
 22 27  4  0
 28 29  4  0
M  END
$$$$

 Created by Python create_sdf_string function

 29 33  0  0  0  0  0  0  0  0999 V2000
   10.7215   -3.3326   17.6437 C   0  0  0  0  0  0  0  0  0  0  0  0
    9.9489   -3.4675   24.6487 N   0  0  0  0  0  0  0  0  0  0  0  0
   10.0172   -4.4740   17.4101 C   0  0  0  0  0  0  0  0  0  0  0  0
    6.9051   -7.9575   16.4222 C   0  0  0  0  0  0  0  0  0  0  0  0
    8.9969   -6.3552   17.9668 N   0  0  0  0  0  0  0  0  0  0  0  0
   10.6702   -3.9051   22.4070 C   0  0  0  0  0  0  0  0  0  0  0  0
   11.0625   -3.0028   18.8894 C   0  0  0  0  0  0  0  0  0  0  0  0
    5.6180   -7.9194   16.1754 O   0  0  0  0  0  0  0  0  0  0  0  0
    9.7259   -5.3080   18.4485 C   0  0  0  0  0  0  0  0  0  0  0  0
    9.4578   -5.0200   16.3036 N   0  0  0  0  0  0  0  0  0  0  0  0
    5.0287   -8.9365   16.8223 C   0  0  0  0  0  0  0  0  0  0  0  0
    8.7742   -6.1498   16.6764 C   0  0  0  0  0  0  0  0  0  0  0  0
   10.9418   -3.4032   21.2053 O   0  0  0  0  0  0  0  0  0  0  0  0
    1.4797   -8.6258   16.2950 C   0  0  0  0  0  0  0  0  0  0  0  0
    9.2861   -1.2743   25.3585 C   0  0  0  0  0  0  0  0  0  0  0  0
    1.8892  -10.3985   17.7511 N   0  0  0  0  0  0  0  0  0  0  0  0
    9.6210   -0.6952   24.0976 C   0  0  0  0  0  0  0  0  0  0  0  0
    7.0792   -9.0217   17.1429 C   0  0  0  0  0  0  0  0  0  0  0  0
    3.1713  -10.1816   17.6634 C   0  0  0  0  0  0  0  0  0  0  0  0
    2.7878   -8.3822   16.2137 C   0  0  0  0  0  0  0  0  0  0  0  0
    9.4601   -2.6590   25.6528 C   0  0  0  0  0  0  0  0  0  0  0  0
   10.1182   -1.5672   23.1165 C   0  0  0  0  0  0  0  0  0  0  0  0
    1.0552   -9.6360   17.0650 C   0  0  0  0  0  0  0  0  0  0  0  0
    3.6519   -9.1783   16.9039 C   0  0  0  0  0  0  0  0  0  0  0  0
    7.8675   -7.0096   15.9415 C   0  0  0  0  0  0  0  0  0  0  0  0
    5.9733   -9.6553   17.3832 N   0  0  0  0  0  0  0  0  0  0  0  0
   10.2411   -2.9363   23.4301 C   0  0  0  0  0  0  0  0  0  0  0  0
   10.7288   -3.8197   19.9525 C   0  0  0  0  0  0  0  0  0  0  0  0
   10.1189   -5.0054   19.6987 C   0  0  0  0  0  0  0  0  0  0  0  0
  1  3  4  0
  1  7  4  0
  2 21  4  0
  2 27  4  0
  3  9  4  0
  3 10  4  0
  4  8  4  0
  4 18  4  0
  4 25  1  0
  5  9  4  0
  5 12  4  0
  6 13  1  0
  6 27  1  0
  7 28  4  0
  8 11  4  0
  9 29  4  0
 10 12  4  0
 11 24  1  0
 11 26  4  0
 12 25  1  0
 13 28  1  0
 14 20  4  0
 14 23  4  0
 15 17  4  0
 15 21  4  0
 16 19  4  0
 16 23  4  0
 17 22  4  0
 18 26  4  0
 19 24  4  0
 20 24  4  0
 22 27  4  0
 28 29  4  0
M  END
$$$$

 Created by Python create_sdf_string function

 29 33  0  0  0  0  0  0  0  0999 V2000
   10.7215   -3.3326   17.6437 C   0  0  0  0  0  0  0  0  0  0  0  0
    9.9489   -3.4675   24.6487 N   0  0  0  0  0  0  0  0  0  0  0  0
   10.0172   -4.4740   17.4101 C   0  0  0  0  0  0  0  0  0  0  0  0
    6.9051   -7.9575   16.4222 C   0  0  0  0  0  0  0  0  0  0  0  0
    8.9969   -6.3552   17.9668 N   0  0  0  0  0  0  0  0  0  0  0  0
   10.6702   -3.9051   22.4070 C   0  0  0  0  0  0  0  0  0  0  0  0
   11.0625   -3.0028   18.8894 C   0  0  0  0  0  0  0  0  0  0  0  0
    5.6180   -7.9194   16.1754 O   0  0  0  0  0  0  0  0  0  0  0  0
    9.7259   -5.3080   18.4485 C   0  0  0  0  0  0  0  0  0  0  0  0
    9.4578   -5.0200   16.3036 N   0  0  0  0  0  0  0  0  0  0  0  0
    5.0287   -8.9365   16.8223 C   0  0  0  0  0  0  0  0  0  0  0  0
    8.7742   -6.1498   16.6764 C   0  0  0  0  0  0  0  0  0  0  0  0
   10.9418   -3.4032   21.2053 O   0  0  0  0  0  0  0  0  0  0  0  0
    1.4797   -8.6258   16.2950 C   0  0  0  0  0  0  0  0  0  0  0  0
    9.2861   -1.2743   25.3585 C   0  0  0  0  0  0  0  0  0  0  0  0
    1.8892  -10.3985   17.7511 N   0  0  0  0  0  0  0  0  0  0  0  0
    9.6210   -0.6952   24.0976 C   0  0  0  0  0  0  0  0  0  0  0  0
    7.0792   -9.0217   17.1429 C   0  0  0  0  0  0  0  0  0  0  0  0
    3.1713  -10.1816   17.6634 C   0  0  0  0  0  0  0  0  0  0  0  0
    2.7878   -8.3822   16.2137 C   0  0  0  0  0  0  0  0  0  0  0  0
    9.4601   -2.6590   25.6528 C   0  0  0  0  0  0  0  0  0  0  0  0
   10.1182   -1.5672   23.1165 C   0  0  0  0  0  0  0  0  0  0  0  0
    1.0552   -9.6360   17.0650 C   0  0  0  0  0  0  0  0  0  0  0  0
    3.6519   -9.1783   16.9039 C   0  0  0  0  0  0  0  0  0  0  0  0
    7.8675   -7.0096   15.9415 C   0  0  0  0  0  0  0  0  0  0  0  0
    5.9733   -9.6553   17.3832 N   0  0  0  0  0  0  0  0  0  0  0  0
   10.2411   -2.9363   23.4301 C   0  0  0  0  0  0  0  0  0  0  0  0
   10.7288   -3.8197   19.9525 C   0  0  0  0  0  0  0  0  0  0  0  0
   10.1189   -5.0054   19.6987 C   0  0  0  0  0  0  0  0  0  0  0  0
  1  3  4  0
  1  7  4  0
  2 21  4  0
  2 27  4  0
  3  9  4  0
  3 10  4  0
  4  8  4  0
  4 18  4  0
  4 25  1  0
  5  9  4  0
  5 12  4  0
  6 13  1  0
  6 27  1  0
  7 28  4  0
  8 11  4  0
  9 29  4  0
 10 12  4  0
 11 24  1  0
 11 26  4  0
 12 25  1  0
 13 28  1  0
 14 20  4  0
 14 23  4  0
 15 17  4  0
 15 21  4  0
 16 19  4  0
 16 23  4  0
 17 22  4  0
 18 26  4  0
 19 24  4  0
 20 24  4  0
 22 27  4  0
 28 29  4  0
M  END
$$$$

 Created by Python create_sdf_string function

 29 33  0  0  0  0  0  0  0  0999 V2000
   10.7215   -3.3326   17.6437 C   0  0  0  0  0  0  0  0  0  0  0  0
    9.9489   -3.4675   24.6487 N   0  0  0  0  0  0  0  0  0  0  0  0
   10.0172   -4.4740   17.4101 C   0  0  0  0  0  0  0  0  0  0  0  0
    6.9051   -7.9575   16.4222 C   0  0  0  0  0  0  0  0  0  0  0  0
    8.9969   -6.3552   17.9668 N   0  0  0  0  0  0  0  0  0  0  0  0
   10.6702   -3.9051   22.4070 C   0  0  0  0  0  0  0  0  0  0  0  0
   11.0625   -3.0028   18.8894 C   0  0  0  0  0  0  0  0  0  0  0  0
    5.6180   -7.9194   16.1754 O   0  0  0  0  0  0  0  0  0  0  0  0
    9.7259   -5.3080   18.4485 C   0  0  0  0  0  0  0  0  0  0  0  0
    9.4578   -5.0200   16.3036 N   0  0  0  0  0  0  0  0  0  0  0  0
    5.0287   -8.9365   16.8223 C   0  0  0  0  0  0  0  0  0  0  0  0
    8.7742   -6.1498   16.6764 C   0  0  0  0  0  0  0  0  0  0  0  0
   10.9418   -3.4032   21.2053 O   0  0  0  0  0  0  0  0  0  0  0  0
    1.4797   -8.6258   16.2950 C   0  0  0  0  0  0  0  0  0  0  0  0
    9.2861   -1.2743   25.3585 C   0  0  0  0  0  0  0  0  0  0  0  0
    1.8892  -10.3985   17.7511 N   0  0  0  0  0  0  0  0  0  0  0  0
    9.6210   -0.6952   24.0976 C   0  0  0  0  0  0  0  0  0  0  0  0
    7.0792   -9.0217   17.1429 C   0  0  0  0  0  0  0  0  0  0  0  0
    3.1713  -10.1816   17.6634 C   0  0  0  0  0  0  0  0  0  0  0  0
    2.7878   -8.3822   16.2137 C   0  0  0  0  0  0  0  0  0  0  0  0
    9.4601   -2.6590   25.6528 C   0  0  0  0  0  0  0  0  0  0  0  0
   10.1182   -1.5672   23.1165 C   0  0  0  0  0  0  0  0  0  0  0  0
    1.0552   -9.6360   17.0650 C   0  0  0  0  0  0  0  0  0  0  0  0
    3.6519   -9.1783   16.9039 C   0  0  0  0  0  0  0  0  0  0  0  0
    7.8675   -7.0096   15.9415 C   0  0  0  0  0  0  0  0  0  0  0  0
    5.9733   -9.6553   17.3832 N   0  0  0  0  0  0  0  0  0  0  0  0
   10.2411   -2.9363   23.4301 C   0  0  0  0  0  0  0  0  0  0  0  0
   10.7288   -3.8197   19.9525 C   0  0  0  0  0  0  0  0  0  0  0  0
   10.1189   -5.0054   19.6987 C   0  0  0  0  0  0  0  0  0  0  0  0
  1  3  4  0
  1  7  4  0
  2 21  4  0
  2 27  4  0
  3  9  4  0
  3 10  4  0
  4  8  4  0
  4 18  4  0
  4 25  1  0
  5  9  4  0
  5 12  4  0
  6 13  1  0
  6 27  1  0
  7 28  4  0
  8 11  4  0
  9 29  4  0
 10 12  4  0
 11 24  1  0
 11 26  4  0
 12 25  1  0
 13 28  1  0
 14 20  4  0
 14 23  4  0
 15 17  4  0
 15 21  4  0
 16 19  4  0
 16 23  4  0
 17 22  4  0
 18 26  4  0
 19 24  4  0
 20 24  4  0
 22 27  4  0
 28 29  4  0
M  END
$$$$

 Created by Python create_sdf_string function

 29 33  0  0  0  0  0  0  0  0999 V2000
   10.7215   -3.3326   17.6437 C   0  0  0  0  0  0  0  0  0  0  0  0
    9.9489   -3.4675   24.6487 N   0  0  0  0  0  0  0  0  0  0  0  0
   10.0172   -4.4740   17.4101 C   0  0  0  0  0  0  0  0  0  0  0  0
    6.9051   -7.9575   16.4222 C   0  0  0  0  0  0  0  0  0  0  0  0
    8.9969   -6.3552   17.9668 N   0  0  0  0  0  0  0  0  0  0  0  0
   10.6702   -3.9051   22.4070 C   0  0  0  0  0  0  0  0  0  0  0  0
   11.0625   -3.0028   18.8894 C   0  0  0  0  0  0  0  0  0  0  0  0
    5.6180   -7.9194   16.1754 O   0  0  0  0  0  0  0  0  0  0  0  0
    9.7259   -5.3080   18.4485 C   0  0  0  0  0  0  0  0  0  0  0  0
    9.4578   -5.0200   16.3036 N   0  0  0  0  0  0  0  0  0  0  0  0
    5.0287   -8.9365   16.8223 C   0  0  0  0  0  0  0  0  0  0  0  0
    8.7742   -6.1498   16.6764 C   0  0  0  0  0  0  0  0  0  0  0  0
   10.9418   -3.4032   21.2053 O   0  0  0  0  0  0  0  0  0  0  0  0
    1.4797   -8.6258   16.2950 C   0  0  0  0  0  0  0  0  0  0  0  0
    9.2861   -1.2743   25.3585 C   0  0  0  0  0  0  0  0  0  0  0  0
    1.8892  -10.3985   17.7511 N   0  0  0  0  0  0  0  0  0  0  0  0
    9.6210   -0.6952   24.0976 C   0  0  0  0  0  0  0  0  0  0  0  0
    7.0792   -9.0217   17.1429 C   0  0  0  0  0  0  0  0  0  0  0  0
    3.1713  -10.1816   17.6634 C   0  0  0  0  0  0  0  0  0  0  0  0
    2.7878   -8.3822   16.2137 C   0  0  0  0  0  0  0  0  0  0  0  0
    9.4601   -2.6590   25.6528 C   0  0  0  0  0  0  0  0  0  0  0  0
   10.1182   -1.5672   23.1165 C   0  0  0  0  0  0  0  0  0  0  0  0
    1.0552   -9.6360   17.0650 C   0  0  0  0  0  0  0  0  0  0  0  0
    3.6519   -9.1783   16.9039 C   0  0  0  0  0  0  0  0  0  0  0  0
    7.8675   -7.0096   15.9415 C   0  0  0  0  0  0  0  0  0  0  0  0
    5.9733   -9.6553   17.3832 N   0  0  0  0  0  0  0  0  0  0  0  0
   10.2411   -2.9363   23.4301 C   0  0  0  0  0  0  0  0  0  0  0  0
   10.7288   -3.8197   19.9525 C   0  0  0  0  0  0  0  0  0  0  0  0
   10.1189   -5.0054   19.6987 C   0  0  0  0  0  0  0  0  0  0  0  0
  1  3  4  0
  1  7  4  0
  2 21  4  0
  2 27  4  0
  3  9  4  0
  3 10  4  0
  4  8  4  0
  4 18  4  0
  4 25  1  0
  5  9  4  0
  5 12  4  0
  6 13  1  0
  6 27  1  0
  7 28  4  0
  8 11  4  0
  9 29  4  0
 10 12  4  0
 11 24  1  0
 11 26  4  0
 12 25  1  0
 13 28  1  0
 14 20  4  0
 14 23  4  0
 15 17  4  0
 15 21  4  0
 16 19  4  0
 16 23  4  0
 17 22  4  0
 18 26  4  0
 19 24  4  0
 20 24  4  0
 22 27  4  0
 28 29  4  0
M  END
$$$$

 Created by Python create_sdf_string function

 29 33  0  0  0  0  0  0  0  0999 V2000
   10.7215   -3.3326   17.6437 C   0  0  0  0  0  0  0  0  0  0  0  0
    9.9489   -3.4675   24.6487 N   0  0  0  0  0  0  0  0  0  0  0  0
   10.0172   -4.4740   17.4101 C   0  0  0  0  0  0  0  0  0  0  0  0
    6.9051   -7.9575   16.4222 C   0  0  0  0  0  0  0  0  0  0  0  0
    8.9969   -6.3552   17.9668 N   0  0  0  0  0  0  0  0  0  0  0  0
   10.6702   -3.9051   22.4070 C   0  0  0  0  0  0  0  0  0  0  0  0
   11.0625   -3.0028   18.8894 C   0  0  0  0  0  0  0  0  0  0  0  0
    5.6180   -7.9194   16.1754 O   0  0  0  0  0  0  0  0  0  0  0  0
    9.7259   -5.3080   18.4485 C   0  0  0  0  0  0  0  0  0  0  0  0
    9.4578   -5.0200   16.3036 N   0  0  0  0  0  0  0  0  0  0  0  0
    5.0287   -8.9365   16.8223 C   0  0  0  0  0  0  0  0  0  0  0  0
    8.7742   -6.1498   16.6764 C   0  0  0  0  0  0  0  0  0  0  0  0
   10.9418   -3.4032   21.2053 O   0  0  0  0  0  0  0  0  0  0  0  0
    1.4797   -8.6258   16.2950 C   0  0  0  0  0  0  0  0  0  0  0  0
    9.2861   -1.2743   25.3585 C   0  0  0  0  0  0  0  0  0  0  0  0
    1.8892  -10.3985   17.7511 N   0  0  0  0  0  0  0  0  0  0  0  0
    9.6210   -0.6952   24.0976 C   0  0  0  0  0  0  0  0  0  0  0  0
    7.0792   -9.0217   17.1429 C   0  0  0  0  0  0  0  0  0  0  0  0
    3.1713  -10.1816   17.6634 C   0  0  0  0  0  0  0  0  0  0  0  0
    2.7878   -8.3822   16.2137 C   0  0  0  0  0  0  0  0  0  0  0  0
    9.4601   -2.6590   25.6528 C   0  0  0  0  0  0  0  0  0  0  0  0
   10.1182   -1.5672   23.1165 C   0  0  0  0  0  0  0  0  0  0  0  0
    1.0552   -9.6360   17.0650 C   0  0  0  0  0  0  0  0  0  0  0  0
    3.6519   -9.1783   16.9039 C   0  0  0  0  0  0  0  0  0  0  0  0
    7.8675   -7.0096   15.9415 C   0  0  0  0  0  0  0  0  0  0  0  0
    5.9733   -9.6553   17.3832 N   0  0  0  0  0  0  0  0  0  0  0  0
   10.2411   -2.9363   23.4301 C   0  0  0  0  0  0  0  0  0  0  0  0
   10.7288   -3.8197   19.9525 C   0  0  0  0  0  0  0  0  0  0  0  0
   10.1189   -5.0054   19.6987 C   0  0  0  0  0  0  0  0  0  0  0  0
  1  3  4  0
  1  7  4  0
  2 21  4  0
  2 27  4  0
  3  9  4  0
  3 10  4  0
  4  8  4  0
  4 18  4  0
  4 25  1  0
  5  9  4  0
  5 12  4  0
  6 13  1  0
  6 27  1  0
  7 28  4  0
  8 11  4  0
  9 29  4  0
 10 12  4  0
 11 24  1  0
 11 26  4  0
 12 25  1  0
 13 28  1  0
 14 20  4  0
 14 23  4  0
 15 17  4  0
 15 21  4  0
 16 19  4  0
 16 23  4  0
 17 22  4  0
 18 26  4  0
 19 24  4  0
 20 24  4  0
 22 27  4  0
 28 29  4  0
M  END
$$$$

 Created by Python create_sdf_string function

 29 33  0  0  0  0  0  0  0  0999 V2000
   10.7215   -3.3326   17.6437 C   0  0  0  0  0  0  0  0  0  0  0  0
    9.9489   -3.4675   24.6487 N   0  0  0  0  0  0  0  0  0  0  0  0
   10.0172   -4.4740   17.4101 C   0  0  0  0  0  0  0  0  0  0  0  0
    6.9051   -7.9575   16.4222 C   0  0  0  0  0  0  0  0  0  0  0  0
    8.9969   -6.3552   17.9668 N   0  0  0  0  0  0  0  0  0  0  0  0
   10.6702   -3.9051   22.4070 C   0  0  0  0  0  0  0  0  0  0  0  0
   11.0625   -3.0028   18.8894 C   0  0  0  0  0  0  0  0  0  0  0  0
    5.6180   -7.9194   16.1754 O   0  0  0  0  0  0  0  0  0  0  0  0
    9.7259   -5.3080   18.4485 C   0  0  0  0  0  0  0  0  0  0  0  0
    9.4578   -5.0200   16.3036 N   0  0  0  0  0  0  0  0  0  0  0  0
    5.0287   -8.9365   16.8223 C   0  0  0  0  0  0  0  0  0  0  0  0
    8.7742   -6.1498   16.6764 C   0  0  0  0  0  0  0  0  0  0  0  0
   10.9418   -3.4032   21.2053 O   0  0  0  0  0  0  0  0  0  0  0  0
    1.4797   -8.6258   16.2950 C   0  0  0  0  0  0  0  0  0  0  0  0
    9.2861   -1.2743   25.3585 C   0  0  0  0  0  0  0  0  0  0  0  0
    1.8892  -10.3985   17.7511 N   0  0  0  0  0  0  0  0  0  0  0  0
    9.6210   -0.6952   24.0976 C   0  0  0  0  0  0  0  0  0  0  0  0
    7.0792   -9.0217   17.1429 C   0  0  0  0  0  0  0  0  0  0  0  0
    3.1713  -10.1816   17.6634 C   0  0  0  0  0  0  0  0  0  0  0  0
    2.7878   -8.3822   16.2137 C   0  0  0  0  0  0  0  0  0  0  0  0
    9.4601   -2.6590   25.6528 C   0  0  0  0  0  0  0  0  0  0  0  0
   10.1182   -1.5672   23.1165 C   0  0  0  0  0  0  0  0  0  0  0  0
    1.0552   -9.6360   17.0650 C   0  0  0  0  0  0  0  0  0  0  0  0
    3.6519   -9.1783   16.9039 C   0  0  0  0  0  0  0  0  0  0  0  0
    7.8675   -7.0096   15.9415 C   0  0  0  0  0  0  0  0  0  0  0  0
    5.9733   -9.6553   17.3832 N   0  0  0  0  0  0  0  0  0  0  0  0
   10.2411   -2.9363   23.4301 C   0  0  0  0  0  0  0  0  0  0  0  0
   10.7288   -3.8197   19.9525 C   0  0  0  0  0  0  0  0  0  0  0  0
   10.1189   -5.0054   19.6987 C   0  0  0  0  0  0  0  0  0  0  0  0
  1  3  4  0
  1  7  4  0
  2 21  4  0
  2 27  4  0
  3  9  4  0
  3 10  4  0
  4  8  4  0
  4 18  4  0
  4 25  1  0
  5  9  4  0
  5 12  4  0
  6 13  1  0
  6 27  1  0
  7 28  4  0
  8 11  4  0
  9 29  4  0
 10 12  4  0
 11 24  1  0
 11 26  4  0
 12 25  1  0
 13 28  1  0
 14 20  4  0
 14 23  4  0
 15 17  4  0
 15 21  4  0
 16 19  4  0
 16 23  4  0
 17 22  4  0
 18 26  4  0
 19 24  4  0
 20 24  4  0
 22 27  4  0
 28 29  4  0
M  END
$$$$

 Created by Python create_sdf_string function

 29 33  0  0  0  0  0  0  0  0999 V2000
   10.7215   -3.3326   17.6437 C   0  0  0  0  0  0  0  0  0  0  0  0
    9.9489   -3.4675   24.6487 N   0  0  0  0  0  0  0  0  0  0  0  0
   10.0172   -4.4740   17.4101 C   0  0  0  0  0  0  0  0  0  0  0  0
    6.9051   -7.9575   16.4222 C   0  0  0  0  0  0  0  0  0  0  0  0
    8.9969   -6.3552   17.9668 N   0  0  0  0  0  0  0  0  0  0  0  0
   10.6702   -3.9051   22.4070 C   0  0  0  0  0  0  0  0  0  0  0  0
   11.0625   -3.0028   18.8894 C   0  0  0  0  0  0  0  0  0  0  0  0
    5.6180   -7.9194   16.1754 O   0  0  0  0  0  0  0  0  0  0  0  0
    9.7259   -5.3080   18.4485 C   0  0  0  0  0  0  0  0  0  0  0  0
    9.4578   -5.0200   16.3036 N   0  0  0  0  0  0  0  0  0  0  0  0
    5.0287   -8.9365   16.8223 C   0  0  0  0  0  0  0  0  0  0  0  0
    8.7742   -6.1498   16.6764 C   0  0  0  0  0  0  0  0  0  0  0  0
   10.9418   -3.4032   21.2053 O   0  0  0  0  0  0  0  0  0  0  0  0
    1.4797   -8.6258   16.2950 C   0  0  0  0  0  0  0  0  0  0  0  0
    9.2861   -1.2743   25.3585 C   0  0  0  0  0  0  0  0  0  0  0  0
    1.8892  -10.3985   17.7511 N   0  0  0  0  0  0  0  0  0  0  0  0
    9.6210   -0.6952   24.0976 C   0  0  0  0  0  0  0  0  0  0  0  0
    7.0792   -9.0217   17.1429 C   0  0  0  0  0  0  0  0  0  0  0  0
    3.1713  -10.1816   17.6634 C   0  0  0  0  0  0  0  0  0  0  0  0
    2.7878   -8.3822   16.2137 C   0  0  0  0  0  0  0  0  0  0  0  0
    9.4601   -2.6590   25.6528 C   0  0  0  0  0  0  0  0  0  0  0  0
   10.1182   -1.5672   23.1165 C   0  0  0  0  0  0  0  0  0  0  0  0
    1.0552   -9.6360   17.0650 C   0  0  0  0  0  0  0  0  0  0  0  0
    3.6519   -9.1783   16.9039 C   0  0  0  0  0  0  0  0  0  0  0  0
    7.8675   -7.0096   15.9415 C   0  0  0  0  0  0  0  0  0  0  0  0
    5.9733   -9.6553   17.3832 N   0  0  0  0  0  0  0  0  0  0  0  0
   10.2411   -2.9363   23.4301 C   0  0  0  0  0  0  0  0  0  0  0  0
   10.7288   -3.8197   19.9525 C   0  0  0  0  0  0  0  0  0  0  0  0
   10.1189   -5.0054   19.6987 C   0  0  0  0  0  0  0  0  0  0  0  0
  1  3  4  0
  1  7  4  0
  2 21  4  0
  2 27  4  0
  3  9  4  0
  3 10  4  0
  4  8  4  0
  4 18  4  0
  4 25  1  0
  5  9  4  0
  5 12  4  0
  6 13  1  0
  6 27  1  0
  7 28  4  0
  8 11  4  0
  9 29  4  0
 10 12  4  0
 11 24  1  0
 11 26  4  0
 12 25  1  0
 13 28  1  0
 14 20  4  0
 14 23  4  0
 15 17  4  0
 15 21  4  0
 16 19  4  0
 16 23  4  0
 17 22  4  0
 18 26  4  0
 19 24  4  0
 20 24  4  0
 22 27  4  0
 28 29  4  0
M  END
$$$$

 Created by Python create_sdf_string function

 29 33  0  0  0  0  0  0  0  0999 V2000
   10.7215   -3.3326   17.6437 C   0  0  0  0  0  0  0  0  0  0  0  0
    9.9489   -3.4675   24.6487 N   0  0  0  0  0  0  0  0  0  0  0  0
   10.0172   -4.4740   17.4101 C   0  0  0  0  0  0  0  0  0  0  0  0
    6.9051   -7.9575   16.4222 C   0  0  0  0  0  0  0  0  0  0  0  0
    8.9969   -6.3552   17.9668 N   0  0  0  0  0  0  0  0  0  0  0  0
   10.6702   -3.9051   22.4070 C   0  0  0  0  0  0  0  0  0  0  0  0
   11.0625   -3.0028   18.8894 C   0  0  0  0  0  0  0  0  0  0  0  0
    5.6180   -7.9194   16.1754 O   0  0  0  0  0  0  0  0  0  0  0  0
    9.7259   -5.3080   18.4485 C   0  0  0  0  0  0  0  0  0  0  0  0
    9.4578   -5.0200   16.3036 N   0  0  0  0  0  0  0  0  0  0  0  0
    5.0287   -8.9365   16.8223 C   0  0  0  0  0  0  0  0  0  0  0  0
    8.7742   -6.1498   16.6764 C   0  0  0  0  0  0  0  0  0  0  0  0
   10.9418   -3.4032   21.2053 O   0  0  0  0  0  0  0  0  0  0  0  0
    1.4797   -8.6258   16.2950 C   0  0  0  0  0  0  0  0  0  0  0  0
    9.2861   -1.2743   25.3585 C   0  0  0  0  0  0  0  0  0  0  0  0
    1.8892  -10.3985   17.7511 N   0  0  0  0  0  0  0  0  0  0  0  0
    9.6210   -0.6952   24.0976 C   0  0  0  0  0  0  0  0  0  0  0  0
    7.0792   -9.0217   17.1429 C   0  0  0  0  0  0  0  0  0  0  0  0
    3.1713  -10.1816   17.6634 C   0  0  0  0  0  0  0  0  0  0  0  0
    2.7878   -8.3822   16.2137 C   0  0  0  0  0  0  0  0  0  0  0  0
    9.4601   -2.6590   25.6528 C   0  0  0  0  0  0  0  0  0  0  0  0
   10.1182   -1.5672   23.1165 C   0  0  0  0  0  0  0  0  0  0  0  0
    1.0552   -9.6360   17.0650 C   0  0  0  0  0  0  0  0  0  0  0  0
    3.6519   -9.1783   16.9039 C   0  0  0  0  0  0  0  0  0  0  0  0
    7.8675   -7.0096   15.9415 C   0  0  0  0  0  0  0  0  0  0  0  0
    5.9733   -9.6553   17.3832 N   0  0  0  0  0  0  0  0  0  0  0  0
   10.2411   -2.9363   23.4301 C   0  0  0  0  0  0  0  0  0  0  0  0
   10.7288   -3.8197   19.9525 C   0  0  0  0  0  0  0  0  0  0  0  0
   10.1189   -5.0054   19.6987 C   0  0  0  0  0  0  0  0  0  0  0  0
  1  3  4  0
  1  7  4  0
  2 21  4  0
  2 27  4  0
  3  9  4  0
  3 10  4  0
  4  8  4  0
  4 18  4  0
  4 25  1  0
  5  9  4  0
  5 12  4  0
  6 13  1  0
  6 27  1  0
  7 28  4  0
  8 11  4  0
  9 29  4  0
 10 12  4  0
 11 24  1  0
 11 26  4  0
 12 25  1  0
 13 28  1  0
 14 20  4  0
 14 23  4  0
 15 17  4  0
 15 21  4  0
 16 19  4  0
 16 23  4  0
 17 22  4  0
 18 26  4  0
 19 24  4  0
 20 24  4  0
 22 27  4  0
 28 29  4  0
M  END
$$$$

 Created by Python create_sdf_string function

 29 33  0  0  0  0  0  0  0  0999 V2000
   10.7215   -3.3326   17.6437 C   0  0  0  0  0  0  0  0  0  0  0  0
    9.9489   -3.4675   24.6487 N   0  0  0  0  0  0  0  0  0  0  0  0
   10.0172   -4.4740   17.4101 C   0  0  0  0  0  0  0  0  0  0  0  0
    6.9051   -7.9575   16.4222 C   0  0  0  0  0  0  0  0  0  0  0  0
    8.9969   -6.3552   17.9668 N   0  0  0  0  0  0  0  0  0  0  0  0
   10.6702   -3.9051   22.4070 C   0  0  0  0  0  0  0  0  0  0  0  0
   11.0625   -3.0028   18.8894 C   0  0  0  0  0  0  0  0  0  0  0  0
    5.6180   -7.9194   16.1754 O   0  0  0  0  0  0  0  0  0  0  0  0
    9.7259   -5.3080   18.4485 C   0  0  0  0  0  0  0  0  0  0  0  0
    9.4578   -5.0200   16.3036 N   0  0  0  0  0  0  0  0  0  0  0  0
    5.0287   -8.9365   16.8223 C   0  0  0  0  0  0  0  0  0  0  0  0
    8.7742   -6.1498   16.6764 C   0  0  0  0  0  0  0  0  0  0  0  0
   10.9418   -3.4032   21.2053 O   0  0  0  0  0  0  0  0  0  0  0  0
    1.4797   -8.6258   16.2950 C   0  0  0  0  0  0  0  0  0  0  0  0
    9.2861   -1.2743   25.3585 C   0  0  0  0  0  0  0  0  0  0  0  0
    1.8892  -10.3985   17.7511 N   0  0  0  0  0  0  0  0  0  0  0  0
    9.6210   -0.6952   24.0976 C   0  0  0  0  0  0  0  0  0  0  0  0
    7.0792   -9.0217   17.1429 C   0  0  0  0  0  0  0  0  0  0  0  0
    3.1713  -10.1816   17.6634 C   0  0  0  0  0  0  0  0  0  0  0  0
    2.7878   -8.3822   16.2137 C   0  0  0  0  0  0  0  0  0  0  0  0
    9.4601   -2.6590   25.6528 C   0  0  0  0  0  0  0  0  0  0  0  0
   10.1182   -1.5672   23.1165 C   0  0  0  0  0  0  0  0  0  0  0  0
    1.0552   -9.6360   17.0650 C   0  0  0  0  0  0  0  0  0  0  0  0
    3.6519   -9.1783   16.9039 C   0  0  0  0  0  0  0  0  0  0  0  0
    7.8675   -7.0096   15.9415 C   0  0  0  0  0  0  0  0  0  0  0  0
    5.9733   -9.6553   17.3832 N   0  0  0  0  0  0  0  0  0  0  0  0
   10.2411   -2.9363   23.4301 C   0  0  0  0  0  0  0  0  0  0  0  0
   10.7288   -3.8197   19.9525 C   0  0  0  0  0  0  0  0  0  0  0  0
   10.1189   -5.0054   19.6987 C   0  0  0  0  0  0  0  0  0  0  0  0
  1  3  4  0
  1  7  4  0
  2 21  4  0
  2 27  4  0
  3  9  4  0
  3 10  4  0
  4  8  4  0
  4 18  4  0
  4 25  1  0
  5  9  4  0
  5 12  4  0
  6 13  1  0
  6 27  1  0
  7 28  4  0
  8 11  4  0
  9 29  4  0
 10 12  4  0
 11 24  1  0
 11 26  4  0
 12 25  1  0
 13 28  1  0
 14 20  4  0
 14 23  4  0
 15 17  4  0
 15 21  4  0
 16 19  4  0
 16 23  4  0
 17 22  4  0
 18 26  4  0
 19 24  4  0
 20 24  4  0
 22 27  4  0
 28 29  4  0
M  END
$$$$

 Created by Python create_sdf_string function

 29 33  0  0  0  0  0  0  0  0999 V2000
   10.7215   -3.3326   17.6437 C   0  0  0  0  0  0  0  0  0  0  0  0
    9.9489   -3.4675   24.6487 N   0  0  0  0  0  0  0  0  0  0  0  0
   10.0172   -4.4740   17.4101 C   0  0  0  0  0  0  0  0  0  0  0  0
    6.9051   -7.9575   16.4222 C   0  0  0  0  0  0  0  0  0  0  0  0
    8.9969   -6.3552   17.9668 N   0  0  0  0  0  0  0  0  0  0  0  0
   10.6702   -3.9051   22.4070 C   0  0  0  0  0  0  0  0  0  0  0  0
   11.0625   -3.0028   18.8894 C   0  0  0  0  0  0  0  0  0  0  0  0
    5.6180   -7.9194   16.1754 O   0  0  0  0  0  0  0  0  0  0  0  0
    9.7259   -5.3080   18.4485 C   0  0  0  0  0  0  0  0  0  0  0  0
    9.4578   -5.0200   16.3036 N   0  0  0  0  0  0  0  0  0  0  0  0
    5.0287   -8.9365   16.8223 C   0  0  0  0  0  0  0  0  0  0  0  0
    8.7742   -6.1498   16.6764 C   0  0  0  0  0  0  0  0  0  0  0  0
   10.9418   -3.4032   21.2053 O   0  0  0  0  0  0  0  0  0  0  0  0
    1.4797   -8.6258   16.2950 C   0  0  0  0  0  0  0  0  0  0  0  0
    9.2861   -1.2743   25.3585 C   0  0  0  0  0  0  0  0  0  0  0  0
    1.8892  -10.3985   17.7511 N   0  0  0  0  0  0  0  0  0  0  0  0
    9.6210   -0.6952   24.0976 C   0  0  0  0  0  0  0  0  0  0  0  0
    7.0792   -9.0217   17.1429 C   0  0  0  0  0  0  0  0  0  0  0  0
    3.1713  -10.1816   17.6634 C   0  0  0  0  0  0  0  0  0  0  0  0
    2.7878   -8.3822   16.2137 C   0  0  0  0  0  0  0  0  0  0  0  0
    9.4601   -2.6590   25.6528 C   0  0  0  0  0  0  0  0  0  0  0  0
   10.1182   -1.5672   23.1165 C   0  0  0  0  0  0  0  0  0  0  0  0
    1.0552   -9.6360   17.0650 C   0  0  0  0  0  0  0  0  0  0  0  0
    3.6519   -9.1783   16.9039 C   0  0  0  0  0  0  0  0  0  0  0  0
    7.8675   -7.0096   15.9415 C   0  0  0  0  0  0  0  0  0  0  0  0
    5.9733   -9.6553   17.3832 N   0  0  0  0  0  0  0  0  0  0  0  0
   10.2411   -2.9363   23.4301 C   0  0  0  0  0  0  0  0  0  0  0  0
   10.7288   -3.8197   19.9525 C   0  0  0  0  0  0  0  0  0  0  0  0
   10.1189   -5.0054   19.6987 C   0  0  0  0  0  0  0  0  0  0  0  0
  1  3  4  0
  1  7  4  0
  2 21  4  0
  2 27  4  0
  3  9  4  0
  3 10  4  0
  4  8  4  0
  4 18  4  0
  4 25  1  0
  5  9  4  0
  5 12  4  0
  6 13  1  0
  6 27  1  0
  7 28  4  0
  8 11  4  0
  9 29  4  0
 10 12  4  0
 11 24  1  0
 11 26  4  0
 12 25  1  0
 13 28  1  0
 14 20  4  0
 14 23  4  0
 15 17  4  0
 15 21  4  0
 16 19  4  0
 16 23  4  0
 17 22  4  0
 18 26  4  0
 19 24  4  0
 20 24  4  0
 22 27  4  0
 28 29  4  0
M  END
$$$$

 Created by Python create_sdf_string function

 29 33  0  0  0  0  0  0  0  0999 V2000
   10.7215   -3.3326   17.6437 C   0  0  0  0  0  0  0  0  0  0  0  0
    9.9489   -3.4675   24.6487 N   0  0  0  0  0  0  0  0  0  0  0  0
   10.0172   -4.4740   17.4101 C   0  0  0  0  0  0  0  0  0  0  0  0
    6.9051   -7.9575   16.4222 C   0  0  0  0  0  0  0  0  0  0  0  0
    8.9969   -6.3552   17.9668 N   0  0  0  0  0  0  0  0  0  0  0  0
   10.6702   -3.9051   22.4070 C   0  0  0  0  0  0  0  0  0  0  0  0
   11.0625   -3.0028   18.8894 C   0  0  0  0  0  0  0  0  0  0  0  0
    5.6180   -7.9194   16.1754 O   0  0  0  0  0  0  0  0  0  0  0  0
    9.7259   -5.3080   18.4485 C   0  0  0  0  0  0  0  0  0  0  0  0
    9.4578   -5.0200   16.3036 N   0  0  0  0  0  0  0  0  0  0  0  0
    5.0287   -8.9365   16.8223 C   0  0  0  0  0  0  0  0  0  0  0  0
    8.7742   -6.1498   16.6764 C   0  0  0  0  0  0  0  0  0  0  0  0
   10.9418   -3.4032   21.2053 O   0  0  0  0  0  0  0  0  0  0  0  0
    1.4797   -8.6258   16.2950 C   0  0  0  0  0  0  0  0  0  0  0  0
    9.2861   -1.2743   25.3585 C   0  0  0  0  0  0  0  0  0  0  0  0
    1.8892  -10.3985   17.7511 N   0  0  0  0  0  0  0  0  0  0  0  0
    9.6210   -0.6952   24.0976 C   0  0  0  0  0  0  0  0  0  0  0  0
    7.0792   -9.0217   17.1429 C   0  0  0  0  0  0  0  0  0  0  0  0
    3.1713  -10.1816   17.6634 C   0  0  0  0  0  0  0  0  0  0  0  0
    2.7878   -8.3822   16.2137 C   0  0  0  0  0  0  0  0  0  0  0  0
    9.4601   -2.6590   25.6528 C   0  0  0  0  0  0  0  0  0  0  0  0
   10.1182   -1.5672   23.1165 C   0  0  0  0  0  0  0  0  0  0  0  0
    1.0552   -9.6360   17.0650 C   0  0  0  0  0  0  0  0  0  0  0  0
    3.6519   -9.1783   16.9039 C   0  0  0  0  0  0  0  0  0  0  0  0
    7.8675   -7.0096   15.9415 C   0  0  0  0  0  0  0  0  0  0  0  0
    5.9733   -9.6553   17.3832 N   0  0  0  0  0  0  0  0  0  0  0  0
   10.2411   -2.9363   23.4301 C   0  0  0  0  0  0  0  0  0  0  0  0
   10.7288   -3.8197   19.9525 C   0  0  0  0  0  0  0  0  0  0  0  0
   10.1189   -5.0054   19.6987 C   0  0  0  0  0  0  0  0  0  0  0  0
  1  3  4  0
  1  7  4  0
  2 21  4  0
  2 27  4  0
  3  9  4  0
  3 10  4  0
  4  8  4  0
  4 18  4  0
  4 25  1  0
  5  9  4  0
  5 12  4  0
  6 13  1  0
  6 27  1  0
  7 28  4  0
  8 11  4  0
  9 29  4  0
 10 12  4  0
 11 24  1  0
 11 26  4  0
 12 25  1  0
 13 28  1  0
 14 20  4  0
 14 23  4  0
 15 17  4  0
 15 21  4  0
 16 19  4  0
 16 23  4  0
 17 22  4  0
 18 26  4  0
 19 24  4  0
 20 24  4  0
 22 27  4  0
 28 29  4  0
M  END
$$$$

 Created by Python create_sdf_string function

 29 33  0  0  0  0  0  0  0  0999 V2000
   10.7215   -3.3326   17.6437 C   0  0  0  0  0  0  0  0  0  0  0  0
    9.9489   -3.4675   24.6487 N   0  0  0  0  0  0  0  0  0  0  0  0
   10.0172   -4.4740   17.4101 C   0  0  0  0  0  0  0  0  0  0  0  0
    6.9051   -7.9575   16.4222 C   0  0  0  0  0  0  0  0  0  0  0  0
    8.9969   -6.3552   17.9668 N   0  0  0  0  0  0  0  0  0  0  0  0
   10.6702   -3.9051   22.4070 C   0  0  0  0  0  0  0  0  0  0  0  0
   11.0625   -3.0028   18.8894 C   0  0  0  0  0  0  0  0  0  0  0  0
    5.6180   -7.9194   16.1754 O   0  0  0  0  0  0  0  0  0  0  0  0
    9.7259   -5.3080   18.4485 C   0  0  0  0  0  0  0  0  0  0  0  0
    9.4578   -5.0200   16.3036 N   0  0  0  0  0  0  0  0  0  0  0  0
    5.0287   -8.9365   16.8223 C   0  0  0  0  0  0  0  0  0  0  0  0
    8.7742   -6.1498   16.6764 C   0  0  0  0  0  0  0  0  0  0  0  0
   10.9418   -3.4032   21.2053 O   0  0  0  0  0  0  0  0  0  0  0  0
    1.4797   -8.6258   16.2950 C   0  0  0  0  0  0  0  0  0  0  0  0
    9.2861   -1.2743   25.3585 C   0  0  0  0  0  0  0  0  0  0  0  0
    1.8892  -10.3985   17.7511 N   0  0  0  0  0  0  0  0  0  0  0  0
    9.6210   -0.6952   24.0976 C   0  0  0  0  0  0  0  0  0  0  0  0
    7.0792   -9.0217   17.1429 C   0  0  0  0  0  0  0  0  0  0  0  0
    3.1713  -10.1816   17.6634 C   0  0  0  0  0  0  0  0  0  0  0  0
    2.7878   -8.3822   16.2137 C   0  0  0  0  0  0  0  0  0  0  0  0
    9.4601   -2.6590   25.6528 C   0  0  0  0  0  0  0  0  0  0  0  0
   10.1182   -1.5672   23.1165 C   0  0  0  0  0  0  0  0  0  0  0  0
    1.0552   -9.6360   17.0650 C   0  0  0  0  0  0  0  0  0  0  0  0
    3.6519   -9.1783   16.9039 C   0  0  0  0  0  0  0  0  0  0  0  0
    7.8675   -7.0096   15.9415 C   0  0  0  0  0  0  0  0  0  0  0  0
    5.9733   -9.6553   17.3832 N   0  0  0  0  0  0  0  0  0  0  0  0
   10.2411   -2.9363   23.4301 C   0  0  0  0  0  0  0  0  0  0  0  0
   10.7288   -3.8197   19.9525 C   0  0  0  0  0  0  0  0  0  0  0  0
   10.1189   -5.0054   19.6987 C   0  0  0  0  0  0  0  0  0  0  0  0
  1  3  4  0
  1  7  4  0
  2 21  4  0
  2 27  4  0
  3  9  4  0
  3 10  4  0
  4  8  4  0
  4 18  4  0
  4 25  1  0
  5  9  4  0
  5 12  4  0
  6 13  1  0
  6 27  1  0
  7 28  4  0
  8 11  4  0
  9 29  4  0
 10 12  4  0
 11 24  1  0
 11 26  4  0
 12 25  1  0
 13 28  1  0
 14 20  4  0
 14 23  4  0
 15 17  4  0
 15 21  4  0
 16 19  4  0
 16 23  4  0
 17 22  4  0
 18 26  4  0
 19 24  4  0
 20 24  4  0
 22 27  4  0
 28 29  4  0
M  END
$$$$

 Created by Python create_sdf_string function

 29 33  0  0  0  0  0  0  0  0999 V2000
   10.7215   -3.3326   17.6437 C   0  0  0  0  0  0  0  0  0  0  0  0
    9.9489   -3.4675   24.6487 N   0  0  0  0  0  0  0  0  0  0  0  0
   10.0172   -4.4740   17.4101 C   0  0  0  0  0  0  0  0  0  0  0  0
    6.9051   -7.9575   16.4222 C   0  0  0  0  0  0  0  0  0  0  0  0
    8.9969   -6.3552   17.9668 N   0  0  0  0  0  0  0  0  0  0  0  0
   10.6702   -3.9051   22.4070 C   0  0  0  0  0  0  0  0  0  0  0  0
   11.0625   -3.0028   18.8894 C   0  0  0  0  0  0  0  0  0  0  0  0
    5.6180   -7.9194   16.1754 O   0  0  0  0  0  0  0  0  0  0  0  0
    9.7259   -5.3080   18.4485 C   0  0  0  0  0  0  0  0  0  0  0  0
    9.4578   -5.0200   16.3036 N   0  0  0  0  0  0  0  0  0  0  0  0
    5.0287   -8.9365   16.8223 C   0  0  0  0  0  0  0  0  0  0  0  0
    8.7742   -6.1498   16.6764 C   0  0  0  0  0  0  0  0  0  0  0  0
   10.9418   -3.4032   21.2053 O   0  0  0  0  0  0  0  0  0  0  0  0
    1.4797   -8.6258   16.2950 C   0  0  0  0  0  0  0  0  0  0  0  0
    9.2861   -1.2743   25.3585 C   0  0  0  0  0  0  0  0  0  0  0  0
    1.8892  -10.3985   17.7511 N   0  0  0  0  0  0  0  0  0  0  0  0
    9.6210   -0.6952   24.0976 C   0  0  0  0  0  0  0  0  0  0  0  0
    7.0792   -9.0217   17.1429 C   0  0  0  0  0  0  0  0  0  0  0  0
    3.1713  -10.1816   17.6634 C   0  0  0  0  0  0  0  0  0  0  0  0
    2.7878   -8.3822   16.2137 C   0  0  0  0  0  0  0  0  0  0  0  0
    9.4601   -2.6590   25.6528 C   0  0  0  0  0  0  0  0  0  0  0  0
   10.1182   -1.5672   23.1165 C   0  0  0  0  0  0  0  0  0  0  0  0
    1.0552   -9.6360   17.0650 C   0  0  0  0  0  0  0  0  0  0  0  0
    3.6519   -9.1783   16.9039 C   0  0  0  0  0  0  0  0  0  0  0  0
    7.8675   -7.0096   15.9415 C   0  0  0  0  0  0  0  0  0  0  0  0
    5.9733   -9.6553   17.3832 N   0  0  0  0  0  0  0  0  0  0  0  0
   10.2411   -2.9363   23.4301 C   0  0  0  0  0  0  0  0  0  0  0  0
   10.7288   -3.8197   19.9525 C   0  0  0  0  0  0  0  0  0  0  0  0
   10.1189   -5.0054   19.6987 C   0  0  0  0  0  0  0  0  0  0  0  0
  1  3  4  0
  1  7  4  0
  2 21  4  0
  2 27  4  0
  3  9  4  0
  3 10  4  0
  4  8  4  0
  4 18  4  0
  4 25  1  0
  5  9  4  0
  5 12  4  0
  6 13  1  0
  6 27  1  0
  7 28  4  0
  8 11  4  0
  9 29  4  0
 10 12  4  0
 11 24  1  0
 11 26  4  0
 12 25  1  0
 13 28  1  0
 14 20  4  0
 14 23  4  0
 15 17  4  0
 15 21  4  0
 16 19  4  0
 16 23  4  0
 17 22  4  0
 18 26  4  0
 19 24  4  0
 20 24  4  0
 22 27  4  0
 28 29  4  0
M  END
$$$$

 Created by Python create_sdf_string function

 29 33  0  0  0  0  0  0  0  0999 V2000
   10.7215   -3.3326   17.6437 C   0  0  0  0  0  0  0  0  0  0  0  0
    9.9489   -3.4675   24.6487 N   0  0  0  0  0  0  0  0  0  0  0  0
   10.0172   -4.4740   17.4101 C   0  0  0  0  0  0  0  0  0  0  0  0
    6.9051   -7.9575   16.4222 C   0  0  0  0  0  0  0  0  0  0  0  0
    8.9969   -6.3552   17.9668 N   0  0  0  0  0  0  0  0  0  0  0  0
   10.6702   -3.9051   22.4070 C   0  0  0  0  0  0  0  0  0  0  0  0
   11.0625   -3.0028   18.8894 C   0  0  0  0  0  0  0  0  0  0  0  0
    5.6180   -7.9194   16.1754 O   0  0  0  0  0  0  0  0  0  0  0  0
    9.7259   -5.3080   18.4485 C   0  0  0  0  0  0  0  0  0  0  0  0
    9.4578   -5.0200   16.3036 N   0  0  0  0  0  0  0  0  0  0  0  0
    5.0287   -8.9365   16.8223 C   0  0  0  0  0  0  0  0  0  0  0  0
    8.7742   -6.1498   16.6764 C   0  0  0  0  0  0  0  0  0  0  0  0
   10.9418   -3.4032   21.2053 O   0  0  0  0  0  0  0  0  0  0  0  0
    1.4797   -8.6258   16.2950 C   0  0  0  0  0  0  0  0  0  0  0  0
    9.2861   -1.2743   25.3585 C   0  0  0  0  0  0  0  0  0  0  0  0
    1.8892  -10.3985   17.7511 N   0  0  0  0  0  0  0  0  0  0  0  0
    9.6210   -0.6952   24.0976 C   0  0  0  0  0  0  0  0  0  0  0  0
    7.0792   -9.0217   17.1429 C   0  0  0  0  0  0  0  0  0  0  0  0
    3.1713  -10.1816   17.6634 C   0  0  0  0  0  0  0  0  0  0  0  0
    2.7878   -8.3822   16.2137 C   0  0  0  0  0  0  0  0  0  0  0  0
    9.4601   -2.6590   25.6528 C   0  0  0  0  0  0  0  0  0  0  0  0
   10.1182   -1.5672   23.1165 C   0  0  0  0  0  0  0  0  0  0  0  0
    1.0552   -9.6360   17.0650 C   0  0  0  0  0  0  0  0  0  0  0  0
    3.6519   -9.1783   16.9039 C   0  0  0  0  0  0  0  0  0  0  0  0
    7.8675   -7.0096   15.9415 C   0  0  0  0  0  0  0  0  0  0  0  0
    5.9733   -9.6553   17.3832 N   0  0  0  0  0  0  0  0  0  0  0  0
   10.2411   -2.9363   23.4301 C   0  0  0  0  0  0  0  0  0  0  0  0
   10.7288   -3.8197   19.9525 C   0  0  0  0  0  0  0  0  0  0  0  0
   10.1189   -5.0054   19.6987 C   0  0  0  0  0  0  0  0  0  0  0  0
  1  3  4  0
  1  7  4  0
  2 21  4  0
  2 27  4  0
  3  9  4  0
  3 10  4  0
  4  8  4  0
  4 18  4  0
  4 25  1  0
  5  9  4  0
  5 12  4  0
  6 13  1  0
  6 27  1  0
  7 28  4  0
  8 11  4  0
  9 29  4  0
 10 12  4  0
 11 24  1  0
 11 26  4  0
 12 25  1  0
 13 28  1  0
 14 20  4  0
 14 23  4  0
 15 17  4  0
 15 21  4  0
 16 19  4  0
 16 23  4  0
 17 22  4  0
 18 26  4  0
 19 24  4  0
 20 24  4  0
 22 27  4  0
 28 29  4  0
M  END
$$$$

 Created by Python create_sdf_string function

 29 33  0  0  0  0  0  0  0  0999 V2000
   10.7215   -3.3326   17.6437 C   0  0  0  0  0  0  0  0  0  0  0  0
    9.9489   -3.4675   24.6487 N   0  0  0  0  0  0  0  0  0  0  0  0
   10.0172   -4.4740   17.4101 C   0  0  0  0  0  0  0  0  0  0  0  0
    6.9051   -7.9575   16.4222 C   0  0  0  0  0  0  0  0  0  0  0  0
    8.9969   -6.3552   17.9668 N   0  0  0  0  0  0  0  0  0  0  0  0
   10.6702   -3.9051   22.4070 C   0  0  0  0  0  0  0  0  0  0  0  0
   11.0625   -3.0028   18.8894 C   0  0  0  0  0  0  0  0  0  0  0  0
    5.6180   -7.9194   16.1754 O   0  0  0  0  0  0  0  0  0  0  0  0
    9.7259   -5.3080   18.4485 C   0  0  0  0  0  0  0  0  0  0  0  0
    9.4578   -5.0200   16.3036 N   0  0  0  0  0  0  0  0  0  0  0  0
    5.0287   -8.9365   16.8223 C   0  0  0  0  0  0  0  0  0  0  0  0
    8.7742   -6.1498   16.6764 C   0  0  0  0  0  0  0  0  0  0  0  0
   10.9418   -3.4032   21.2053 O   0  0  0  0  0  0  0  0  0  0  0  0
    1.4797   -8.6258   16.2950 C   0  0  0  0  0  0  0  0  0  0  0  0
    9.2861   -1.2743   25.3585 C   0  0  0  0  0  0  0  0  0  0  0  0
    1.8892  -10.3985   17.7511 N   0  0  0  0  0  0  0  0  0  0  0  0
    9.6210   -0.6952   24.0976 C   0  0  0  0  0  0  0  0  0  0  0  0
    7.0792   -9.0217   17.1429 C   0  0  0  0  0  0  0  0  0  0  0  0
    3.1713  -10.1816   17.6634 C   0  0  0  0  0  0  0  0  0  0  0  0
    2.7878   -8.3822   16.2137 C   0  0  0  0  0  0  0  0  0  0  0  0
    9.4601   -2.6590   25.6528 C   0  0  0  0  0  0  0  0  0  0  0  0
   10.1182   -1.5672   23.1165 C   0  0  0  0  0  0  0  0  0  0  0  0
    1.0552   -9.6360   17.0650 C   0  0  0  0  0  0  0  0  0  0  0  0
    3.6519   -9.1783   16.9039 C   0  0  0  0  0  0  0  0  0  0  0  0
    7.8675   -7.0096   15.9415 C   0  0  0  0  0  0  0  0  0  0  0  0
    5.9733   -9.6553   17.3832 N   0  0  0  0  0  0  0  0  0  0  0  0
   10.2411   -2.9363   23.4301 C   0  0  0  0  0  0  0  0  0  0  0  0
   10.7288   -3.8197   19.9525 C   0  0  0  0  0  0  0  0  0  0  0  0
   10.1189   -5.0054   19.6987 C   0  0  0  0  0  0  0  0  0  0  0  0
  1  3  4  0
  1  7  4  0
  2 21  4  0
  2 27  4  0
  3  9  4  0
  3 10  4  0
  4  8  4  0
  4 18  4  0
  4 25  1  0
  5  9  4  0
  5 12  4  0
  6 13  1  0
  6 27  1  0
  7 28  4  0
  8 11  4  0
  9 29  4  0
 10 12  4  0
 11 24  1  0
 11 26  4  0
 12 25  1  0
 13 28  1  0
 14 20  4  0
 14 23  4  0
 15 17  4  0
 15 21  4  0
 16 19  4  0
 16 23  4  0
 17 22  4  0
 18 26  4  0
 19 24  4  0
 20 24  4  0
 22 27  4  0
 28 29  4  0
M  END
$$$$

 Created by Python create_sdf_string function

 29 33  0  0  0  0  0  0  0  0999 V2000
   10.7215   -3.3326   17.6437 C   0  0  0  0  0  0  0  0  0  0  0  0
    9.9489   -3.4675   24.6487 N   0  0  0  0  0  0  0  0  0  0  0  0
   10.0172   -4.4740   17.4101 C   0  0  0  0  0  0  0  0  0  0  0  0
    6.9051   -7.9575   16.4222 C   0  0  0  0  0  0  0  0  0  0  0  0
    8.9969   -6.3552   17.9668 N   0  0  0  0  0  0  0  0  0  0  0  0
   10.6702   -3.9051   22.4070 C   0  0  0  0  0  0  0  0  0  0  0  0
   11.0625   -3.0028   18.8894 C   0  0  0  0  0  0  0  0  0  0  0  0
    5.6180   -7.9194   16.1754 O   0  0  0  0  0  0  0  0  0  0  0  0
    9.7259   -5.3080   18.4485 C   0  0  0  0  0  0  0  0  0  0  0  0
    9.4578   -5.0200   16.3036 N   0  0  0  0  0  0  0  0  0  0  0  0
    5.0287   -8.9365   16.8223 C   0  0  0  0  0  0  0  0  0  0  0  0
    8.7742   -6.1498   16.6764 C   0  0  0  0  0  0  0  0  0  0  0  0
   10.9418   -3.4032   21.2053 O   0  0  0  0  0  0  0  0  0  0  0  0
    1.4797   -8.6258   16.2950 C   0  0  0  0  0  0  0  0  0  0  0  0
    9.2861   -1.2743   25.3585 C   0  0  0  0  0  0  0  0  0  0  0  0
    1.8892  -10.3985   17.7511 N   0  0  0  0  0  0  0  0  0  0  0  0
    9.6210   -0.6952   24.0976 C   0  0  0  0  0  0  0  0  0  0  0  0
    7.0792   -9.0217   17.1429 C   0  0  0  0  0  0  0  0  0  0  0  0
    3.1713  -10.1816   17.6634 C   0  0  0  0  0  0  0  0  0  0  0  0
    2.7878   -8.3822   16.2137 C   0  0  0  0  0  0  0  0  0  0  0  0
    9.4601   -2.6590   25.6528 C   0  0  0  0  0  0  0  0  0  0  0  0
   10.1182   -1.5672   23.1165 C   0  0  0  0  0  0  0  0  0  0  0  0
    1.0552   -9.6360   17.0650 C   0  0  0  0  0  0  0  0  0  0  0  0
    3.6519   -9.1783   16.9039 C   0  0  0  0  0  0  0  0  0  0  0  0
    7.8675   -7.0096   15.9415 C   0  0  0  0  0  0  0  0  0  0  0  0
    5.9733   -9.6553   17.3832 N   0  0  0  0  0  0  0  0  0  0  0  0
   10.2411   -2.9363   23.4301 C   0  0  0  0  0  0  0  0  0  0  0  0
   10.7288   -3.8197   19.9525 C   0  0  0  0  0  0  0  0  0  0  0  0
   10.1189   -5.0054   19.6987 C   0  0  0  0  0  0  0  0  0  0  0  0
  1  3  4  0
  1  7  4  0
  2 21  4  0
  2 27  4  0
  3  9  4  0
  3 10  4  0
  4  8  4  0
  4 18  4  0
  4 25  1  0
  5  9  4  0
  5 12  4  0
  6 13  1  0
  6 27  1  0
  7 28  4  0
  8 11  4  0
  9 29  4  0
 10 12  4  0
 11 24  1  0
 11 26  4  0
 12 25  1  0
 13 28  1  0
 14 20  4  0
 14 23  4  0
 15 17  4  0
 15 21  4  0
 16 19  4  0
 16 23  4  0
 17 22  4  0
 18 26  4  0
 19 24  4  0
 20 24  4  0
 22 27  4  0
 28 29  4  0
M  END
$$$$

 Created by Python create_sdf_string function

 29 33  0  0  0  0  0  0  0  0999 V2000
   10.7215   -3.3326   17.6437 C   0  0  0  0  0  0  0  0  0  0  0  0
    9.9489   -3.4675   24.6487 N   0  0  0  0  0  0  0  0  0  0  0  0
   10.0172   -4.4740   17.4101 C   0  0  0  0  0  0  0  0  0  0  0  0
    6.9051   -7.9575   16.4222 C   0  0  0  0  0  0  0  0  0  0  0  0
    8.9969   -6.3552   17.9668 N   0  0  0  0  0  0  0  0  0  0  0  0
   10.6702   -3.9051   22.4070 C   0  0  0  0  0  0  0  0  0  0  0  0
   11.0625   -3.0028   18.8894 C   0  0  0  0  0  0  0  0  0  0  0  0
    5.6180   -7.9194   16.1754 O   0  0  0  0  0  0  0  0  0  0  0  0
    9.7259   -5.3080   18.4485 C   0  0  0  0  0  0  0  0  0  0  0  0
    9.4578   -5.0200   16.3036 N   0  0  0  0  0  0  0  0  0  0  0  0
    5.0287   -8.9365   16.8223 C   0  0  0  0  0  0  0  0  0  0  0  0
    8.7742   -6.1498   16.6764 C   0  0  0  0  0  0  0  0  0  0  0  0
   10.9418   -3.4032   21.2053 O   0  0  0  0  0  0  0  0  0  0  0  0
    1.4797   -8.6258   16.2950 C   0  0  0  0  0  0  0  0  0  0  0  0
    9.2861   -1.2743   25.3585 C   0  0  0  0  0  0  0  0  0  0  0  0
    1.8892  -10.3985   17.7511 N   0  0  0  0  0  0  0  0  0  0  0  0
    9.6210   -0.6952   24.0976 C   0  0  0  0  0  0  0  0  0  0  0  0
    7.0792   -9.0217   17.1429 C   0  0  0  0  0  0  0  0  0  0  0  0
    3.1713  -10.1816   17.6634 C   0  0  0  0  0  0  0  0  0  0  0  0
    2.7878   -8.3822   16.2137 C   0  0  0  0  0  0  0  0  0  0  0  0
    9.4601   -2.6590   25.6528 C   0  0  0  0  0  0  0  0  0  0  0  0
   10.1182   -1.5672   23.1165 C   0  0  0  0  0  0  0  0  0  0  0  0
    1.0552   -9.6360   17.0650 C   0  0  0  0  0  0  0  0  0  0  0  0
    3.6519   -9.1783   16.9039 C   0  0  0  0  0  0  0  0  0  0  0  0
    7.8675   -7.0096   15.9415 C   0  0  0  0  0  0  0  0  0  0  0  0
    5.9733   -9.6553   17.3832 N   0  0  0  0  0  0  0  0  0  0  0  0
   10.2411   -2.9363   23.4301 C   0  0  0  0  0  0  0  0  0  0  0  0
   10.7288   -3.8197   19.9525 C   0  0  0  0  0  0  0  0  0  0  0  0
   10.1189   -5.0054   19.6987 C   0  0  0  0  0  0  0  0  0  0  0  0
  1  3  4  0
  1  7  4  0
  2 21  4  0
  2 27  4  0
  3  9  4  0
  3 10  4  0
  4  8  4  0
  4 18  4  0
  4 25  1  0
  5  9  4  0
  5 12  4  0
  6 13  1  0
  6 27  1  0
  7 28  4  0
  8 11  4  0
  9 29  4  0
 10 12  4  0
 11 24  1  0
 11 26  4  0
 12 25  1  0
 13 28  1  0
 14 20  4  0
 14 23  4  0
 15 17  4  0
 15 21  4  0
 16 19  4  0
 16 23  4  0
 17 22  4  0
 18 26  4  0
 19 24  4  0
 20 24  4  0
 22 27  4  0
 28 29  4  0
M  END
$$$$

 Created by Python create_sdf_string function

 29 33  0  0  0  0  0  0  0  0999 V2000
   10.7215   -3.3326   17.6437 C   0  0  0  0  0  0  0  0  0  0  0  0
    9.9489   -3.4675   24.6487 N   0  0  0  0  0  0  0  0  0  0  0  0
   10.0172   -4.4740   17.4101 C   0  0  0  0  0  0  0  0  0  0  0  0
    6.9051   -7.9575   16.4222 C   0  0  0  0  0  0  0  0  0  0  0  0
    8.9969   -6.3552   17.9668 N   0  0  0  0  0  0  0  0  0  0  0  0
   10.6702   -3.9051   22.4070 C   0  0  0  0  0  0  0  0  0  0  0  0
   11.0625   -3.0028   18.8894 C   0  0  0  0  0  0  0  0  0  0  0  0
    5.6180   -7.9194   16.1754 O   0  0  0  0  0  0  0  0  0  0  0  0
    9.7259   -5.3080   18.4485 C   0  0  0  0  0  0  0  0  0  0  0  0
    9.4578   -5.0200   16.3036 N   0  0  0  0  0  0  0  0  0  0  0  0
    5.0287   -8.9365   16.8223 C   0  0  0  0  0  0  0  0  0  0  0  0
    8.7742   -6.1498   16.6764 C   0  0  0  0  0  0  0  0  0  0  0  0
   10.9418   -3.4032   21.2053 O   0  0  0  0  0  0  0  0  0  0  0  0
    1.4797   -8.6258   16.2950 C   0  0  0  0  0  0  0  0  0  0  0  0
    9.2861   -1.2743   25.3585 C   0  0  0  0  0  0  0  0  0  0  0  0
    1.8892  -10.3985   17.7511 N   0  0  0  0  0  0  0  0  0  0  0  0
    9.6210   -0.6952   24.0976 C   0  0  0  0  0  0  0  0  0  0  0  0
    7.0792   -9.0217   17.1429 C   0  0  0  0  0  0  0  0  0  0  0  0
    3.1713  -10.1816   17.6634 C   0  0  0  0  0  0  0  0  0  0  0  0
    2.7878   -8.3822   16.2137 C   0  0  0  0  0  0  0  0  0  0  0  0
    9.4601   -2.6590   25.6528 C   0  0  0  0  0  0  0  0  0  0  0  0
   10.1182   -1.5672   23.1165 C   0  0  0  0  0  0  0  0  0  0  0  0
    1.0552   -9.6360   17.0650 C   0  0  0  0  0  0  0  0  0  0  0  0
    3.6519   -9.1783   16.9039 C   0  0  0  0  0  0  0  0  0  0  0  0
    7.8675   -7.0096   15.9415 C   0  0  0  0  0  0  0  0  0  0  0  0
    5.9733   -9.6553   17.3832 N   0  0  0  0  0  0  0  0  0  0  0  0
   10.2411   -2.9363   23.4301 C   0  0  0  0  0  0  0  0  0  0  0  0
   10.7288   -3.8197   19.9525 C   0  0  0  0  0  0  0  0  0  0  0  0
   10.1189   -5.0054   19.6987 C   0  0  0  0  0  0  0  0  0  0  0  0
  1  3  4  0
  1  7  4  0
  2 21  4  0
  2 27  4  0
  3  9  4  0
  3 10  4  0
  4  8  4  0
  4 18  4  0
  4 25  1  0
  5  9  4  0
  5 12  4  0
  6 13  1  0
  6 27  1  0
  7 28  4  0
  8 11  4  0
  9 29  4  0
 10 12  4  0
 11 24  1  0
 11 26  4  0
 12 25  1  0
 13 28  1  0
 14 20  4  0
 14 23  4  0
 15 17  4  0
 15 21  4  0
 16 19  4  0
 16 23  4  0
 17 22  4  0
 18 26  4  0
 19 24  4  0
 20 24  4  0
 22 27  4  0
 28 29  4  0
M  END
$$$$

 Created by Python create_sdf_string function

 29 33  0  0  0  0  0  0  0  0999 V2000
   10.7215   -3.3326   17.6437 C   0  0  0  0  0  0  0  0  0  0  0  0
    9.9489   -3.4675   24.6487 N   0  0  0  0  0  0  0  0  0  0  0  0
   10.0172   -4.4740   17.4101 C   0  0  0  0  0  0  0  0  0  0  0  0
    6.9051   -7.9575   16.4222 C   0  0  0  0  0  0  0  0  0  0  0  0
    8.9969   -6.3552   17.9668 N   0  0  0  0  0  0  0  0  0  0  0  0
   10.6702   -3.9051   22.4070 C   0  0  0  0  0  0  0  0  0  0  0  0
   11.0625   -3.0028   18.8894 C   0  0  0  0  0  0  0  0  0  0  0  0
    5.6180   -7.9194   16.1754 O   0  0  0  0  0  0  0  0  0  0  0  0
    9.7259   -5.3080   18.4485 C   0  0  0  0  0  0  0  0  0  0  0  0
    9.4578   -5.0200   16.3036 N   0  0  0  0  0  0  0  0  0  0  0  0
    5.0287   -8.9365   16.8223 C   0  0  0  0  0  0  0  0  0  0  0  0
    8.7742   -6.1498   16.6764 C   0  0  0  0  0  0  0  0  0  0  0  0
   10.9418   -3.4032   21.2053 O   0  0  0  0  0  0  0  0  0  0  0  0
    1.4797   -8.6258   16.2950 C   0  0  0  0  0  0  0  0  0  0  0  0
    9.2861   -1.2743   25.3585 C   0  0  0  0  0  0  0  0  0  0  0  0
    1.8892  -10.3985   17.7511 N   0  0  0  0  0  0  0  0  0  0  0  0
    9.6210   -0.6952   24.0976 C   0  0  0  0  0  0  0  0  0  0  0  0
    7.0792   -9.0217   17.1429 C   0  0  0  0  0  0  0  0  0  0  0  0
    3.1713  -10.1816   17.6634 C   0  0  0  0  0  0  0  0  0  0  0  0
    2.7878   -8.3822   16.2137 C   0  0  0  0  0  0  0  0  0  0  0  0
    9.4601   -2.6590   25.6528 C   0  0  0  0  0  0  0  0  0  0  0  0
   10.1182   -1.5672   23.1165 C   0  0  0  0  0  0  0  0  0  0  0  0
    1.0552   -9.6360   17.0650 C   0  0  0  0  0  0  0  0  0  0  0  0
    3.6519   -9.1783   16.9039 C   0  0  0  0  0  0  0  0  0  0  0  0
    7.8675   -7.0096   15.9415 C   0  0  0  0  0  0  0  0  0  0  0  0
    5.9733   -9.6553   17.3832 N   0  0  0  0  0  0  0  0  0  0  0  0
   10.2411   -2.9363   23.4301 C   0  0  0  0  0  0  0  0  0  0  0  0
   10.7288   -3.8197   19.9525 C   0  0  0  0  0  0  0  0  0  0  0  0
   10.1189   -5.0054   19.6987 C   0  0  0  0  0  0  0  0  0  0  0  0
  1  3  4  0
  1  7  4  0
  2 21  4  0
  2 27  4  0
  3  9  4  0
  3 10  4  0
  4  8  4  0
  4 18  4  0
  4 25  1  0
  5  9  4  0
  5 12  4  0
  6 13  1  0
  6 27  1  0
  7 28  4  0
  8 11  4  0
  9 29  4  0
 10 12  4  0
 11 24  1  0
 11 26  4  0
 12 25  1  0
 13 28  1  0
 14 20  4  0
 14 23  4  0
 15 17  4  0
 15 21  4  0
 16 19  4  0
 16 23  4  0
 17 22  4  0
 18 26  4  0
 19 24  4  0
 20 24  4  0
 22 27  4  0
 28 29  4  0
M  END
$$$$

 Created by Python create_sdf_string function

 29 33  0  0  0  0  0  0  0  0999 V2000
   10.7215   -3.3326   17.6437 C   0  0  0  0  0  0  0  0  0  0  0  0
    9.9489   -3.4675   24.6487 N   0  0  0  0  0  0  0  0  0  0  0  0
   10.0172   -4.4740   17.4101 C   0  0  0  0  0  0  0  0  0  0  0  0
    6.9051   -7.9575   16.4222 C   0  0  0  0  0  0  0  0  0  0  0  0
    8.9969   -6.3552   17.9668 N   0  0  0  0  0  0  0  0  0  0  0  0
   10.6702   -3.9051   22.4070 C   0  0  0  0  0  0  0  0  0  0  0  0
   11.0625   -3.0028   18.8894 C   0  0  0  0  0  0  0  0  0  0  0  0
    5.6180   -7.9194   16.1754 O   0  0  0  0  0  0  0  0  0  0  0  0
    9.7259   -5.3080   18.4485 C   0  0  0  0  0  0  0  0  0  0  0  0
    9.4578   -5.0200   16.3036 N   0  0  0  0  0  0  0  0  0  0  0  0
    5.0287   -8.9365   16.8223 C   0  0  0  0  0  0  0  0  0  0  0  0
    8.7742   -6.1498   16.6764 C   0  0  0  0  0  0  0  0  0  0  0  0
   10.9418   -3.4032   21.2053 O   0  0  0  0  0  0  0  0  0  0  0  0
    1.4797   -8.6258   16.2950 C   0  0  0  0  0  0  0  0  0  0  0  0
    9.2861   -1.2743   25.3585 C   0  0  0  0  0  0  0  0  0  0  0  0
    1.8892  -10.3985   17.7511 N   0  0  0  0  0  0  0  0  0  0  0  0
    9.6210   -0.6952   24.0976 C   0  0  0  0  0  0  0  0  0  0  0  0
    7.0792   -9.0217   17.1429 C   0  0  0  0  0  0  0  0  0  0  0  0
    3.1713  -10.1816   17.6634 C   0  0  0  0  0  0  0  0  0  0  0  0
    2.7878   -8.3822   16.2137 C   0  0  0  0  0  0  0  0  0  0  0  0
    9.4601   -2.6590   25.6528 C   0  0  0  0  0  0  0  0  0  0  0  0
   10.1182   -1.5672   23.1165 C   0  0  0  0  0  0  0  0  0  0  0  0
    1.0552   -9.6360   17.0650 C   0  0  0  0  0  0  0  0  0  0  0  0
    3.6519   -9.1783   16.9039 C   0  0  0  0  0  0  0  0  0  0  0  0
    7.8675   -7.0096   15.9415 C   0  0  0  0  0  0  0  0  0  0  0  0
    5.9733   -9.6553   17.3832 N   0  0  0  0  0  0  0  0  0  0  0  0
   10.2411   -2.9363   23.4301 C   0  0  0  0  0  0  0  0  0  0  0  0
   10.7288   -3.8197   19.9525 C   0  0  0  0  0  0  0  0  0  0  0  0
   10.1189   -5.0054   19.6987 C   0  0  0  0  0  0  0  0  0  0  0  0
  1  3  4  0
  1  7  4  0
  2 21  4  0
  2 27  4  0
  3  9  4  0
  3 10  4  0
  4  8  4  0
  4 18  4  0
  4 25  1  0
  5  9  4  0
  5 12  4  0
  6 13  1  0
  6 27  1  0
  7 28  4  0
  8 11  4  0
  9 29  4  0
 10 12  4  0
 11 24  1  0
 11 26  4  0
 12 25  1  0
 13 28  1  0
 14 20  4  0
 14 23  4  0
 15 17  4  0
 15 21  4  0
 16 19  4  0
 16 23  4  0
 17 22  4  0
 18 26  4  0
 19 24  4  0
 20 24  4  0
 22 27  4  0
 28 29  4  0
M  END
$$$$

 Created by Python create_sdf_string function

 29 33  0  0  0  0  0  0  0  0999 V2000
   10.7215   -3.3326   17.6437 C   0  0  0  0  0  0  0  0  0  0  0  0
    9.9489   -3.4675   24.6487 N   0  0  0  0  0  0  0  0  0  0  0  0
   10.0172   -4.4740   17.4101 C   0  0  0  0  0  0  0  0  0  0  0  0
    6.9051   -7.9575   16.4222 C   0  0  0  0  0  0  0  0  0  0  0  0
    8.9969   -6.3552   17.9668 N   0  0  0  0  0  0  0  0  0  0  0  0
   10.6702   -3.9051   22.4070 C   0  0  0  0  0  0  0  0  0  0  0  0
   11.0625   -3.0028   18.8894 C   0  0  0  0  0  0  0  0  0  0  0  0
    5.6180   -7.9194   16.1754 O   0  0  0  0  0  0  0  0  0  0  0  0
    9.7259   -5.3080   18.4485 C   0  0  0  0  0  0  0  0  0  0  0  0
    9.4578   -5.0200   16.3036 N   0  0  0  0  0  0  0  0  0  0  0  0
    5.0287   -8.9365   16.8223 C   0  0  0  0  0  0  0  0  0  0  0  0
    8.7742   -6.1498   16.6764 C   0  0  0  0  0  0  0  0  0  0  0  0
   10.9418   -3.4032   21.2053 O   0  0  0  0  0  0  0  0  0  0  0  0
    1.4797   -8.6258   16.2950 C   0  0  0  0  0  0  0  0  0  0  0  0
    9.2861   -1.2743   25.3585 C   0  0  0  0  0  0  0  0  0  0  0  0
    1.8892  -10.3985   17.7511 N   0  0  0  0  0  0  0  0  0  0  0  0
    9.6210   -0.6952   24.0976 C   0  0  0  0  0  0  0  0  0  0  0  0
    7.0792   -9.0217   17.1429 C   0  0  0  0  0  0  0  0  0  0  0  0
    3.1713  -10.1816   17.6634 C   0  0  0  0  0  0  0  0  0  0  0  0
    2.7878   -8.3822   16.2137 C   0  0  0  0  0  0  0  0  0  0  0  0
    9.4601   -2.6590   25.6528 C   0  0  0  0  0  0  0  0  0  0  0  0
   10.1182   -1.5672   23.1165 C   0  0  0  0  0  0  0  0  0  0  0  0
    1.0552   -9.6360   17.0650 C   0  0  0  0  0  0  0  0  0  0  0  0
    3.6519   -9.1783   16.9039 C   0  0  0  0  0  0  0  0  0  0  0  0
    7.8675   -7.0096   15.9415 C   0  0  0  0  0  0  0  0  0  0  0  0
    5.9733   -9.6553   17.3832 N   0  0  0  0  0  0  0  0  0  0  0  0
   10.2411   -2.9363   23.4301 C   0  0  0  0  0  0  0  0  0  0  0  0
   10.7288   -3.8197   19.9525 C   0  0  0  0  0  0  0  0  0  0  0  0
   10.1189   -5.0054   19.6987 C   0  0  0  0  0  0  0  0  0  0  0  0
  1  3  4  0
  1  7  4  0
  2 21  4  0
  2 27  4  0
  3  9  4  0
  3 10  4  0
  4  8  4  0
  4 18  4  0
  4 25  1  0
  5  9  4  0
  5 12  4  0
  6 13  1  0
  6 27  1  0
  7 28  4  0
  8 11  4  0
  9 29  4  0
 10 12  4  0
 11 24  1  0
 11 26  4  0
 12 25  1  0
 13 28  1  0
 14 20  4  0
 14 23  4  0
 15 17  4  0
 15 21  4  0
 16 19  4  0
 16 23  4  0
 17 22  4  0
 18 26  4  0
 19 24  4  0
 20 24  4  0
 22 27  4  0
 28 29  4  0
M  END
$$$$

 Created by Python create_sdf_string function

 29 33  0  0  0  0  0  0  0  0999 V2000
   10.7215   -3.3326   17.6437 C   0  0  0  0  0  0  0  0  0  0  0  0
    9.9489   -3.4675   24.6487 N   0  0  0  0  0  0  0  0  0  0  0  0
   10.0172   -4.4740   17.4101 C   0  0  0  0  0  0  0  0  0  0  0  0
    6.9051   -7.9575   16.4222 C   0  0  0  0  0  0  0  0  0  0  0  0
    8.9969   -6.3552   17.9668 N   0  0  0  0  0  0  0  0  0  0  0  0
   10.6702   -3.9051   22.4070 C   0  0  0  0  0  0  0  0  0  0  0  0
   11.0625   -3.0028   18.8894 C   0  0  0  0  0  0  0  0  0  0  0  0
    5.6180   -7.9194   16.1754 O   0  0  0  0  0  0  0  0  0  0  0  0
    9.7259   -5.3080   18.4485 C   0  0  0  0  0  0  0  0  0  0  0  0
    9.4578   -5.0200   16.3036 N   0  0  0  0  0  0  0  0  0  0  0  0
    5.0287   -8.9365   16.8223 C   0  0  0  0  0  0  0  0  0  0  0  0
    8.7742   -6.1498   16.6764 C   0  0  0  0  0  0  0  0  0  0  0  0
   10.9418   -3.4032   21.2053 O   0  0  0  0  0  0  0  0  0  0  0  0
    1.4797   -8.6258   16.2950 C   0  0  0  0  0  0  0  0  0  0  0  0
    9.2861   -1.2743   25.3585 C   0  0  0  0  0  0  0  0  0  0  0  0
    1.8892  -10.3985   17.7511 N   0  0  0  0  0  0  0  0  0  0  0  0
    9.6210   -0.6952   24.0976 C   0  0  0  0  0  0  0  0  0  0  0  0
    7.0792   -9.0217   17.1429 C   0  0  0  0  0  0  0  0  0  0  0  0
    3.1713  -10.1816   17.6634 C   0  0  0  0  0  0  0  0  0  0  0  0
    2.7878   -8.3822   16.2137 C   0  0  0  0  0  0  0  0  0  0  0  0
    9.4601   -2.6590   25.6528 C   0  0  0  0  0  0  0  0  0  0  0  0
   10.1182   -1.5672   23.1165 C   0  0  0  0  0  0  0  0  0  0  0  0
    1.0552   -9.6360   17.0650 C   0  0  0  0  0  0  0  0  0  0  0  0
    3.6519   -9.1783   16.9039 C   0  0  0  0  0  0  0  0  0  0  0  0
    7.8675   -7.0096   15.9415 C   0  0  0  0  0  0  0  0  0  0  0  0
    5.9733   -9.6553   17.3832 N   0  0  0  0  0  0  0  0  0  0  0  0
   10.2411   -2.9363   23.4301 C   0  0  0  0  0  0  0  0  0  0  0  0
   10.7288   -3.8197   19.9525 C   0  0  0  0  0  0  0  0  0  0  0  0
   10.1189   -5.0054   19.6987 C   0  0  0  0  0  0  0  0  0  0  0  0
  1  3  4  0
  1  7  4  0
  2 21  4  0
  2 27  4  0
  3  9  4  0
  3 10  4  0
  4  8  4  0
  4 18  4  0
  4 25  1  0
  5  9  4  0
  5 12  4  0
  6 13  1  0
  6 27  1  0
  7 28  4  0
  8 11  4  0
  9 29  4  0
 10 12  4  0
 11 24  1  0
 11 26  4  0
 12 25  1  0
 13 28  1  0
 14 20  4  0
 14 23  4  0
 15 17  4  0
 15 21  4  0
 16 19  4  0
 16 23  4  0
 17 22  4  0
 18 26  4  0
 19 24  4  0
 20 24  4  0
 22 27  4  0
 28 29  4  0
M  END
$$$$

 Created by Python create_sdf_string function

 29 33  0  0  0  0  0  0  0  0999 V2000
   10.7215   -3.3326   17.6437 C   0  0  0  0  0  0  0  0  0  0  0  0
    9.9489   -3.4675   24.6487 N   0  0  0  0  0  0  0  0  0  0  0  0
   10.0172   -4.4740   17.4101 C   0  0  0  0  0  0  0  0  0  0  0  0
    6.9051   -7.9575   16.4222 C   0  0  0  0  0  0  0  0  0  0  0  0
    8.9969   -6.3552   17.9668 N   0  0  0  0  0  0  0  0  0  0  0  0
   10.6702   -3.9051   22.4070 C   0  0  0  0  0  0  0  0  0  0  0  0
   11.0625   -3.0028   18.8894 C   0  0  0  0  0  0  0  0  0  0  0  0
    5.6180   -7.9194   16.1754 O   0  0  0  0  0  0  0  0  0  0  0  0
    9.7259   -5.3080   18.4485 C   0  0  0  0  0  0  0  0  0  0  0  0
    9.4578   -5.0200   16.3036 N   0  0  0  0  0  0  0  0  0  0  0  0
    5.0287   -8.9365   16.8223 C   0  0  0  0  0  0  0  0  0  0  0  0
    8.7742   -6.1498   16.6764 C   0  0  0  0  0  0  0  0  0  0  0  0
   10.9418   -3.4032   21.2053 O   0  0  0  0  0  0  0  0  0  0  0  0
    1.4797   -8.6258   16.2950 C   0  0  0  0  0  0  0  0  0  0  0  0
    9.2861   -1.2743   25.3585 C   0  0  0  0  0  0  0  0  0  0  0  0
    1.8892  -10.3985   17.7511 N   0  0  0  0  0  0  0  0  0  0  0  0
    9.6210   -0.6952   24.0976 C   0  0  0  0  0  0  0  0  0  0  0  0
    7.0792   -9.0217   17.1429 C   0  0  0  0  0  0  0  0  0  0  0  0
    3.1713  -10.1816   17.6634 C   0  0  0  0  0  0  0  0  0  0  0  0
    2.7878   -8.3822   16.2137 C   0  0  0  0  0  0  0  0  0  0  0  0
    9.4601   -2.6590   25.6528 C   0  0  0  0  0  0  0  0  0  0  0  0
   10.1182   -1.5672   23.1165 C   0  0  0  0  0  0  0  0  0  0  0  0
    1.0552   -9.6360   17.0650 C   0  0  0  0  0  0  0  0  0  0  0  0
    3.6519   -9.1783   16.9039 C   0  0  0  0  0  0  0  0  0  0  0  0
    7.8675   -7.0096   15.9415 C   0  0  0  0  0  0  0  0  0  0  0  0
    5.9733   -9.6553   17.3832 N   0  0  0  0  0  0  0  0  0  0  0  0
   10.2411   -2.9363   23.4301 C   0  0  0  0  0  0  0  0  0  0  0  0
   10.7288   -3.8197   19.9525 C   0  0  0  0  0  0  0  0  0  0  0  0
   10.1189   -5.0054   19.6987 C   0  0  0  0  0  0  0  0  0  0  0  0
  1  3  4  0
  1  7  4  0
  2 21  4  0
  2 27  4  0
  3  9  4  0
  3 10  4  0
  4  8  4  0
  4 18  4  0
  4 25  1  0
  5  9  4  0
  5 12  4  0
  6 13  1  0
  6 27  1  0
  7 28  4  0
  8 11  4  0
  9 29  4  0
 10 12  4  0
 11 24  1  0
 11 26  4  0
 12 25  1  0
 13 28  1  0
 14 20  4  0
 14 23  4  0
 15 17  4  0
 15 21  4  0
 16 19  4  0
 16 23  4  0
 17 22  4  0
 18 26  4  0
 19 24  4  0
 20 24  4  0
 22 27  4  0
 28 29  4  0
M  END
$$$$

 Created by Python create_sdf_string function

 29 33  0  0  0  0  0  0  0  0999 V2000
   10.7215   -3.3326   17.6437 C   0  0  0  0  0  0  0  0  0  0  0  0
    9.9489   -3.4675   24.6487 N   0  0  0  0  0  0  0  0  0  0  0  0
   10.0172   -4.4740   17.4101 C   0  0  0  0  0  0  0  0  0  0  0  0
    6.9051   -7.9575   16.4222 C   0  0  0  0  0  0  0  0  0  0  0  0
    8.9969   -6.3552   17.9668 N   0  0  0  0  0  0  0  0  0  0  0  0
   10.6702   -3.9051   22.4070 C   0  0  0  0  0  0  0  0  0  0  0  0
   11.0625   -3.0028   18.8894 C   0  0  0  0  0  0  0  0  0  0  0  0
    5.6180   -7.9194   16.1754 O   0  0  0  0  0  0  0  0  0  0  0  0
    9.7259   -5.3080   18.4485 C   0  0  0  0  0  0  0  0  0  0  0  0
    9.4578   -5.0200   16.3036 N   0  0  0  0  0  0  0  0  0  0  0  0
    5.0287   -8.9365   16.8223 C   0  0  0  0  0  0  0  0  0  0  0  0
    8.7742   -6.1498   16.6764 C   0  0  0  0  0  0  0  0  0  0  0  0
   10.9418   -3.4032   21.2053 O   0  0  0  0  0  0  0  0  0  0  0  0
    1.4797   -8.6258   16.2950 C   0  0  0  0  0  0  0  0  0  0  0  0
    9.2861   -1.2743   25.3585 C   0  0  0  0  0  0  0  0  0  0  0  0
    1.8892  -10.3985   17.7511 N   0  0  0  0  0  0  0  0  0  0  0  0
    9.6210   -0.6952   24.0976 C   0  0  0  0  0  0  0  0  0  0  0  0
    7.0792   -9.0217   17.1429 C   0  0  0  0  0  0  0  0  0  0  0  0
    3.1713  -10.1816   17.6634 C   0  0  0  0  0  0  0  0  0  0  0  0
    2.7878   -8.3822   16.2137 C   0  0  0  0  0  0  0  0  0  0  0  0
    9.4601   -2.6590   25.6528 C   0  0  0  0  0  0  0  0  0  0  0  0
   10.1182   -1.5672   23.1165 C   0  0  0  0  0  0  0  0  0  0  0  0
    1.0552   -9.6360   17.0650 C   0  0  0  0  0  0  0  0  0  0  0  0
    3.6519   -9.1783   16.9039 C   0  0  0  0  0  0  0  0  0  0  0  0
    7.8675   -7.0096   15.9415 C   0  0  0  0  0  0  0  0  0  0  0  0
    5.9733   -9.6553   17.3832 N   0  0  0  0  0  0  0  0  0  0  0  0
   10.2411   -2.9363   23.4301 C   0  0  0  0  0  0  0  0  0  0  0  0
   10.7288   -3.8197   19.9525 C   0  0  0  0  0  0  0  0  0  0  0  0
   10.1189   -5.0054   19.6987 C   0  0  0  0  0  0  0  0  0  0  0  0
  1  3  4  0
  1  7  4  0
  2 21  4  0
  2 27  4  0
  3  9  4  0
  3 10  4  0
  4  8  4  0
  4 18  4  0
  4 25  1  0
  5  9  4  0
  5 12  4  0
  6 13  1  0
  6 27  1  0
  7 28  4  0
  8 11  4  0
  9 29  4  0
 10 12  4  0
 11 24  1  0
 11 26  4  0
 12 25  1  0
 13 28  1  0
 14 20  4  0
 14 23  4  0
 15 17  4  0
 15 21  4  0
 16 19  4  0
 16 23  4  0
 17 22  4  0
 18 26  4  0
 19 24  4  0
 20 24  4  0
 22 27  4  0
 28 29  4  0
M  END
$$$$

 Created by Python create_sdf_string function

 29 33  0  0  0  0  0  0  0  0999 V2000
   10.7215   -3.3326   17.6437 C   0  0  0  0  0  0  0  0  0  0  0  0
    9.9489   -3.4675   24.6487 N   0  0  0  0  0  0  0  0  0  0  0  0
   10.0172   -4.4740   17.4101 C   0  0  0  0  0  0  0  0  0  0  0  0
    6.9051   -7.9575   16.4222 C   0  0  0  0  0  0  0  0  0  0  0  0
    8.9969   -6.3552   17.9668 N   0  0  0  0  0  0  0  0  0  0  0  0
   10.6702   -3.9051   22.4070 C   0  0  0  0  0  0  0  0  0  0  0  0
   11.0625   -3.0028   18.8894 C   0  0  0  0  0  0  0  0  0  0  0  0
    5.6180   -7.9194   16.1754 O   0  0  0  0  0  0  0  0  0  0  0  0
    9.7259   -5.3080   18.4485 C   0  0  0  0  0  0  0  0  0  0  0  0
    9.4578   -5.0200   16.3036 N   0  0  0  0  0  0  0  0  0  0  0  0
    5.0287   -8.9365   16.8223 C   0  0  0  0  0  0  0  0  0  0  0  0
    8.7742   -6.1498   16.6764 C   0  0  0  0  0  0  0  0  0  0  0  0
   10.9418   -3.4032   21.2053 O   0  0  0  0  0  0  0  0  0  0  0  0
    1.4797   -8.6258   16.2950 C   0  0  0  0  0  0  0  0  0  0  0  0
    9.2861   -1.2743   25.3585 C   0  0  0  0  0  0  0  0  0  0  0  0
    1.8892  -10.3985   17.7511 N   0  0  0  0  0  0  0  0  0  0  0  0
    9.6210   -0.6952   24.0976 C   0  0  0  0  0  0  0  0  0  0  0  0
    7.0792   -9.0217   17.1429 C   0  0  0  0  0  0  0  0  0  0  0  0
    3.1713  -10.1816   17.6634 C   0  0  0  0  0  0  0  0  0  0  0  0
    2.7878   -8.3822   16.2137 C   0  0  0  0  0  0  0  0  0  0  0  0
    9.4601   -2.6590   25.6528 C   0  0  0  0  0  0  0  0  0  0  0  0
   10.1182   -1.5672   23.1165 C   0  0  0  0  0  0  0  0  0  0  0  0
    1.0552   -9.6360   17.0650 C   0  0  0  0  0  0  0  0  0  0  0  0
    3.6519   -9.1783   16.9039 C   0  0  0  0  0  0  0  0  0  0  0  0
    7.8675   -7.0096   15.9415 C   0  0  0  0  0  0  0  0  0  0  0  0
    5.9733   -9.6553   17.3832 N   0  0  0  0  0  0  0  0  0  0  0  0
   10.2411   -2.9363   23.4301 C   0  0  0  0  0  0  0  0  0  0  0  0
   10.7288   -3.8197   19.9525 C   0  0  0  0  0  0  0  0  0  0  0  0
   10.1189   -5.0054   19.6987 C   0  0  0  0  0  0  0  0  0  0  0  0
  1  3  4  0
  1  7  4  0
  2 21  4  0
  2 27  4  0
  3  9  4  0
  3 10  4  0
  4  8  4  0
  4 18  4  0
  4 25  1  0
  5  9  4  0
  5 12  4  0
  6 13  1  0
  6 27  1  0
  7 28  4  0
  8 11  4  0
  9 29  4  0
 10 12  4  0
 11 24  1  0
 11 26  4  0
 12 25  1  0
 13 28  1  0
 14 20  4  0
 14 23  4  0
 15 17  4  0
 15 21  4  0
 16 19  4  0
 16 23  4  0
 17 22  4  0
 18 26  4  0
 19 24  4  0
 20 24  4  0
 22 27  4  0
 28 29  4  0
M  END
$$$$

 Created by Python create_sdf_string function

 29 33  0  0  0  0  0  0  0  0999 V2000
   10.7215   -3.3326   17.6437 C   0  0  0  0  0  0  0  0  0  0  0  0
    9.9489   -3.4675   24.6487 N   0  0  0  0  0  0  0  0  0  0  0  0
   10.0172   -4.4740   17.4101 C   0  0  0  0  0  0  0  0  0  0  0  0
    6.9051   -7.9575   16.4222 C   0  0  0  0  0  0  0  0  0  0  0  0
    8.9969   -6.3552   17.9668 N   0  0  0  0  0  0  0  0  0  0  0  0
   10.6702   -3.9051   22.4070 C   0  0  0  0  0  0  0  0  0  0  0  0
   11.0625   -3.0028   18.8894 C   0  0  0  0  0  0  0  0  0  0  0  0
    5.6180   -7.9194   16.1754 O   0  0  0  0  0  0  0  0  0  0  0  0
    9.7259   -5.3080   18.4485 C   0  0  0  0  0  0  0  0  0  0  0  0
    9.4578   -5.0200   16.3036 N   0  0  0  0  0  0  0  0  0  0  0  0
    5.0287   -8.9365   16.8223 C   0  0  0  0  0  0  0  0  0  0  0  0
    8.7742   -6.1498   16.6764 C   0  0  0  0  0  0  0  0  0  0  0  0
   10.9418   -3.4032   21.2053 O   0  0  0  0  0  0  0  0  0  0  0  0
    1.4797   -8.6258   16.2950 C   0  0  0  0  0  0  0  0  0  0  0  0
    9.2861   -1.2743   25.3585 C   0  0  0  0  0  0  0  0  0  0  0  0
    1.8892  -10.3985   17.7511 N   0  0  0  0  0  0  0  0  0  0  0  0
    9.6210   -0.6952   24.0976 C   0  0  0  0  0  0  0  0  0  0  0  0
    7.0792   -9.0217   17.1429 C   0  0  0  0  0  0  0  0  0  0  0  0
    3.1713  -10.1816   17.6634 C   0  0  0  0  0  0  0  0  0  0  0  0
    2.7878   -8.3822   16.2137 C   0  0  0  0  0  0  0  0  0  0  0  0
    9.4601   -2.6590   25.6528 C   0  0  0  0  0  0  0  0  0  0  0  0
   10.1182   -1.5672   23.1165 C   0  0  0  0  0  0  0  0  0  0  0  0
    1.0552   -9.6360   17.0650 C   0  0  0  0  0  0  0  0  0  0  0  0
    3.6519   -9.1783   16.9039 C   0  0  0  0  0  0  0  0  0  0  0  0
    7.8675   -7.0096   15.9415 C   0  0  0  0  0  0  0  0  0  0  0  0
    5.9733   -9.6553   17.3832 N   0  0  0  0  0  0  0  0  0  0  0  0
   10.2411   -2.9363   23.4301 C   0  0  0  0  0  0  0  0  0  0  0  0
   10.7288   -3.8197   19.9525 C   0  0  0  0  0  0  0  0  0  0  0  0
   10.1189   -5.0054   19.6987 C   0  0  0  0  0  0  0  0  0  0  0  0
  1  3  4  0
  1  7  4  0
  2 21  4  0
  2 27  4  0
  3  9  4  0
  3 10  4  0
  4  8  4  0
  4 18  4  0
  4 25  1  0
  5  9  4  0
  5 12  4  0
  6 13  1  0
  6 27  1  0
  7 28  4  0
  8 11  4  0
  9 29  4  0
 10 12  4  0
 11 24  1  0
 11 26  4  0
 12 25  1  0
 13 28  1  0
 14 20  4  0
 14 23  4  0
 15 17  4  0
 15 21  4  0
 16 19  4  0
 16 23  4  0
 17 22  4  0
 18 26  4  0
 19 24  4  0
 20 24  4  0
 22 27  4  0
 28 29  4  0
M  END
$$$$

 Created by Python create_sdf_string function

 29 33  0  0  0  0  0  0  0  0999 V2000
   10.7215   -3.3326   17.6437 C   0  0  0  0  0  0  0  0  0  0  0  0
    9.9489   -3.4675   24.6487 N   0  0  0  0  0  0  0  0  0  0  0  0
   10.0172   -4.4740   17.4101 C   0  0  0  0  0  0  0  0  0  0  0  0
    6.9051   -7.9575   16.4222 C   0  0  0  0  0  0  0  0  0  0  0  0
    8.9969   -6.3552   17.9668 N   0  0  0  0  0  0  0  0  0  0  0  0
   10.6702   -3.9051   22.4070 C   0  0  0  0  0  0  0  0  0  0  0  0
   11.0625   -3.0028   18.8894 C   0  0  0  0  0  0  0  0  0  0  0  0
    5.6180   -7.9194   16.1754 O   0  0  0  0  0  0  0  0  0  0  0  0
    9.7259   -5.3080   18.4485 C   0  0  0  0  0  0  0  0  0  0  0  0
    9.4578   -5.0200   16.3036 N   0  0  0  0  0  0  0  0  0  0  0  0
    5.0287   -8.9365   16.8223 C   0  0  0  0  0  0  0  0  0  0  0  0
    8.7742   -6.1498   16.6764 C   0  0  0  0  0  0  0  0  0  0  0  0
   10.9418   -3.4032   21.2053 O   0  0  0  0  0  0  0  0  0  0  0  0
    1.4797   -8.6258   16.2950 C   0  0  0  0  0  0  0  0  0  0  0  0
    9.2861   -1.2743   25.3585 C   0  0  0  0  0  0  0  0  0  0  0  0
    1.8892  -10.3985   17.7511 N   0  0  0  0  0  0  0  0  0  0  0  0
    9.6210   -0.6952   24.0976 C   0  0  0  0  0  0  0  0  0  0  0  0
    7.0792   -9.0217   17.1429 C   0  0  0  0  0  0  0  0  0  0  0  0
    3.1713  -10.1816   17.6634 C   0  0  0  0  0  0  0  0  0  0  0  0
    2.7878   -8.3822   16.2137 C   0  0  0  0  0  0  0  0  0  0  0  0
    9.4601   -2.6590   25.6528 C   0  0  0  0  0  0  0  0  0  0  0  0
   10.1182   -1.5672   23.1165 C   0  0  0  0  0  0  0  0  0  0  0  0
    1.0552   -9.6360   17.0650 C   0  0  0  0  0  0  0  0  0  0  0  0
    3.6519   -9.1783   16.9039 C   0  0  0  0  0  0  0  0  0  0  0  0
    7.8675   -7.0096   15.9415 C   0  0  0  0  0  0  0  0  0  0  0  0
    5.9733   -9.6553   17.3832 N   0  0  0  0  0  0  0  0  0  0  0  0
   10.2411   -2.9363   23.4301 C   0  0  0  0  0  0  0  0  0  0  0  0
   10.7288   -3.8197   19.9525 C   0  0  0  0  0  0  0  0  0  0  0  0
   10.1189   -5.0054   19.6987 C   0  0  0  0  0  0  0  0  0  0  0  0
  1  3  4  0
  1  7  4  0
  2 21  4  0
  2 27  4  0
  3  9  4  0
  3 10  4  0
  4  8  4  0
  4 18  4  0
  4 25  1  0
  5  9  4  0
  5 12  4  0
  6 13  1  0
  6 27  1  0
  7 28  4  0
  8 11  4  0
  9 29  4  0
 10 12  4  0
 11 24  1  0
 11 26  4  0
 12 25  1  0
 13 28  1  0
 14 20  4  0
 14 23  4  0
 15 17  4  0
 15 21  4  0
 16 19  4  0
 16 23  4  0
 17 22  4  0
 18 26  4  0
 19 24  4  0
 20 24  4  0
 22 27  4  0
 28 29  4  0
M  END
$$$$

 Created by Python create_sdf_string function

 29 33  0  0  0  0  0  0  0  0999 V2000
   10.7215   -3.3326   17.6437 C   0  0  0  0  0  0  0  0  0  0  0  0
    9.9489   -3.4675   24.6487 N   0  0  0  0  0  0  0  0  0  0  0  0
   10.0172   -4.4740   17.4101 C   0  0  0  0  0  0  0  0  0  0  0  0
    6.9051   -7.9575   16.4222 C   0  0  0  0  0  0  0  0  0  0  0  0
    8.9969   -6.3552   17.9668 N   0  0  0  0  0  0  0  0  0  0  0  0
   10.6702   -3.9051   22.4070 C   0  0  0  0  0  0  0  0  0  0  0  0
   11.0625   -3.0028   18.8894 C   0  0  0  0  0  0  0  0  0  0  0  0
    5.6180   -7.9194   16.1754 O   0  0  0  0  0  0  0  0  0  0  0  0
    9.7259   -5.3080   18.4485 C   0  0  0  0  0  0  0  0  0  0  0  0
    9.4578   -5.0200   16.3036 N   0  0  0  0  0  0  0  0  0  0  0  0
    5.0287   -8.9365   16.8223 C   0  0  0  0  0  0  0  0  0  0  0  0
    8.7742   -6.1498   16.6764 C   0  0  0  0  0  0  0  0  0  0  0  0
   10.9418   -3.4032   21.2053 O   0  0  0  0  0  0  0  0  0  0  0  0
    1.4797   -8.6258   16.2950 C   0  0  0  0  0  0  0  0  0  0  0  0
    9.2861   -1.2743   25.3585 C   0  0  0  0  0  0  0  0  0  0  0  0
    1.8892  -10.3985   17.7511 N   0  0  0  0  0  0  0  0  0  0  0  0
    9.6210   -0.6952   24.0976 C   0  0  0  0  0  0  0  0  0  0  0  0
    7.0792   -9.0217   17.1429 C   0  0  0  0  0  0  0  0  0  0  0  0
    3.1713  -10.1816   17.6634 C   0  0  0  0  0  0  0  0  0  0  0  0
    2.7878   -8.3822   16.2137 C   0  0  0  0  0  0  0  0  0  0  0  0
    9.4601   -2.6590   25.6528 C   0  0  0  0  0  0  0  0  0  0  0  0
   10.1182   -1.5672   23.1165 C   0  0  0  0  0  0  0  0  0  0  0  0
    1.0552   -9.6360   17.0650 C   0  0  0  0  0  0  0  0  0  0  0  0
    3.6519   -9.1783   16.9039 C   0  0  0  0  0  0  0  0  0  0  0  0
    7.8675   -7.0096   15.9415 C   0  0  0  0  0  0  0  0  0  0  0  0
    5.9733   -9.6553   17.3832 N   0  0  0  0  0  0  0  0  0  0  0  0
   10.2411   -2.9363   23.4301 C   0  0  0  0  0  0  0  0  0  0  0  0
   10.7288   -3.8197   19.9525 C   0  0  0  0  0  0  0  0  0  0  0  0
   10.1189   -5.0054   19.6987 C   0  0  0  0  0  0  0  0  0  0  0  0
  1  3  4  0
  1  7  4  0
  2 21  4  0
  2 27  4  0
  3  9  4  0
  3 10  4  0
  4  8  4  0
  4 18  4  0
  4 25  1  0
  5  9  4  0
  5 12  4  0
  6 13  1  0
  6 27  1  0
  7 28  4  0
  8 11  4  0
  9 29  4  0
 10 12  4  0
 11 24  1  0
 11 26  4  0
 12 25  1  0
 13 28  1  0
 14 20  4  0
 14 23  4  0
 15 17  4  0
 15 21  4  0
 16 19  4  0
 16 23  4  0
 17 22  4  0
 18 26  4  0
 19 24  4  0
 20 24  4  0
 22 27  4  0
 28 29  4  0
M  END
$$$$

 Created by Python create_sdf_string function

 29 33  0  0  0  0  0  0  0  0999 V2000
   10.7215   -3.3326   17.6437 C   0  0  0  0  0  0  0  0  0  0  0  0
    9.9489   -3.4675   24.6487 N   0  0  0  0  0  0  0  0  0  0  0  0
   10.0172   -4.4740   17.4101 C   0  0  0  0  0  0  0  0  0  0  0  0
    6.9051   -7.9575   16.4222 C   0  0  0  0  0  0  0  0  0  0  0  0
    8.9969   -6.3552   17.9668 N   0  0  0  0  0  0  0  0  0  0  0  0
   10.6702   -3.9051   22.4070 C   0  0  0  0  0  0  0  0  0  0  0  0
   11.0625   -3.0028   18.8894 C   0  0  0  0  0  0  0  0  0  0  0  0
    5.6180   -7.9194   16.1754 O   0  0  0  0  0  0  0  0  0  0  0  0
    9.7259   -5.3080   18.4485 C   0  0  0  0  0  0  0  0  0  0  0  0
    9.4578   -5.0200   16.3036 N   0  0  0  0  0  0  0  0  0  0  0  0
    5.0287   -8.9365   16.8223 C   0  0  0  0  0  0  0  0  0  0  0  0
    8.7742   -6.1498   16.6764 C   0  0  0  0  0  0  0  0  0  0  0  0
   10.9418   -3.4032   21.2053 O   0  0  0  0  0  0  0  0  0  0  0  0
    1.4797   -8.6258   16.2950 C   0  0  0  0  0  0  0  0  0  0  0  0
    9.2861   -1.2743   25.3585 C   0  0  0  0  0  0  0  0  0  0  0  0
    1.8892  -10.3985   17.7511 N   0  0  0  0  0  0  0  0  0  0  0  0
    9.6210   -0.6952   24.0976 C   0  0  0  0  0  0  0  0  0  0  0  0
    7.0792   -9.0217   17.1429 C   0  0  0  0  0  0  0  0  0  0  0  0
    3.1713  -10.1816   17.6634 C   0  0  0  0  0  0  0  0  0  0  0  0
    2.7878   -8.3822   16.2137 C   0  0  0  0  0  0  0  0  0  0  0  0
    9.4601   -2.6590   25.6528 C   0  0  0  0  0  0  0  0  0  0  0  0
   10.1182   -1.5672   23.1165 C   0  0  0  0  0  0  0  0  0  0  0  0
    1.0552   -9.6360   17.0650 C   0  0  0  0  0  0  0  0  0  0  0  0
    3.6519   -9.1783   16.9039 C   0  0  0  0  0  0  0  0  0  0  0  0
    7.8675   -7.0096   15.9415 C   0  0  0  0  0  0  0  0  0  0  0  0
    5.9733   -9.6553   17.3832 N   0  0  0  0  0  0  0  0  0  0  0  0
   10.2411   -2.9363   23.4301 C   0  0  0  0  0  0  0  0  0  0  0  0
   10.7288   -3.8197   19.9525 C   0  0  0  0  0  0  0  0  0  0  0  0
   10.1189   -5.0054   19.6987 C   0  0  0  0  0  0  0  0  0  0  0  0
  1  3  4  0
  1  7  4  0
  2 21  4  0
  2 27  4  0
  3  9  4  0
  3 10  4  0
  4  8  4  0
  4 18  4  0
  4 25  1  0
  5  9  4  0
  5 12  4  0
  6 13  1  0
  6 27  1  0
  7 28  4  0
  8 11  4  0
  9 29  4  0
 10 12  4  0
 11 24  1  0
 11 26  4  0
 12 25  1  0
 13 28  1  0
 14 20  4  0
 14 23  4  0
 15 17  4  0
 15 21  4  0
 16 19  4  0
 16 23  4  0
 17 22  4  0
 18 26  4  0
 19 24  4  0
 20 24  4  0
 22 27  4  0
 28 29  4  0
M  END
$$$$

 Created by Python create_sdf_string function

 29 33  0  0  0  0  0  0  0  0999 V2000
   10.7215   -3.3326   17.6437 C   0  0  0  0  0  0  0  0  0  0  0  0
    9.9489   -3.4675   24.6487 N   0  0  0  0  0  0  0  0  0  0  0  0
   10.0172   -4.4740   17.4101 C   0  0  0  0  0  0  0  0  0  0  0  0
    6.9051   -7.9575   16.4222 C   0  0  0  0  0  0  0  0  0  0  0  0
    8.9969   -6.3552   17.9668 N   0  0  0  0  0  0  0  0  0  0  0  0
   10.6702   -3.9051   22.4070 C   0  0  0  0  0  0  0  0  0  0  0  0
   11.0625   -3.0028   18.8894 C   0  0  0  0  0  0  0  0  0  0  0  0
    5.6180   -7.9194   16.1754 O   0  0  0  0  0  0  0  0  0  0  0  0
    9.7259   -5.3080   18.4485 C   0  0  0  0  0  0  0  0  0  0  0  0
    9.4578   -5.0200   16.3036 N   0  0  0  0  0  0  0  0  0  0  0  0
    5.0287   -8.9365   16.8223 C   0  0  0  0  0  0  0  0  0  0  0  0
    8.7742   -6.1498   16.6764 C   0  0  0  0  0  0  0  0  0  0  0  0
   10.9418   -3.4032   21.2053 O   0  0  0  0  0  0  0  0  0  0  0  0
    1.4797   -8.6258   16.2950 C   0  0  0  0  0  0  0  0  0  0  0  0
    9.2861   -1.2743   25.3585 C   0  0  0  0  0  0  0  0  0  0  0  0
    1.8892  -10.3985   17.7511 N   0  0  0  0  0  0  0  0  0  0  0  0
    9.6210   -0.6952   24.0976 C   0  0  0  0  0  0  0  0  0  0  0  0
    7.0792   -9.0217   17.1429 C   0  0  0  0  0  0  0  0  0  0  0  0
    3.1713  -10.1816   17.6634 C   0  0  0  0  0  0  0  0  0  0  0  0
    2.7878   -8.3822   16.2137 C   0  0  0  0  0  0  0  0  0  0  0  0
    9.4601   -2.6590   25.6528 C   0  0  0  0  0  0  0  0  0  0  0  0
   10.1182   -1.5672   23.1165 C   0  0  0  0  0  0  0  0  0  0  0  0
    1.0552   -9.6360   17.0650 C   0  0  0  0  0  0  0  0  0  0  0  0
    3.6519   -9.1783   16.9039 C   0  0  0  0  0  0  0  0  0  0  0  0
    7.8675   -7.0096   15.9415 C   0  0  0  0  0  0  0  0  0  0  0  0
    5.9733   -9.6553   17.3832 N   0  0  0  0  0  0  0  0  0  0  0  0
   10.2411   -2.9363   23.4301 C   0  0  0  0  0  0  0  0  0  0  0  0
   10.7288   -3.8197   19.9525 C   0  0  0  0  0  0  0  0  0  0  0  0
   10.1189   -5.0054   19.6987 C   0  0  0  0  0  0  0  0  0  0  0  0
  1  3  4  0
  1  7  4  0
  2 21  4  0
  2 27  4  0
  3  9  4  0
  3 10  4  0
  4  8  4  0
  4 18  4  0
  4 25  1  0
  5  9  4  0
  5 12  4  0
  6 13  1  0
  6 27  1  0
  7 28  4  0
  8 11  4  0
  9 29  4  0
 10 12  4  0
 11 24  1  0
 11 26  4  0
 12 25  1  0
 13 28  1  0
 14 20  4  0
 14 23  4  0
 15 17  4  0
 15 21  4  0
 16 19  4  0
 16 23  4  0
 17 22  4  0
 18 26  4  0
 19 24  4  0
 20 24  4  0
 22 27  4  0
 28 29  4  0
M  END
$$$$

 Created by Python create_sdf_string function

 29 33  0  0  0  0  0  0  0  0999 V2000
   10.7215   -3.3326   17.6437 C   0  0  0  0  0  0  0  0  0  0  0  0
    9.9489   -3.4675   24.6487 N   0  0  0  0  0  0  0  0  0  0  0  0
   10.0172   -4.4740   17.4101 C   0  0  0  0  0  0  0  0  0  0  0  0
    6.9051   -7.9575   16.4222 C   0  0  0  0  0  0  0  0  0  0  0  0
    8.9969   -6.3552   17.9668 N   0  0  0  0  0  0  0  0  0  0  0  0
   10.6702   -3.9051   22.4070 C   0  0  0  0  0  0  0  0  0  0  0  0
   11.0625   -3.0028   18.8894 C   0  0  0  0  0  0  0  0  0  0  0  0
    5.6180   -7.9194   16.1754 O   0  0  0  0  0  0  0  0  0  0  0  0
    9.7259   -5.3080   18.4485 C   0  0  0  0  0  0  0  0  0  0  0  0
    9.4578   -5.0200   16.3036 N   0  0  0  0  0  0  0  0  0  0  0  0
    5.0287   -8.9365   16.8223 C   0  0  0  0  0  0  0  0  0  0  0  0
    8.7742   -6.1498   16.6764 C   0  0  0  0  0  0  0  0  0  0  0  0
   10.9418   -3.4032   21.2053 O   0  0  0  0  0  0  0  0  0  0  0  0
    1.4797   -8.6258   16.2950 C   0  0  0  0  0  0  0  0  0  0  0  0
    9.2861   -1.2743   25.3585 C   0  0  0  0  0  0  0  0  0  0  0  0
    1.8892  -10.3985   17.7511 N   0  0  0  0  0  0  0  0  0  0  0  0
    9.6210   -0.6952   24.0976 C   0  0  0  0  0  0  0  0  0  0  0  0
    7.0792   -9.0217   17.1429 C   0  0  0  0  0  0  0  0  0  0  0  0
    3.1713  -10.1816   17.6634 C   0  0  0  0  0  0  0  0  0  0  0  0
    2.7878   -8.3822   16.2137 C   0  0  0  0  0  0  0  0  0  0  0  0
    9.4601   -2.6590   25.6528 C   0  0  0  0  0  0  0  0  0  0  0  0
   10.1182   -1.5672   23.1165 C   0  0  0  0  0  0  0  0  0  0  0  0
    1.0552   -9.6360   17.0650 C   0  0  0  0  0  0  0  0  0  0  0  0
    3.6519   -9.1783   16.9039 C   0  0  0  0  0  0  0  0  0  0  0  0
    7.8675   -7.0096   15.9415 C   0  0  0  0  0  0  0  0  0  0  0  0
    5.9733   -9.6553   17.3832 N   0  0  0  0  0  0  0  0  0  0  0  0
   10.2411   -2.9363   23.4301 C   0  0  0  0  0  0  0  0  0  0  0  0
   10.7288   -3.8197   19.9525 C   0  0  0  0  0  0  0  0  0  0  0  0
   10.1189   -5.0054   19.6987 C   0  0  0  0  0  0  0  0  0  0  0  0
  1  3  4  0
  1  7  4  0
  2 21  4  0
  2 27  4  0
  3  9  4  0
  3 10  4  0
  4  8  4  0
  4 18  4  0
  4 25  1  0
  5  9  4  0
  5 12  4  0
  6 13  1  0
  6 27  1  0
  7 28  4  0
  8 11  4  0
  9 29  4  0
 10 12  4  0
 11 24  1  0
 11 26  4  0
 12 25  1  0
 13 28  1  0
 14 20  4  0
 14 23  4  0
 15 17  4  0
 15 21  4  0
 16 19  4  0
 16 23  4  0
 17 22  4  0
 18 26  4  0
 19 24  4  0
 20 24  4  0
 22 27  4  0
 28 29  4  0
M  END
$$$$

 Created by Python create_sdf_string function

 29 33  0  0  0  0  0  0  0  0999 V2000
   10.7215   -3.3326   17.6437 C   0  0  0  0  0  0  0  0  0  0  0  0
    9.9489   -3.4675   24.6487 N   0  0  0  0  0  0  0  0  0  0  0  0
   10.0172   -4.4740   17.4101 C   0  0  0  0  0  0  0  0  0  0  0  0
    6.9051   -7.9575   16.4222 C   0  0  0  0  0  0  0  0  0  0  0  0
    8.9969   -6.3552   17.9668 N   0  0  0  0  0  0  0  0  0  0  0  0
   10.6702   -3.9051   22.4070 C   0  0  0  0  0  0  0  0  0  0  0  0
   11.0625   -3.0028   18.8894 C   0  0  0  0  0  0  0  0  0  0  0  0
    5.6180   -7.9194   16.1754 O   0  0  0  0  0  0  0  0  0  0  0  0
    9.7259   -5.3080   18.4485 C   0  0  0  0  0  0  0  0  0  0  0  0
    9.4578   -5.0200   16.3036 N   0  0  0  0  0  0  0  0  0  0  0  0
    5.0287   -8.9365   16.8223 C   0  0  0  0  0  0  0  0  0  0  0  0
    8.7742   -6.1498   16.6764 C   0  0  0  0  0  0  0  0  0  0  0  0
   10.9418   -3.4032   21.2053 O   0  0  0  0  0  0  0  0  0  0  0  0
    1.4797   -8.6258   16.2950 C   0  0  0  0  0  0  0  0  0  0  0  0
    9.2861   -1.2743   25.3585 C   0  0  0  0  0  0  0  0  0  0  0  0
    1.8892  -10.3985   17.7511 N   0  0  0  0  0  0  0  0  0  0  0  0
    9.6210   -0.6952   24.0976 C   0  0  0  0  0  0  0  0  0  0  0  0
    7.0792   -9.0217   17.1429 C   0  0  0  0  0  0  0  0  0  0  0  0
    3.1713  -10.1816   17.6634 C   0  0  0  0  0  0  0  0  0  0  0  0
    2.7878   -8.3822   16.2137 C   0  0  0  0  0  0  0  0  0  0  0  0
    9.4601   -2.6590   25.6528 C   0  0  0  0  0  0  0  0  0  0  0  0
   10.1182   -1.5672   23.1165 C   0  0  0  0  0  0  0  0  0  0  0  0
    1.0552   -9.6360   17.0650 C   0  0  0  0  0  0  0  0  0  0  0  0
    3.6519   -9.1783   16.9039 C   0  0  0  0  0  0  0  0  0  0  0  0
    7.8675   -7.0096   15.9415 C   0  0  0  0  0  0  0  0  0  0  0  0
    5.9733   -9.6553   17.3832 N   0  0  0  0  0  0  0  0  0  0  0  0
   10.2411   -2.9363   23.4301 C   0  0  0  0  0  0  0  0  0  0  0  0
   10.7288   -3.8197   19.9525 C   0  0  0  0  0  0  0  0  0  0  0  0
   10.1189   -5.0054   19.6987 C   0  0  0  0  0  0  0  0  0  0  0  0
  1  3  4  0
  1  7  4  0
  2 21  4  0
  2 27  4  0
  3  9  4  0
  3 10  4  0
  4  8  4  0
  4 18  4  0
  4 25  1  0
  5  9  4  0
  5 12  4  0
  6 13  1  0
  6 27  1  0
  7 28  4  0
  8 11  4  0
  9 29  4  0
 10 12  4  0
 11 24  1  0
 11 26  4  0
 12 25  1  0
 13 28  1  0
 14 20  4  0
 14 23  4  0
 15 17  4  0
 15 21  4  0
 16 19  4  0
 16 23  4  0
 17 22  4  0
 18 26  4  0
 19 24  4  0
 20 24  4  0
 22 27  4  0
 28 29  4  0
M  END
$$$$

 Created by Python create_sdf_string function

 29 33  0  0  0  0  0  0  0  0999 V2000
   10.7215   -3.3326   17.6437 C   0  0  0  0  0  0  0  0  0  0  0  0
    9.9489   -3.4675   24.6487 N   0  0  0  0  0  0  0  0  0  0  0  0
   10.0172   -4.4740   17.4101 C   0  0  0  0  0  0  0  0  0  0  0  0
    6.9051   -7.9575   16.4222 C   0  0  0  0  0  0  0  0  0  0  0  0
    8.9969   -6.3552   17.9668 N   0  0  0  0  0  0  0  0  0  0  0  0
   10.6702   -3.9051   22.4070 C   0  0  0  0  0  0  0  0  0  0  0  0
   11.0625   -3.0028   18.8894 C   0  0  0  0  0  0  0  0  0  0  0  0
    5.6180   -7.9194   16.1754 O   0  0  0  0  0  0  0  0  0  0  0  0
    9.7259   -5.3080   18.4485 C   0  0  0  0  0  0  0  0  0  0  0  0
    9.4578   -5.0200   16.3036 N   0  0  0  0  0  0  0  0  0  0  0  0
    5.0287   -8.9365   16.8223 C   0  0  0  0  0  0  0  0  0  0  0  0
    8.7742   -6.1498   16.6764 C   0  0  0  0  0  0  0  0  0  0  0  0
   10.9418   -3.4032   21.2053 O   0  0  0  0  0  0  0  0  0  0  0  0
    1.4797   -8.6258   16.2950 C   0  0  0  0  0  0  0  0  0  0  0  0
    9.2861   -1.2743   25.3585 C   0  0  0  0  0  0  0  0  0  0  0  0
    1.8892  -10.3985   17.7511 N   0  0  0  0  0  0  0  0  0  0  0  0
    9.6210   -0.6952   24.0976 C   0  0  0  0  0  0  0  0  0  0  0  0
    7.0792   -9.0217   17.1429 C   0  0  0  0  0  0  0  0  0  0  0  0
    3.1713  -10.1816   17.6634 C   0  0  0  0  0  0  0  0  0  0  0  0
    2.7878   -8.3822   16.2137 C   0  0  0  0  0  0  0  0  0  0  0  0
    9.4601   -2.6590   25.6528 C   0  0  0  0  0  0  0  0  0  0  0  0
   10.1182   -1.5672   23.1165 C   0  0  0  0  0  0  0  0  0  0  0  0
    1.0552   -9.6360   17.0650 C   0  0  0  0  0  0  0  0  0  0  0  0
    3.6519   -9.1783   16.9039 C   0  0  0  0  0  0  0  0  0  0  0  0
    7.8675   -7.0096   15.9415 C   0  0  0  0  0  0  0  0  0  0  0  0
    5.9733   -9.6553   17.3832 N   0  0  0  0  0  0  0  0  0  0  0  0
   10.2411   -2.9363   23.4301 C   0  0  0  0  0  0  0  0  0  0  0  0
   10.7288   -3.8197   19.9525 C   0  0  0  0  0  0  0  0  0  0  0  0
   10.1189   -5.0054   19.6987 C   0  0  0  0  0  0  0  0  0  0  0  0
  1  3  4  0
  1  7  4  0
  2 21  4  0
  2 27  4  0
  3  9  4  0
  3 10  4  0
  4  8  4  0
  4 18  4  0
  4 25  1  0
  5  9  4  0
  5 12  4  0
  6 13  1  0
  6 27  1  0
  7 28  4  0
  8 11  4  0
  9 29  4  0
 10 12  4  0
 11 24  1  0
 11 26  4  0
 12 25  1  0
 13 28  1  0
 14 20  4  0
 14 23  4  0
 15 17  4  0
 15 21  4  0
 16 19  4  0
 16 23  4  0
 17 22  4  0
 18 26  4  0
 19 24  4  0
 20 24  4  0
 22 27  4  0
 28 29  4  0
M  END
$$$$

 Created by Python create_sdf_string function

 29 33  0  0  0  0  0  0  0  0999 V2000
   10.7215   -3.3326   17.6437 C   0  0  0  0  0  0  0  0  0  0  0  0
    9.9489   -3.4675   24.6487 N   0  0  0  0  0  0  0  0  0  0  0  0
   10.0172   -4.4740   17.4101 C   0  0  0  0  0  0  0  0  0  0  0  0
    6.9051   -7.9575   16.4222 C   0  0  0  0  0  0  0  0  0  0  0  0
    8.9969   -6.3552   17.9668 N   0  0  0  0  0  0  0  0  0  0  0  0
   10.6702   -3.9051   22.4070 C   0  0  0  0  0  0  0  0  0  0  0  0
   11.0625   -3.0028   18.8894 C   0  0  0  0  0  0  0  0  0  0  0  0
    5.6180   -7.9194   16.1754 O   0  0  0  0  0  0  0  0  0  0  0  0
    9.7259   -5.3080   18.4485 C   0  0  0  0  0  0  0  0  0  0  0  0
    9.4578   -5.0200   16.3036 N   0  0  0  0  0  0  0  0  0  0  0  0
    5.0287   -8.9365   16.8223 C   0  0  0  0  0  0  0  0  0  0  0  0
    8.7742   -6.1498   16.6764 C   0  0  0  0  0  0  0  0  0  0  0  0
   10.9418   -3.4032   21.2053 O   0  0  0  0  0  0  0  0  0  0  0  0
    1.4797   -8.6258   16.2950 C   0  0  0  0  0  0  0  0  0  0  0  0
    9.2861   -1.2743   25.3585 C   0  0  0  0  0  0  0  0  0  0  0  0
    1.8892  -10.3985   17.7511 N   0  0  0  0  0  0  0  0  0  0  0  0
    9.6210   -0.6952   24.0976 C   0  0  0  0  0  0  0  0  0  0  0  0
    7.0792   -9.0217   17.1429 C   0  0  0  0  0  0  0  0  0  0  0  0
    3.1713  -10.1816   17.6634 C   0  0  0  0  0  0  0  0  0  0  0  0
    2.7878   -8.3822   16.2137 C   0  0  0  0  0  0  0  0  0  0  0  0
    9.4601   -2.6590   25.6528 C   0  0  0  0  0  0  0  0  0  0  0  0
   10.1182   -1.5672   23.1165 C   0  0  0  0  0  0  0  0  0  0  0  0
    1.0552   -9.6360   17.0650 C   0  0  0  0  0  0  0  0  0  0  0  0
    3.6519   -9.1783   16.9039 C   0  0  0  0  0  0  0  0  0  0  0  0
    7.8675   -7.0096   15.9415 C   0  0  0  0  0  0  0  0  0  0  0  0
    5.9733   -9.6553   17.3832 N   0  0  0  0  0  0  0  0  0  0  0  0
   10.2411   -2.9363   23.4301 C   0  0  0  0  0  0  0  0  0  0  0  0
   10.7288   -3.8197   19.9525 C   0  0  0  0  0  0  0  0  0  0  0  0
   10.1189   -5.0054   19.6987 C   0  0  0  0  0  0  0  0  0  0  0  0
  1  3  4  0
  1  7  4  0
  2 21  4  0
  2 27  4  0
  3  9  4  0
  3 10  4  0
  4  8  4  0
  4 18  4  0
  4 25  1  0
  5  9  4  0
  5 12  4  0
  6 13  1  0
  6 27  1  0
  7 28  4  0
  8 11  4  0
  9 29  4  0
 10 12  4  0
 11 24  1  0
 11 26  4  0
 12 25  1  0
 13 28  1  0
 14 20  4  0
 14 23  4  0
 15 17  4  0
 15 21  4  0
 16 19  4  0
 16 23  4  0
 17 22  4  0
 18 26  4  0
 19 24  4  0
 20 24  4  0
 22 27  4  0
 28 29  4  0
M  END
$$$$

 Created by Python create_sdf_string function

 29 33  0  0  0  0  0  0  0  0999 V2000
   10.7215   -3.3326   17.6437 C   0  0  0  0  0  0  0  0  0  0  0  0
    9.9489   -3.4675   24.6487 N   0  0  0  0  0  0  0  0  0  0  0  0
   10.0172   -4.4740   17.4101 C   0  0  0  0  0  0  0  0  0  0  0  0
    6.9051   -7.9575   16.4222 C   0  0  0  0  0  0  0  0  0  0  0  0
    8.9969   -6.3552   17.9668 N   0  0  0  0  0  0  0  0  0  0  0  0
   10.6702   -3.9051   22.4070 C   0  0  0  0  0  0  0  0  0  0  0  0
   11.0625   -3.0028   18.8894 C   0  0  0  0  0  0  0  0  0  0  0  0
    5.6180   -7.9194   16.1754 O   0  0  0  0  0  0  0  0  0  0  0  0
    9.7259   -5.3080   18.4485 C   0  0  0  0  0  0  0  0  0  0  0  0
    9.4578   -5.0200   16.3036 N   0  0  0  0  0  0  0  0  0  0  0  0
    5.0287   -8.9365   16.8223 C   0  0  0  0  0  0  0  0  0  0  0  0
    8.7742   -6.1498   16.6764 C   0  0  0  0  0  0  0  0  0  0  0  0
   10.9418   -3.4032   21.2053 O   0  0  0  0  0  0  0  0  0  0  0  0
    1.4797   -8.6258   16.2950 C   0  0  0  0  0  0  0  0  0  0  0  0
    9.2861   -1.2743   25.3585 C   0  0  0  0  0  0  0  0  0  0  0  0
    1.8892  -10.3985   17.7511 N   0  0  0  0  0  0  0  0  0  0  0  0
    9.6210   -0.6952   24.0976 C   0  0  0  0  0  0  0  0  0  0  0  0
    7.0792   -9.0217   17.1429 C   0  0  0  0  0  0  0  0  0  0  0  0
    3.1713  -10.1816   17.6634 C   0  0  0  0  0  0  0  0  0  0  0  0
    2.7878   -8.3822   16.2137 C   0  0  0  0  0  0  0  0  0  0  0  0
    9.4601   -2.6590   25.6528 C   0  0  0  0  0  0  0  0  0  0  0  0
   10.1182   -1.5672   23.1165 C   0  0  0  0  0  0  0  0  0  0  0  0
    1.0552   -9.6360   17.0650 C   0  0  0  0  0  0  0  0  0  0  0  0
    3.6519   -9.1783   16.9039 C   0  0  0  0  0  0  0  0  0  0  0  0
    7.8675   -7.0096   15.9415 C   0  0  0  0  0  0  0  0  0  0  0  0
    5.9733   -9.6553   17.3832 N   0  0  0  0  0  0  0  0  0  0  0  0
   10.2411   -2.9363   23.4301 C   0  0  0  0  0  0  0  0  0  0  0  0
   10.7288   -3.8197   19.9525 C   0  0  0  0  0  0  0  0  0  0  0  0
   10.1189   -5.0054   19.6987 C   0  0  0  0  0  0  0  0  0  0  0  0
  1  3  4  0
  1  7  4  0
  2 21  4  0
  2 27  4  0
  3  9  4  0
  3 10  4  0
  4  8  4  0
  4 18  4  0
  4 25  1  0
  5  9  4  0
  5 12  4  0
  6 13  1  0
  6 27  1  0
  7 28  4  0
  8 11  4  0
  9 29  4  0
 10 12  4  0
 11 24  1  0
 11 26  4  0
 12 25  1  0
 13 28  1  0
 14 20  4  0
 14 23  4  0
 15 17  4  0
 15 21  4  0
 16 19  4  0
 16 23  4  0
 17 22  4  0
 18 26  4  0
 19 24  4  0
 20 24  4  0
 22 27  4  0
 28 29  4  0
M  END
$$$$

 Created by Python create_sdf_string function

 29 33  0  0  0  0  0  0  0  0999 V2000
   10.7215   -3.3326   17.6437 C   0  0  0  0  0  0  0  0  0  0  0  0
    9.9489   -3.4675   24.6487 N   0  0  0  0  0  0  0  0  0  0  0  0
   10.0172   -4.4740   17.4101 C   0  0  0  0  0  0  0  0  0  0  0  0
    6.9051   -7.9575   16.4222 C   0  0  0  0  0  0  0  0  0  0  0  0
    8.9969   -6.3552   17.9668 N   0  0  0  0  0  0  0  0  0  0  0  0
   10.6702   -3.9051   22.4070 C   0  0  0  0  0  0  0  0  0  0  0  0
   11.0625   -3.0028   18.8894 C   0  0  0  0  0  0  0  0  0  0  0  0
    5.6180   -7.9194   16.1754 O   0  0  0  0  0  0  0  0  0  0  0  0
    9.7259   -5.3080   18.4485 C   0  0  0  0  0  0  0  0  0  0  0  0
    9.4578   -5.0200   16.3036 N   0  0  0  0  0  0  0  0  0  0  0  0
    5.0287   -8.9365   16.8223 C   0  0  0  0  0  0  0  0  0  0  0  0
    8.7742   -6.1498   16.6764 C   0  0  0  0  0  0  0  0  0  0  0  0
   10.9418   -3.4032   21.2053 O   0  0  0  0  0  0  0  0  0  0  0  0
    1.4797   -8.6258   16.2950 C   0  0  0  0  0  0  0  0  0  0  0  0
    9.2861   -1.2743   25.3585 C   0  0  0  0  0  0  0  0  0  0  0  0
    1.8892  -10.3985   17.7511 N   0  0  0  0  0  0  0  0  0  0  0  0
    9.6210   -0.6952   24.0976 C   0  0  0  0  0  0  0  0  0  0  0  0
    7.0792   -9.0217   17.1429 C   0  0  0  0  0  0  0  0  0  0  0  0
    3.1713  -10.1816   17.6634 C   0  0  0  0  0  0  0  0  0  0  0  0
    2.7878   -8.3822   16.2137 C   0  0  0  0  0  0  0  0  0  0  0  0
    9.4601   -2.6590   25.6528 C   0  0  0  0  0  0  0  0  0  0  0  0
   10.1182   -1.5672   23.1165 C   0  0  0  0  0  0  0  0  0  0  0  0
    1.0552   -9.6360   17.0650 C   0  0  0  0  0  0  0  0  0  0  0  0
    3.6519   -9.1783   16.9039 C   0  0  0  0  0  0  0  0  0  0  0  0
    7.8675   -7.0096   15.9415 C   0  0  0  0  0  0  0  0  0  0  0  0
    5.9733   -9.6553   17.3832 N   0  0  0  0  0  0  0  0  0  0  0  0
   10.2411   -2.9363   23.4301 C   0  0  0  0  0  0  0  0  0  0  0  0
   10.7288   -3.8197   19.9525 C   0  0  0  0  0  0  0  0  0  0  0  0
   10.1189   -5.0054   19.6987 C   0  0  0  0  0  0  0  0  0  0  0  0
  1  3  4  0
  1  7  4  0
  2 21  4  0
  2 27  4  0
  3  9  4  0
  3 10  4  0
  4  8  4  0
  4 18  4  0
  4 25  1  0
  5  9  4  0
  5 12  4  0
  6 13  1  0
  6 27  1  0
  7 28  4  0
  8 11  4  0
  9 29  4  0
 10 12  4  0
 11 24  1  0
 11 26  4  0
 12 25  1  0
 13 28  1  0
 14 20  4  0
 14 23  4  0
 15 17  4  0
 15 21  4  0
 16 19  4  0
 16 23  4  0
 17 22  4  0
 18 26  4  0
 19 24  4  0
 20 24  4  0
 22 27  4  0
 28 29  4  0
M  END
$$$$

 Created by Python create_sdf_string function

 29 33  0  0  0  0  0  0  0  0999 V2000
   10.7215   -3.3326   17.6437 C   0  0  0  0  0  0  0  0  0  0  0  0
    9.9489   -3.4675   24.6487 N   0  0  0  0  0  0  0  0  0  0  0  0
   10.0172   -4.4740   17.4101 C   0  0  0  0  0  0  0  0  0  0  0  0
    6.9051   -7.9575   16.4222 C   0  0  0  0  0  0  0  0  0  0  0  0
    8.9969   -6.3552   17.9668 N   0  0  0  0  0  0  0  0  0  0  0  0
   10.6702   -3.9051   22.4070 C   0  0  0  0  0  0  0  0  0  0  0  0
   11.0625   -3.0028   18.8894 C   0  0  0  0  0  0  0  0  0  0  0  0
    5.6180   -7.9194   16.1754 O   0  0  0  0  0  0  0  0  0  0  0  0
    9.7259   -5.3080   18.4485 C   0  0  0  0  0  0  0  0  0  0  0  0
    9.4578   -5.0200   16.3036 N   0  0  0  0  0  0  0  0  0  0  0  0
    5.0287   -8.9365   16.8223 C   0  0  0  0  0  0  0  0  0  0  0  0
    8.7742   -6.1498   16.6764 C   0  0  0  0  0  0  0  0  0  0  0  0
   10.9418   -3.4032   21.2053 O   0  0  0  0  0  0  0  0  0  0  0  0
    1.4797   -8.6258   16.2950 C   0  0  0  0  0  0  0  0  0  0  0  0
    9.2861   -1.2743   25.3585 C   0  0  0  0  0  0  0  0  0  0  0  0
    1.8892  -10.3985   17.7511 N   0  0  0  0  0  0  0  0  0  0  0  0
    9.6210   -0.6952   24.0976 C   0  0  0  0  0  0  0  0  0  0  0  0
    7.0792   -9.0217   17.1429 C   0  0  0  0  0  0  0  0  0  0  0  0
    3.1713  -10.1816   17.6634 C   0  0  0  0  0  0  0  0  0  0  0  0
    2.7878   -8.3822   16.2137 C   0  0  0  0  0  0  0  0  0  0  0  0
    9.4601   -2.6590   25.6528 C   0  0  0  0  0  0  0  0  0  0  0  0
   10.1182   -1.5672   23.1165 C   0  0  0  0  0  0  0  0  0  0  0  0
    1.0552   -9.6360   17.0650 C   0  0  0  0  0  0  0  0  0  0  0  0
    3.6519   -9.1783   16.9039 C   0  0  0  0  0  0  0  0  0  0  0  0
    7.8675   -7.0096   15.9415 C   0  0  0  0  0  0  0  0  0  0  0  0
    5.9733   -9.6553   17.3832 N   0  0  0  0  0  0  0  0  0  0  0  0
   10.2411   -2.9363   23.4301 C   0  0  0  0  0  0  0  0  0  0  0  0
   10.7288   -3.8197   19.9525 C   0  0  0  0  0  0  0  0  0  0  0  0
   10.1189   -5.0054   19.6987 C   0  0  0  0  0  0  0  0  0  0  0  0
  1  3  4  0
  1  7  4  0
  2 21  4  0
  2 27  4  0
  3  9  4  0
  3 10  4  0
  4  8  4  0
  4 18  4  0
  4 25  1  0
  5  9  4  0
  5 12  4  0
  6 13  1  0
  6 27  1  0
  7 28  4  0
  8 11  4  0
  9 29  4  0
 10 12  4  0
 11 24  1  0
 11 26  4  0
 12 25  1  0
 13 28  1  0
 14 20  4  0
 14 23  4  0
 15 17  4  0
 15 21  4  0
 16 19  4  0
 16 23  4  0
 17 22  4  0
 18 26  4  0
 19 24  4  0
 20 24  4  0
 22 27  4  0
 28 29  4  0
M  END
$$$$

 Created by Python create_sdf_string function

 29 33  0  0  0  0  0  0  0  0999 V2000
   10.7215   -3.3326   17.6437 C   0  0  0  0  0  0  0  0  0  0  0  0
    9.9489   -3.4675   24.6487 N   0  0  0  0  0  0  0  0  0  0  0  0
   10.0172   -4.4740   17.4101 C   0  0  0  0  0  0  0  0  0  0  0  0
    6.9051   -7.9575   16.4222 C   0  0  0  0  0  0  0  0  0  0  0  0
    8.9969   -6.3552   17.9668 N   0  0  0  0  0  0  0  0  0  0  0  0
   10.6702   -3.9051   22.4070 C   0  0  0  0  0  0  0  0  0  0  0  0
   11.0625   -3.0028   18.8894 C   0  0  0  0  0  0  0  0  0  0  0  0
    5.6180   -7.9194   16.1754 O   0  0  0  0  0  0  0  0  0  0  0  0
    9.7259   -5.3080   18.4485 C   0  0  0  0  0  0  0  0  0  0  0  0
    9.4578   -5.0200   16.3036 N   0  0  0  0  0  0  0  0  0  0  0  0
    5.0287   -8.9365   16.8223 C   0  0  0  0  0  0  0  0  0  0  0  0
    8.7742   -6.1498   16.6764 C   0  0  0  0  0  0  0  0  0  0  0  0
   10.9418   -3.4032   21.2053 O   0  0  0  0  0  0  0  0  0  0  0  0
    1.4797   -8.6258   16.2950 C   0  0  0  0  0  0  0  0  0  0  0  0
    9.2861   -1.2743   25.3585 C   0  0  0  0  0  0  0  0  0  0  0  0
    1.8892  -10.3985   17.7511 N   0  0  0  0  0  0  0  0  0  0  0  0
    9.6210   -0.6952   24.0976 C   0  0  0  0  0  0  0  0  0  0  0  0
    7.0792   -9.0217   17.1429 C   0  0  0  0  0  0  0  0  0  0  0  0
    3.1713  -10.1816   17.6634 C   0  0  0  0  0  0  0  0  0  0  0  0
    2.7878   -8.3822   16.2137 C   0  0  0  0  0  0  0  0  0  0  0  0
    9.4601   -2.6590   25.6528 C   0  0  0  0  0  0  0  0  0  0  0  0
   10.1182   -1.5672   23.1165 C   0  0  0  0  0  0  0  0  0  0  0  0
    1.0552   -9.6360   17.0650 C   0  0  0  0  0  0  0  0  0  0  0  0
    3.6519   -9.1783   16.9039 C   0  0  0  0  0  0  0  0  0  0  0  0
    7.8675   -7.0096   15.9415 C   0  0  0  0  0  0  0  0  0  0  0  0
    5.9733   -9.6553   17.3832 N   0  0  0  0  0  0  0  0  0  0  0  0
   10.2411   -2.9363   23.4301 C   0  0  0  0  0  0  0  0  0  0  0  0
   10.7288   -3.8197   19.9525 C   0  0  0  0  0  0  0  0  0  0  0  0
   10.1189   -5.0054   19.6987 C   0  0  0  0  0  0  0  0  0  0  0  0
  1  3  4  0
  1  7  4  0
  2 21  4  0
  2 27  4  0
  3  9  4  0
  3 10  4  0
  4  8  4  0
  4 18  4  0
  4 25  1  0
  5  9  4  0
  5 12  4  0
  6 13  1  0
  6 27  1  0
  7 28  4  0
  8 11  4  0
  9 29  4  0
 10 12  4  0
 11 24  1  0
 11 26  4  0
 12 25  1  0
 13 28  1  0
 14 20  4  0
 14 23  4  0
 15 17  4  0
 15 21  4  0
 16 19  4  0
 16 23  4  0
 17 22  4  0
 18 26  4  0
 19 24  4  0
 20 24  4  0
 22 27  4  0
 28 29  4  0
M  END
$$$$

 Created by Python create_sdf_string function

 29 33  0  0  0  0  0  0  0  0999 V2000
   10.7215   -3.3326   17.6437 C   0  0  0  0  0  0  0  0  0  0  0  0
    9.9489   -3.4675   24.6487 N   0  0  0  0  0  0  0  0  0  0  0  0
   10.0172   -4.4740   17.4101 C   0  0  0  0  0  0  0  0  0  0  0  0
    6.9051   -7.9575   16.4222 C   0  0  0  0  0  0  0  0  0  0  0  0
    8.9969   -6.3552   17.9668 N   0  0  0  0  0  0  0  0  0  0  0  0
   10.6702   -3.9051   22.4070 C   0  0  0  0  0  0  0  0  0  0  0  0
   11.0625   -3.0028   18.8894 C   0  0  0  0  0  0  0  0  0  0  0  0
    5.6180   -7.9194   16.1754 O   0  0  0  0  0  0  0  0  0  0  0  0
    9.7259   -5.3080   18.4485 C   0  0  0  0  0  0  0  0  0  0  0  0
    9.4578   -5.0200   16.3036 N   0  0  0  0  0  0  0  0  0  0  0  0
    5.0287   -8.9365   16.8223 C   0  0  0  0  0  0  0  0  0  0  0  0
    8.7742   -6.1498   16.6764 C   0  0  0  0  0  0  0  0  0  0  0  0
   10.9418   -3.4032   21.2053 O   0  0  0  0  0  0  0  0  0  0  0  0
    1.4797   -8.6258   16.2950 C   0  0  0  0  0  0  0  0  0  0  0  0
    9.2861   -1.2743   25.3585 C   0  0  0  0  0  0  0  0  0  0  0  0
    1.8892  -10.3985   17.7511 N   0  0  0  0  0  0  0  0  0  0  0  0
    9.6210   -0.6952   24.0976 C   0  0  0  0  0  0  0  0  0  0  0  0
    7.0792   -9.0217   17.1429 C   0  0  0  0  0  0  0  0  0  0  0  0
    3.1713  -10.1816   17.6634 C   0  0  0  0  0  0  0  0  0  0  0  0
    2.7878   -8.3822   16.2137 C   0  0  0  0  0  0  0  0  0  0  0  0
    9.4601   -2.6590   25.6528 C   0  0  0  0  0  0  0  0  0  0  0  0
   10.1182   -1.5672   23.1165 C   0  0  0  0  0  0  0  0  0  0  0  0
    1.0552   -9.6360   17.0650 C   0  0  0  0  0  0  0  0  0  0  0  0
    3.6519   -9.1783   16.9039 C   0  0  0  0  0  0  0  0  0  0  0  0
    7.8675   -7.0096   15.9415 C   0  0  0  0  0  0  0  0  0  0  0  0
    5.9733   -9.6553   17.3832 N   0  0  0  0  0  0  0  0  0  0  0  0
   10.2411   -2.9363   23.4301 C   0  0  0  0  0  0  0  0  0  0  0  0
   10.7288   -3.8197   19.9525 C   0  0  0  0  0  0  0  0  0  0  0  0
   10.1189   -5.0054   19.6987 C   0  0  0  0  0  0  0  0  0  0  0  0
  1  3  4  0
  1  7  4  0
  2 21  4  0
  2 27  4  0
  3  9  4  0
  3 10  4  0
  4  8  4  0
  4 18  4  0
  4 25  1  0
  5  9  4  0
  5 12  4  0
  6 13  1  0
  6 27  1  0
  7 28  4  0
  8 11  4  0
  9 29  4  0
 10 12  4  0
 11 24  1  0
 11 26  4  0
 12 25  1  0
 13 28  1  0
 14 20  4  0
 14 23  4  0
 15 17  4  0
 15 21  4  0
 16 19  4  0
 16 23  4  0
 17 22  4  0
 18 26  4  0
 19 24  4  0
 20 24  4  0
 22 27  4  0
 28 29  4  0
M  END
$$$$

 Created by Python create_sdf_string function

 29 33  0  0  0  0  0  0  0  0999 V2000
   10.7215   -3.3326   17.6437 C   0  0  0  0  0  0  0  0  0  0  0  0
    9.9489   -3.4675   24.6487 N   0  0  0  0  0  0  0  0  0  0  0  0
   10.0172   -4.4740   17.4101 C   0  0  0  0  0  0  0  0  0  0  0  0
    6.9051   -7.9575   16.4222 C   0  0  0  0  0  0  0  0  0  0  0  0
    8.9969   -6.3552   17.9668 N   0  0  0  0  0  0  0  0  0  0  0  0
   10.6702   -3.9051   22.4070 C   0  0  0  0  0  0  0  0  0  0  0  0
   11.0625   -3.0028   18.8894 C   0  0  0  0  0  0  0  0  0  0  0  0
    5.6180   -7.9194   16.1754 O   0  0  0  0  0  0  0  0  0  0  0  0
    9.7259   -5.3080   18.4485 C   0  0  0  0  0  0  0  0  0  0  0  0
    9.4578   -5.0200   16.3036 N   0  0  0  0  0  0  0  0  0  0  0  0
    5.0287   -8.9365   16.8223 C   0  0  0  0  0  0  0  0  0  0  0  0
    8.7742   -6.1498   16.6764 C   0  0  0  0  0  0  0  0  0  0  0  0
   10.9418   -3.4032   21.2053 O   0  0  0  0  0  0  0  0  0  0  0  0
    1.4797   -8.6258   16.2950 C   0  0  0  0  0  0  0  0  0  0  0  0
    9.2861   -1.2743   25.3585 C   0  0  0  0  0  0  0  0  0  0  0  0
    1.8892  -10.3985   17.7511 N   0  0  0  0  0  0  0  0  0  0  0  0
    9.6210   -0.6952   24.0976 C   0  0  0  0  0  0  0  0  0  0  0  0
    7.0792   -9.0217   17.1429 C   0  0  0  0  0  0  0  0  0  0  0  0
    3.1713  -10.1816   17.6634 C   0  0  0  0  0  0  0  0  0  0  0  0
    2.7878   -8.3822   16.2137 C   0  0  0  0  0  0  0  0  0  0  0  0
    9.4601   -2.6590   25.6528 C   0  0  0  0  0  0  0  0  0  0  0  0
   10.1182   -1.5672   23.1165 C   0  0  0  0  0  0  0  0  0  0  0  0
    1.0552   -9.6360   17.0650 C   0  0  0  0  0  0  0  0  0  0  0  0
    3.6519   -9.1783   16.9039 C   0  0  0  0  0  0  0  0  0  0  0  0
    7.8675   -7.0096   15.9415 C   0  0  0  0  0  0  0  0  0  0  0  0
    5.9733   -9.6553   17.3832 N   0  0  0  0  0  0  0  0  0  0  0  0
   10.2411   -2.9363   23.4301 C   0  0  0  0  0  0  0  0  0  0  0  0
   10.7288   -3.8197   19.9525 C   0  0  0  0  0  0  0  0  0  0  0  0
   10.1189   -5.0054   19.6987 C   0  0  0  0  0  0  0  0  0  0  0  0
  1  3  4  0
  1  7  4  0
  2 21  4  0
  2 27  4  0
  3  9  4  0
  3 10  4  0
  4  8  4  0
  4 18  4  0
  4 25  1  0
  5  9  4  0
  5 12  4  0
  6 13  1  0
  6 27  1  0
  7 28  4  0
  8 11  4  0
  9 29  4  0
 10 12  4  0
 11 24  1  0
 11 26  4  0
 12 25  1  0
 13 28  1  0
 14 20  4  0
 14 23  4  0
 15 17  4  0
 15 21  4  0
 16 19  4  0
 16 23  4  0
 17 22  4  0
 18 26  4  0
 19 24  4  0
 20 24  4  0
 22 27  4  0
 28 29  4  0
M  END
$$$$

 Created by Python create_sdf_string function

 29 33  0  0  0  0  0  0  0  0999 V2000
   10.7215   -3.3326   17.6437 C   0  0  0  0  0  0  0  0  0  0  0  0
    9.9489   -3.4675   24.6487 N   0  0  0  0  0  0  0  0  0  0  0  0
   10.0172   -4.4740   17.4101 C   0  0  0  0  0  0  0  0  0  0  0  0
    6.9051   -7.9575   16.4222 C   0  0  0  0  0  0  0  0  0  0  0  0
    8.9969   -6.3552   17.9668 N   0  0  0  0  0  0  0  0  0  0  0  0
   10.6702   -3.9051   22.4070 C   0  0  0  0  0  0  0  0  0  0  0  0
   11.0625   -3.0028   18.8894 C   0  0  0  0  0  0  0  0  0  0  0  0
    5.6180   -7.9194   16.1754 O   0  0  0  0  0  0  0  0  0  0  0  0
    9.7259   -5.3080   18.4485 C   0  0  0  0  0  0  0  0  0  0  0  0
    9.4578   -5.0200   16.3036 N   0  0  0  0  0  0  0  0  0  0  0  0
    5.0287   -8.9365   16.8223 C   0  0  0  0  0  0  0  0  0  0  0  0
    8.7742   -6.1498   16.6764 C   0  0  0  0  0  0  0  0  0  0  0  0
   10.9418   -3.4032   21.2053 O   0  0  0  0  0  0  0  0  0  0  0  0
    1.4797   -8.6258   16.2950 C   0  0  0  0  0  0  0  0  0  0  0  0
    9.2861   -1.2743   25.3585 C   0  0  0  0  0  0  0  0  0  0  0  0
    1.8892  -10.3985   17.7511 N   0  0  0  0  0  0  0  0  0  0  0  0
    9.6210   -0.6952   24.0976 C   0  0  0  0  0  0  0  0  0  0  0  0
    7.0792   -9.0217   17.1429 C   0  0  0  0  0  0  0  0  0  0  0  0
    3.1713  -10.1816   17.6634 C   0  0  0  0  0  0  0  0  0  0  0  0
    2.7878   -8.3822   16.2137 C   0  0  0  0  0  0  0  0  0  0  0  0
    9.4601   -2.6590   25.6528 C   0  0  0  0  0  0  0  0  0  0  0  0
   10.1182   -1.5672   23.1165 C   0  0  0  0  0  0  0  0  0  0  0  0
    1.0552   -9.6360   17.0650 C   0  0  0  0  0  0  0  0  0  0  0  0
    3.6519   -9.1783   16.9039 C   0  0  0  0  0  0  0  0  0  0  0  0
    7.8675   -7.0096   15.9415 C   0  0  0  0  0  0  0  0  0  0  0  0
    5.9733   -9.6553   17.3832 N   0  0  0  0  0  0  0  0  0  0  0  0
   10.2411   -2.9363   23.4301 C   0  0  0  0  0  0  0  0  0  0  0  0
   10.7288   -3.8197   19.9525 C   0  0  0  0  0  0  0  0  0  0  0  0
   10.1189   -5.0054   19.6987 C   0  0  0  0  0  0  0  0  0  0  0  0
  1  3  4  0
  1  7  4  0
  2 21  4  0
  2 27  4  0
  3  9  4  0
  3 10  4  0
  4  8  4  0
  4 18  4  0
  4 25  1  0
  5  9  4  0
  5 12  4  0
  6 13  1  0
  6 27  1  0
  7 28  4  0
  8 11  4  0
  9 29  4  0
 10 12  4  0
 11 24  1  0
 11 26  4  0
 12 25  1  0
 13 28  1  0
 14 20  4  0
 14 23  4  0
 15 17  4  0
 15 21  4  0
 16 19  4  0
 16 23  4  0
 17 22  4  0
 18 26  4  0
 19 24  4  0
 20 24  4  0
 22 27  4  0
 28 29  4  0
M  END
$$$$

 Created by Python create_sdf_string function

 29 33  0  0  0  0  0  0  0  0999 V2000
   10.7215   -3.3326   17.6437 C   0  0  0  0  0  0  0  0  0  0  0  0
    9.9489   -3.4675   24.6487 N   0  0  0  0  0  0  0  0  0  0  0  0
   10.0172   -4.4740   17.4101 C   0  0  0  0  0  0  0  0  0  0  0  0
    6.9051   -7.9575   16.4222 C   0  0  0  0  0  0  0  0  0  0  0  0
    8.9969   -6.3552   17.9668 N   0  0  0  0  0  0  0  0  0  0  0  0
   10.6702   -3.9051   22.4070 C   0  0  0  0  0  0  0  0  0  0  0  0
   11.0625   -3.0028   18.8894 C   0  0  0  0  0  0  0  0  0  0  0  0
    5.6180   -7.9194   16.1754 O   0  0  0  0  0  0  0  0  0  0  0  0
    9.7259   -5.3080   18.4485 C   0  0  0  0  0  0  0  0  0  0  0  0
    9.4578   -5.0200   16.3036 N   0  0  0  0  0  0  0  0  0  0  0  0
    5.0287   -8.9365   16.8223 C   0  0  0  0  0  0  0  0  0  0  0  0
    8.7742   -6.1498   16.6764 C   0  0  0  0  0  0  0  0  0  0  0  0
   10.9418   -3.4032   21.2053 O   0  0  0  0  0  0  0  0  0  0  0  0
    1.4797   -8.6258   16.2950 C   0  0  0  0  0  0  0  0  0  0  0  0
    9.2861   -1.2743   25.3585 C   0  0  0  0  0  0  0  0  0  0  0  0
    1.8892  -10.3985   17.7511 N   0  0  0  0  0  0  0  0  0  0  0  0
    9.6210   -0.6952   24.0976 C   0  0  0  0  0  0  0  0  0  0  0  0
    7.0792   -9.0217   17.1429 C   0  0  0  0  0  0  0  0  0  0  0  0
    3.1713  -10.1816   17.6634 C   0  0  0  0  0  0  0  0  0  0  0  0
    2.7878   -8.3822   16.2137 C   0  0  0  0  0  0  0  0  0  0  0  0
    9.4601   -2.6590   25.6528 C   0  0  0  0  0  0  0  0  0  0  0  0
   10.1182   -1.5672   23.1165 C   0  0  0  0  0  0  0  0  0  0  0  0
    1.0552   -9.6360   17.0650 C   0  0  0  0  0  0  0  0  0  0  0  0
    3.6519   -9.1783   16.9039 C   0  0  0  0  0  0  0  0  0  0  0  0
    7.8675   -7.0096   15.9415 C   0  0  0  0  0  0  0  0  0  0  0  0
    5.9733   -9.6553   17.3832 N   0  0  0  0  0  0  0  0  0  0  0  0
   10.2411   -2.9363   23.4301 C   0  0  0  0  0  0  0  0  0  0  0  0
   10.7288   -3.8197   19.9525 C   0  0  0  0  0  0  0  0  0  0  0  0
   10.1189   -5.0054   19.6987 C   0  0  0  0  0  0  0  0  0  0  0  0
  1  3  4  0
  1  7  4  0
  2 21  4  0
  2 27  4  0
  3  9  4  0
  3 10  4  0
  4  8  4  0
  4 18  4  0
  4 25  1  0
  5  9  4  0
  5 12  4  0
  6 13  1  0
  6 27  1  0
  7 28  4  0
  8 11  4  0
  9 29  4  0
 10 12  4  0
 11 24  1  0
 11 26  4  0
 12 25  1  0
 13 28  1  0
 14 20  4  0
 14 23  4  0
 15 17  4  0
 15 21  4  0
 16 19  4  0
 16 23  4  0
 17 22  4  0
 18 26  4  0
 19 24  4  0
 20 24  4  0
 22 27  4  0
 28 29  4  0
M  END
$$$$

 Created by Python create_sdf_string function

 29 33  0  0  0  0  0  0  0  0999 V2000
   10.7215   -3.3326   17.6437 C   0  0  0  0  0  0  0  0  0  0  0  0
    9.9489   -3.4675   24.6487 N   0  0  0  0  0  0  0  0  0  0  0  0
   10.0172   -4.4740   17.4101 C   0  0  0  0  0  0  0  0  0  0  0  0
    6.9051   -7.9575   16.4222 C   0  0  0  0  0  0  0  0  0  0  0  0
    8.9969   -6.3552   17.9668 N   0  0  0  0  0  0  0  0  0  0  0  0
   10.6702   -3.9051   22.4070 C   0  0  0  0  0  0  0  0  0  0  0  0
   11.0625   -3.0028   18.8894 C   0  0  0  0  0  0  0  0  0  0  0  0
    5.6180   -7.9194   16.1754 O   0  0  0  0  0  0  0  0  0  0  0  0
    9.7259   -5.3080   18.4485 C   0  0  0  0  0  0  0  0  0  0  0  0
    9.4578   -5.0200   16.3036 N   0  0  0  0  0  0  0  0  0  0  0  0
    5.0287   -8.9365   16.8223 C   0  0  0  0  0  0  0  0  0  0  0  0
    8.7742   -6.1498   16.6764 C   0  0  0  0  0  0  0  0  0  0  0  0
   10.9418   -3.4032   21.2053 O   0  0  0  0  0  0  0  0  0  0  0  0
    1.4797   -8.6258   16.2950 C   0  0  0  0  0  0  0  0  0  0  0  0
    9.2861   -1.2743   25.3585 C   0  0  0  0  0  0  0  0  0  0  0  0
    1.8892  -10.3985   17.7511 N   0  0  0  0  0  0  0  0  0  0  0  0
    9.6210   -0.6952   24.0976 C   0  0  0  0  0  0  0  0  0  0  0  0
    7.0792   -9.0217   17.1429 C   0  0  0  0  0  0  0  0  0  0  0  0
    3.1713  -10.1816   17.6634 C   0  0  0  0  0  0  0  0  0  0  0  0
    2.7878   -8.3822   16.2137 C   0  0  0  0  0  0  0  0  0  0  0  0
    9.4601   -2.6590   25.6528 C   0  0  0  0  0  0  0  0  0  0  0  0
   10.1182   -1.5672   23.1165 C   0  0  0  0  0  0  0  0  0  0  0  0
    1.0552   -9.6360   17.0650 C   0  0  0  0  0  0  0  0  0  0  0  0
    3.6519   -9.1783   16.9039 C   0  0  0  0  0  0  0  0  0  0  0  0
    7.8675   -7.0096   15.9415 C   0  0  0  0  0  0  0  0  0  0  0  0
    5.9733   -9.6553   17.3832 N   0  0  0  0  0  0  0  0  0  0  0  0
   10.2411   -2.9363   23.4301 C   0  0  0  0  0  0  0  0  0  0  0  0
   10.7288   -3.8197   19.9525 C   0  0  0  0  0  0  0  0  0  0  0  0
   10.1189   -5.0054   19.6987 C   0  0  0  0  0  0  0  0  0  0  0  0
  1  3  4  0
  1  7  4  0
  2 21  4  0
  2 27  4  0
  3  9  4  0
  3 10  4  0
  4  8  4  0
  4 18  4  0
  4 25  1  0
  5  9  4  0
  5 12  4  0
  6 13  1  0
  6 27  1  0
  7 28  4  0
  8 11  4  0
  9 29  4  0
 10 12  4  0
 11 24  1  0
 11 26  4  0
 12 25  1  0
 13 28  1  0
 14 20  4  0
 14 23  4  0
 15 17  4  0
 15 21  4  0
 16 19  4  0
 16 23  4  0
 17 22  4  0
 18 26  4  0
 19 24  4  0
 20 24  4  0
 22 27  4  0
 28 29  4  0
M  END
$$$$

 Created by Python create_sdf_string function

 29 33  0  0  0  0  0  0  0  0999 V2000
   10.7215   -3.3326   17.6437 C   0  0  0  0  0  0  0  0  0  0  0  0
    9.9489   -3.4675   24.6487 N   0  0  0  0  0  0  0  0  0  0  0  0
   10.0172   -4.4740   17.4101 C   0  0  0  0  0  0  0  0  0  0  0  0
    6.9051   -7.9575   16.4222 C   0  0  0  0  0  0  0  0  0  0  0  0
    8.9969   -6.3552   17.9668 N   0  0  0  0  0  0  0  0  0  0  0  0
   10.6702   -3.9051   22.4070 C   0  0  0  0  0  0  0  0  0  0  0  0
   11.0625   -3.0028   18.8894 C   0  0  0  0  0  0  0  0  0  0  0  0
    5.6180   -7.9194   16.1754 O   0  0  0  0  0  0  0  0  0  0  0  0
    9.7259   -5.3080   18.4485 C   0  0  0  0  0  0  0  0  0  0  0  0
    9.4578   -5.0200   16.3036 N   0  0  0  0  0  0  0  0  0  0  0  0
    5.0287   -8.9365   16.8223 C   0  0  0  0  0  0  0  0  0  0  0  0
    8.7742   -6.1498   16.6764 C   0  0  0  0  0  0  0  0  0  0  0  0
   10.9418   -3.4032   21.2053 O   0  0  0  0  0  0  0  0  0  0  0  0
    1.4797   -8.6258   16.2950 C   0  0  0  0  0  0  0  0  0  0  0  0
    9.2861   -1.2743   25.3585 C   0  0  0  0  0  0  0  0  0  0  0  0
    1.8892  -10.3985   17.7511 N   0  0  0  0  0  0  0  0  0  0  0  0
    9.6210   -0.6952   24.0976 C   0  0  0  0  0  0  0  0  0  0  0  0
    7.0792   -9.0217   17.1429 C   0  0  0  0  0  0  0  0  0  0  0  0
    3.1713  -10.1816   17.6634 C   0  0  0  0  0  0  0  0  0  0  0  0
    2.7878   -8.3822   16.2137 C   0  0  0  0  0  0  0  0  0  0  0  0
    9.4601   -2.6590   25.6528 C   0  0  0  0  0  0  0  0  0  0  0  0
   10.1182   -1.5672   23.1165 C   0  0  0  0  0  0  0  0  0  0  0  0
    1.0552   -9.6360   17.0650 C   0  0  0  0  0  0  0  0  0  0  0  0
    3.6519   -9.1783   16.9039 C   0  0  0  0  0  0  0  0  0  0  0  0
    7.8675   -7.0096   15.9415 C   0  0  0  0  0  0  0  0  0  0  0  0
    5.9733   -9.6553   17.3832 N   0  0  0  0  0  0  0  0  0  0  0  0
   10.2411   -2.9363   23.4301 C   0  0  0  0  0  0  0  0  0  0  0  0
   10.7288   -3.8197   19.9525 C   0  0  0  0  0  0  0  0  0  0  0  0
   10.1189   -5.0054   19.6987 C   0  0  0  0  0  0  0  0  0  0  0  0
  1  3  4  0
  1  7  4  0
  2 21  4  0
  2 27  4  0
  3  9  4  0
  3 10  4  0
  4  8  4  0
  4 18  4  0
  4 25  1  0
  5  9  4  0
  5 12  4  0
  6 13  1  0
  6 27  1  0
  7 28  4  0
  8 11  4  0
  9 29  4  0
 10 12  4  0
 11 24  1  0
 11 26  4  0
 12 25  1  0
 13 28  1  0
 14 20  4  0
 14 23  4  0
 15 17  4  0
 15 21  4  0
 16 19  4  0
 16 23  4  0
 17 22  4  0
 18 26  4  0
 19 24  4  0
 20 24  4  0
 22 27  4  0
 28 29  4  0
M  END
$$$$

 Created by Python create_sdf_string function

 29 33  0  0  0  0  0  0  0  0999 V2000
   10.7215   -3.3326   17.6437 C   0  0  0  0  0  0  0  0  0  0  0  0
    9.9489   -3.4675   24.6487 N   0  0  0  0  0  0  0  0  0  0  0  0
   10.0172   -4.4740   17.4101 C   0  0  0  0  0  0  0  0  0  0  0  0
    6.9051   -7.9575   16.4222 C   0  0  0  0  0  0  0  0  0  0  0  0
    8.9969   -6.3552   17.9668 N   0  0  0  0  0  0  0  0  0  0  0  0
   10.6702   -3.9051   22.4070 C   0  0  0  0  0  0  0  0  0  0  0  0
   11.0625   -3.0028   18.8894 C   0  0  0  0  0  0  0  0  0  0  0  0
    5.6180   -7.9194   16.1754 O   0  0  0  0  0  0  0  0  0  0  0  0
    9.7259   -5.3080   18.4485 C   0  0  0  0  0  0  0  0  0  0  0  0
    9.4578   -5.0200   16.3036 N   0  0  0  0  0  0  0  0  0  0  0  0
    5.0287   -8.9365   16.8223 C   0  0  0  0  0  0  0  0  0  0  0  0
    8.7742   -6.1498   16.6764 C   0  0  0  0  0  0  0  0  0  0  0  0
   10.9418   -3.4032   21.2053 O   0  0  0  0  0  0  0  0  0  0  0  0
    1.4797   -8.6258   16.2950 C   0  0  0  0  0  0  0  0  0  0  0  0
    9.2861   -1.2743   25.3585 C   0  0  0  0  0  0  0  0  0  0  0  0
    1.8892  -10.3985   17.7511 N   0  0  0  0  0  0  0  0  0  0  0  0
    9.6210   -0.6952   24.0976 C   0  0  0  0  0  0  0  0  0  0  0  0
    7.0792   -9.0217   17.1429 C   0  0  0  0  0  0  0  0  0  0  0  0
    3.1713  -10.1816   17.6634 C   0  0  0  0  0  0  0  0  0  0  0  0
    2.7878   -8.3822   16.2137 C   0  0  0  0  0  0  0  0  0  0  0  0
    9.4601   -2.6590   25.6528 C   0  0  0  0  0  0  0  0  0  0  0  0
   10.1182   -1.5672   23.1165 C   0  0  0  0  0  0  0  0  0  0  0  0
    1.0552   -9.6360   17.0650 C   0  0  0  0  0  0  0  0  0  0  0  0
    3.6519   -9.1783   16.9039 C   0  0  0  0  0  0  0  0  0  0  0  0
    7.8675   -7.0096   15.9415 C   0  0  0  0  0  0  0  0  0  0  0  0
    5.9733   -9.6553   17.3832 N   0  0  0  0  0  0  0  0  0  0  0  0
   10.2411   -2.9363   23.4301 C   0  0  0  0  0  0  0  0  0  0  0  0
   10.7288   -3.8197   19.9525 C   0  0  0  0  0  0  0  0  0  0  0  0
   10.1189   -5.0054   19.6987 C   0  0  0  0  0  0  0  0  0  0  0  0
  1  3  4  0
  1  7  4  0
  2 21  4  0
  2 27  4  0
  3  9  4  0
  3 10  4  0
  4  8  4  0
  4 18  4  0
  4 25  1  0
  5  9  4  0
  5 12  4  0
  6 13  1  0
  6 27  1  0
  7 28  4  0
  8 11  4  0
  9 29  4  0
 10 12  4  0
 11 24  1  0
 11 26  4  0
 12 25  1  0
 13 28  1  0
 14 20  4  0
 14 23  4  0
 15 17  4  0
 15 21  4  0
 16 19  4  0
 16 23  4  0
 17 22  4  0
 18 26  4  0
 19 24  4  0
 20 24  4  0
 22 27  4  0
 28 29  4  0
M  END
$$$$

 Created by Python create_sdf_string function

 29 33  0  0  0  0  0  0  0  0999 V2000
   10.7215   -3.3326   17.6437 C   0  0  0  0  0  0  0  0  0  0  0  0
    9.9489   -3.4675   24.6487 N   0  0  0  0  0  0  0  0  0  0  0  0
   10.0172   -4.4740   17.4101 C   0  0  0  0  0  0  0  0  0  0  0  0
    6.9051   -7.9575   16.4222 C   0  0  0  0  0  0  0  0  0  0  0  0
    8.9969   -6.3552   17.9668 N   0  0  0  0  0  0  0  0  0  0  0  0
   10.6702   -3.9051   22.4070 C   0  0  0  0  0  0  0  0  0  0  0  0
   11.0625   -3.0028   18.8894 C   0  0  0  0  0  0  0  0  0  0  0  0
    5.6180   -7.9194   16.1754 O   0  0  0  0  0  0  0  0  0  0  0  0
    9.7259   -5.3080   18.4485 C   0  0  0  0  0  0  0  0  0  0  0  0
    9.4578   -5.0200   16.3036 N   0  0  0  0  0  0  0  0  0  0  0  0
    5.0287   -8.9365   16.8223 C   0  0  0  0  0  0  0  0  0  0  0  0
    8.7742   -6.1498   16.6764 C   0  0  0  0  0  0  0  0  0  0  0  0
   10.9418   -3.4032   21.2053 O   0  0  0  0  0  0  0  0  0  0  0  0
    1.4797   -8.6258   16.2950 C   0  0  0  0  0  0  0  0  0  0  0  0
    9.2861   -1.2743   25.3585 C   0  0  0  0  0  0  0  0  0  0  0  0
    1.8892  -10.3985   17.7511 N   0  0  0  0  0  0  0  0  0  0  0  0
    9.6210   -0.6952   24.0976 C   0  0  0  0  0  0  0  0  0  0  0  0
    7.0792   -9.0217   17.1429 C   0  0  0  0  0  0  0  0  0  0  0  0
    3.1713  -10.1816   17.6634 C   0  0  0  0  0  0  0  0  0  0  0  0
    2.7878   -8.3822   16.2137 C   0  0  0  0  0  0  0  0  0  0  0  0
    9.4601   -2.6590   25.6528 C   0  0  0  0  0  0  0  0  0  0  0  0
   10.1182   -1.5672   23.1165 C   0  0  0  0  0  0  0  0  0  0  0  0
    1.0552   -9.6360   17.0650 C   0  0  0  0  0  0  0  0  0  0  0  0
    3.6519   -9.1783   16.9039 C   0  0  0  0  0  0  0  0  0  0  0  0
    7.8675   -7.0096   15.9415 C   0  0  0  0  0  0  0  0  0  0  0  0
    5.9733   -9.6553   17.3832 N   0  0  0  0  0  0  0  0  0  0  0  0
   10.2411   -2.9363   23.4301 C   0  0  0  0  0  0  0  0  0  0  0  0
   10.7288   -3.8197   19.9525 C   0  0  0  0  0  0  0  0  0  0  0  0
   10.1189   -5.0054   19.6987 C   0  0  0  0  0  0  0  0  0  0  0  0
  1  3  4  0
  1  7  4  0
  2 21  4  0
  2 27  4  0
  3  9  4  0
  3 10  4  0
  4  8  4  0
  4 18  4  0
  4 25  1  0
  5  9  4  0
  5 12  4  0
  6 13  1  0
  6 27  1  0
  7 28  4  0
  8 11  4  0
  9 29  4  0
 10 12  4  0
 11 24  1  0
 11 26  4  0
 12 25  1  0
 13 28  1  0
 14 20  4  0
 14 23  4  0
 15 17  4  0
 15 21  4  0
 16 19  4  0
 16 23  4  0
 17 22  4  0
 18 26  4  0
 19 24  4  0
 20 24  4  0
 22 27  4  0
 28 29  4  0
M  END
$$$$

 Created by Python create_sdf_string function

 29 33  0  0  0  0  0  0  0  0999 V2000
   10.7215   -3.3326   17.6437 C   0  0  0  0  0  0  0  0  0  0  0  0
    9.9489   -3.4675   24.6487 N   0  0  0  0  0  0  0  0  0  0  0  0
   10.0172   -4.4740   17.4101 C   0  0  0  0  0  0  0  0  0  0  0  0
    6.9051   -7.9575   16.4222 C   0  0  0  0  0  0  0  0  0  0  0  0
    8.9969   -6.3552   17.9668 N   0  0  0  0  0  0  0  0  0  0  0  0
   10.6702   -3.9051   22.4070 C   0  0  0  0  0  0  0  0  0  0  0  0
   11.0625   -3.0028   18.8894 C   0  0  0  0  0  0  0  0  0  0  0  0
    5.6180   -7.9194   16.1754 O   0  0  0  0  0  0  0  0  0  0  0  0
    9.7259   -5.3080   18.4485 C   0  0  0  0  0  0  0  0  0  0  0  0
    9.4578   -5.0200   16.3036 N   0  0  0  0  0  0  0  0  0  0  0  0
    5.0287   -8.9365   16.8223 C   0  0  0  0  0  0  0  0  0  0  0  0
    8.7742   -6.1498   16.6764 C   0  0  0  0  0  0  0  0  0  0  0  0
   10.9418   -3.4032   21.2053 O   0  0  0  0  0  0  0  0  0  0  0  0
    1.4797   -8.6258   16.2950 C   0  0  0  0  0  0  0  0  0  0  0  0
    9.2861   -1.2743   25.3585 C   0  0  0  0  0  0  0  0  0  0  0  0
    1.8892  -10.3985   17.7511 N   0  0  0  0  0  0  0  0  0  0  0  0
    9.6210   -0.6952   24.0976 C   0  0  0  0  0  0  0  0  0  0  0  0
    7.0792   -9.0217   17.1429 C   0  0  0  0  0  0  0  0  0  0  0  0
    3.1713  -10.1816   17.6634 C   0  0  0  0  0  0  0  0  0  0  0  0
    2.7878   -8.3822   16.2137 C   0  0  0  0  0  0  0  0  0  0  0  0
    9.4601   -2.6590   25.6528 C   0  0  0  0  0  0  0  0  0  0  0  0
   10.1182   -1.5672   23.1165 C   0  0  0  0  0  0  0  0  0  0  0  0
    1.0552   -9.6360   17.0650 C   0  0  0  0  0  0  0  0  0  0  0  0
    3.6519   -9.1783   16.9039 C   0  0  0  0  0  0  0  0  0  0  0  0
    7.8675   -7.0096   15.9415 C   0  0  0  0  0  0  0  0  0  0  0  0
    5.9733   -9.6553   17.3832 N   0  0  0  0  0  0  0  0  0  0  0  0
   10.2411   -2.9363   23.4301 C   0  0  0  0  0  0  0  0  0  0  0  0
   10.7288   -3.8197   19.9525 C   0  0  0  0  0  0  0  0  0  0  0  0
   10.1189   -5.0054   19.6987 C   0  0  0  0  0  0  0  0  0  0  0  0
  1  3  4  0
  1  7  4  0
  2 21  4  0
  2 27  4  0
  3  9  4  0
  3 10  4  0
  4  8  4  0
  4 18  4  0
  4 25  1  0
  5  9  4  0
  5 12  4  0
  6 13  1  0
  6 27  1  0
  7 28  4  0
  8 11  4  0
  9 29  4  0
 10 12  4  0
 11 24  1  0
 11 26  4  0
 12 25  1  0
 13 28  1  0
 14 20  4  0
 14 23  4  0
 15 17  4  0
 15 21  4  0
 16 19  4  0
 16 23  4  0
 17 22  4  0
 18 26  4  0
 19 24  4  0
 20 24  4  0
 22 27  4  0
 28 29  4  0
M  END
$$$$

 Created by Python create_sdf_string function

 29 33  0  0  0  0  0  0  0  0999 V2000
   10.7215   -3.3326   17.6437 C   0  0  0  0  0  0  0  0  0  0  0  0
    9.9489   -3.4675   24.6487 N   0  0  0  0  0  0  0  0  0  0  0  0
   10.0172   -4.4740   17.4101 C   0  0  0  0  0  0  0  0  0  0  0  0
    6.9051   -7.9575   16.4222 C   0  0  0  0  0  0  0  0  0  0  0  0
    8.9969   -6.3552   17.9668 N   0  0  0  0  0  0  0  0  0  0  0  0
   10.6702   -3.9051   22.4070 C   0  0  0  0  0  0  0  0  0  0  0  0
   11.0625   -3.0028   18.8894 C   0  0  0  0  0  0  0  0  0  0  0  0
    5.6180   -7.9194   16.1754 O   0  0  0  0  0  0  0  0  0  0  0  0
    9.7259   -5.3080   18.4485 C   0  0  0  0  0  0  0  0  0  0  0  0
    9.4578   -5.0200   16.3036 N   0  0  0  0  0  0  0  0  0  0  0  0
    5.0287   -8.9365   16.8223 C   0  0  0  0  0  0  0  0  0  0  0  0
    8.7742   -6.1498   16.6764 C   0  0  0  0  0  0  0  0  0  0  0  0
   10.9418   -3.4032   21.2053 O   0  0  0  0  0  0  0  0  0  0  0  0
    1.4797   -8.6258   16.2950 C   0  0  0  0  0  0  0  0  0  0  0  0
    9.2861   -1.2743   25.3585 C   0  0  0  0  0  0  0  0  0  0  0  0
    1.8892  -10.3985   17.7511 N   0  0  0  0  0  0  0  0  0  0  0  0
    9.6210   -0.6952   24.0976 C   0  0  0  0  0  0  0  0  0  0  0  0
    7.0792   -9.0217   17.1429 C   0  0  0  0  0  0  0  0  0  0  0  0
    3.1713  -10.1816   17.6634 C   0  0  0  0  0  0  0  0  0  0  0  0
    2.7878   -8.3822   16.2137 C   0  0  0  0  0  0  0  0  0  0  0  0
    9.4601   -2.6590   25.6528 C   0  0  0  0  0  0  0  0  0  0  0  0
   10.1182   -1.5672   23.1165 C   0  0  0  0  0  0  0  0  0  0  0  0
    1.0552   -9.6360   17.0650 C   0  0  0  0  0  0  0  0  0  0  0  0
    3.6519   -9.1783   16.9039 C   0  0  0  0  0  0  0  0  0  0  0  0
    7.8675   -7.0096   15.9415 C   0  0  0  0  0  0  0  0  0  0  0  0
    5.9733   -9.6553   17.3832 N   0  0  0  0  0  0  0  0  0  0  0  0
   10.2411   -2.9363   23.4301 C   0  0  0  0  0  0  0  0  0  0  0  0
   10.7288   -3.8197   19.9525 C   0  0  0  0  0  0  0  0  0  0  0  0
   10.1189   -5.0054   19.6987 C   0  0  0  0  0  0  0  0  0  0  0  0
  1  3  4  0
  1  7  4  0
  2 21  4  0
  2 27  4  0
  3  9  4  0
  3 10  4  0
  4  8  4  0
  4 18  4  0
  4 25  1  0
  5  9  4  0
  5 12  4  0
  6 13  1  0
  6 27  1  0
  7 28  4  0
  8 11  4  0
  9 29  4  0
 10 12  4  0
 11 24  1  0
 11 26  4  0
 12 25  1  0
 13 28  1  0
 14 20  4  0
 14 23  4  0
 15 17  4  0
 15 21  4  0
 16 19  4  0
 16 23  4  0
 17 22  4  0
 18 26  4  0
 19 24  4  0
 20 24  4  0
 22 27  4  0
 28 29  4  0
M  END
$$$$

 Created by Python create_sdf_string function

 29 33  0  0  0  0  0  0  0  0999 V2000
   10.7215   -3.3326   17.6437 C   0  0  0  0  0  0  0  0  0  0  0  0
    9.9489   -3.4675   24.6487 N   0  0  0  0  0  0  0  0  0  0  0  0
   10.0172   -4.4740   17.4101 C   0  0  0  0  0  0  0  0  0  0  0  0
    6.9051   -7.9575   16.4222 C   0  0  0  0  0  0  0  0  0  0  0  0
    8.9969   -6.3552   17.9668 N   0  0  0  0  0  0  0  0  0  0  0  0
   10.6702   -3.9051   22.4070 C   0  0  0  0  0  0  0  0  0  0  0  0
   11.0625   -3.0028   18.8894 C   0  0  0  0  0  0  0  0  0  0  0  0
    5.6180   -7.9194   16.1754 O   0  0  0  0  0  0  0  0  0  0  0  0
    9.7259   -5.3080   18.4485 C   0  0  0  0  0  0  0  0  0  0  0  0
    9.4578   -5.0200   16.3036 N   0  0  0  0  0  0  0  0  0  0  0  0
    5.0287   -8.9365   16.8223 C   0  0  0  0  0  0  0  0  0  0  0  0
    8.7742   -6.1498   16.6764 C   0  0  0  0  0  0  0  0  0  0  0  0
   10.9418   -3.4032   21.2053 O   0  0  0  0  0  0  0  0  0  0  0  0
    1.4797   -8.6258   16.2950 C   0  0  0  0  0  0  0  0  0  0  0  0
    9.2861   -1.2743   25.3585 C   0  0  0  0  0  0  0  0  0  0  0  0
    1.8892  -10.3985   17.7511 N   0  0  0  0  0  0  0  0  0  0  0  0
    9.6210   -0.6952   24.0976 C   0  0  0  0  0  0  0  0  0  0  0  0
    7.0792   -9.0217   17.1429 C   0  0  0  0  0  0  0  0  0  0  0  0
    3.1713  -10.1816   17.6634 C   0  0  0  0  0  0  0  0  0  0  0  0
    2.7878   -8.3822   16.2137 C   0  0  0  0  0  0  0  0  0  0  0  0
    9.4601   -2.6590   25.6528 C   0  0  0  0  0  0  0  0  0  0  0  0
   10.1182   -1.5672   23.1165 C   0  0  0  0  0  0  0  0  0  0  0  0
    1.0552   -9.6360   17.0650 C   0  0  0  0  0  0  0  0  0  0  0  0
    3.6519   -9.1783   16.9039 C   0  0  0  0  0  0  0  0  0  0  0  0
    7.8675   -7.0096   15.9415 C   0  0  0  0  0  0  0  0  0  0  0  0
    5.9733   -9.6553   17.3832 N   0  0  0  0  0  0  0  0  0  0  0  0
   10.2411   -2.9363   23.4301 C   0  0  0  0  0  0  0  0  0  0  0  0
   10.7288   -3.8197   19.9525 C   0  0  0  0  0  0  0  0  0  0  0  0
   10.1189   -5.0054   19.6987 C   0  0  0  0  0  0  0  0  0  0  0  0
  1  3  4  0
  1  7  4  0
  2 21  4  0
  2 27  4  0
  3  9  4  0
  3 10  4  0
  4  8  4  0
  4 18  4  0
  4 25  1  0
  5  9  4  0
  5 12  4  0
  6 13  1  0
  6 27  1  0
  7 28  4  0
  8 11  4  0
  9 29  4  0
 10 12  4  0
 11 24  1  0
 11 26  4  0
 12 25  1  0
 13 28  1  0
 14 20  4  0
 14 23  4  0
 15 17  4  0
 15 21  4  0
 16 19  4  0
 16 23  4  0
 17 22  4  0
 18 26  4  0
 19 24  4  0
 20 24  4  0
 22 27  4  0
 28 29  4  0
M  END
$$$$

 Created by Python create_sdf_string function

 29 33  0  0  0  0  0  0  0  0999 V2000
   10.7215   -3.3326   17.6437 C   0  0  0  0  0  0  0  0  0  0  0  0
    9.9489   -3.4675   24.6487 N   0  0  0  0  0  0  0  0  0  0  0  0
   10.0172   -4.4740   17.4101 C   0  0  0  0  0  0  0  0  0  0  0  0
    6.9051   -7.9575   16.4222 C   0  0  0  0  0  0  0  0  0  0  0  0
    8.9969   -6.3552   17.9668 N   0  0  0  0  0  0  0  0  0  0  0  0
   10.6702   -3.9051   22.4070 C   0  0  0  0  0  0  0  0  0  0  0  0
   11.0625   -3.0028   18.8894 C   0  0  0  0  0  0  0  0  0  0  0  0
    5.6180   -7.9194   16.1754 O   0  0  0  0  0  0  0  0  0  0  0  0
    9.7259   -5.3080   18.4485 C   0  0  0  0  0  0  0  0  0  0  0  0
    9.4578   -5.0200   16.3036 N   0  0  0  0  0  0  0  0  0  0  0  0
    5.0287   -8.9365   16.8223 C   0  0  0  0  0  0  0  0  0  0  0  0
    8.7742   -6.1498   16.6764 C   0  0  0  0  0  0  0  0  0  0  0  0
   10.9418   -3.4032   21.2053 O   0  0  0  0  0  0  0  0  0  0  0  0
    1.4797   -8.6258   16.2950 C   0  0  0  0  0  0  0  0  0  0  0  0
    9.2861   -1.2743   25.3585 C   0  0  0  0  0  0  0  0  0  0  0  0
    1.8892  -10.3985   17.7511 N   0  0  0  0  0  0  0  0  0  0  0  0
    9.6210   -0.6952   24.0976 C   0  0  0  0  0  0  0  0  0  0  0  0
    7.0792   -9.0217   17.1429 C   0  0  0  0  0  0  0  0  0  0  0  0
    3.1713  -10.1816   17.6634 C   0  0  0  0  0  0  0  0  0  0  0  0
    2.7878   -8.3822   16.2137 C   0  0  0  0  0  0  0  0  0  0  0  0
    9.4601   -2.6590   25.6528 C   0  0  0  0  0  0  0  0  0  0  0  0
   10.1182   -1.5672   23.1165 C   0  0  0  0  0  0  0  0  0  0  0  0
    1.0552   -9.6360   17.0650 C   0  0  0  0  0  0  0  0  0  0  0  0
    3.6519   -9.1783   16.9039 C   0  0  0  0  0  0  0  0  0  0  0  0
    7.8675   -7.0096   15.9415 C   0  0  0  0  0  0  0  0  0  0  0  0
    5.9733   -9.6553   17.3832 N   0  0  0  0  0  0  0  0  0  0  0  0
   10.2411   -2.9363   23.4301 C   0  0  0  0  0  0  0  0  0  0  0  0
   10.7288   -3.8197   19.9525 C   0  0  0  0  0  0  0  0  0  0  0  0
   10.1189   -5.0054   19.6987 C   0  0  0  0  0  0  0  0  0  0  0  0
  1  3  4  0
  1  7  4  0
  2 21  4  0
  2 27  4  0
  3  9  4  0
  3 10  4  0
  4  8  4  0
  4 18  4  0
  4 25  1  0
  5  9  4  0
  5 12  4  0
  6 13  1  0
  6 27  1  0
  7 28  4  0
  8 11  4  0
  9 29  4  0
 10 12  4  0
 11 24  1  0
 11 26  4  0
 12 25  1  0
 13 28  1  0
 14 20  4  0
 14 23  4  0
 15 17  4  0
 15 21  4  0
 16 19  4  0
 16 23  4  0
 17 22  4  0
 18 26  4  0
 19 24  4  0
 20 24  4  0
 22 27  4  0
 28 29  4  0
M  END
$$$$

 Created by Python create_sdf_string function

 29 33  0  0  0  0  0  0  0  0999 V2000
   10.7215   -3.3326   17.6437 C   0  0  0  0  0  0  0  0  0  0  0  0
    9.9489   -3.4675   24.6487 N   0  0  0  0  0  0  0  0  0  0  0  0
   10.0172   -4.4740   17.4101 C   0  0  0  0  0  0  0  0  0  0  0  0
    6.9051   -7.9575   16.4222 C   0  0  0  0  0  0  0  0  0  0  0  0
    8.9969   -6.3552   17.9668 N   0  0  0  0  0  0  0  0  0  0  0  0
   10.6702   -3.9051   22.4070 C   0  0  0  0  0  0  0  0  0  0  0  0
   11.0625   -3.0028   18.8894 C   0  0  0  0  0  0  0  0  0  0  0  0
    5.6180   -7.9194   16.1754 O   0  0  0  0  0  0  0  0  0  0  0  0
    9.7259   -5.3080   18.4485 C   0  0  0  0  0  0  0  0  0  0  0  0
    9.4578   -5.0200   16.3036 N   0  0  0  0  0  0  0  0  0  0  0  0
    5.0287   -8.9365   16.8223 C   0  0  0  0  0  0  0  0  0  0  0  0
    8.7742   -6.1498   16.6764 C   0  0  0  0  0  0  0  0  0  0  0  0
   10.9418   -3.4032   21.2053 O   0  0  0  0  0  0  0  0  0  0  0  0
    1.4797   -8.6258   16.2950 C   0  0  0  0  0  0  0  0  0  0  0  0
    9.2861   -1.2743   25.3585 C   0  0  0  0  0  0  0  0  0  0  0  0
    1.8892  -10.3985   17.7511 N   0  0  0  0  0  0  0  0  0  0  0  0
    9.6210   -0.6952   24.0976 C   0  0  0  0  0  0  0  0  0  0  0  0
    7.0792   -9.0217   17.1429 C   0  0  0  0  0  0  0  0  0  0  0  0
    3.1713  -10.1816   17.6634 C   0  0  0  0  0  0  0  0  0  0  0  0
    2.7878   -8.3822   16.2137 C   0  0  0  0  0  0  0  0  0  0  0  0
    9.4601   -2.6590   25.6528 C   0  0  0  0  0  0  0  0  0  0  0  0
   10.1182   -1.5672   23.1165 C   0  0  0  0  0  0  0  0  0  0  0  0
    1.0552   -9.6360   17.0650 C   0  0  0  0  0  0  0  0  0  0  0  0
    3.6519   -9.1783   16.9039 C   0  0  0  0  0  0  0  0  0  0  0  0
    7.8675   -7.0096   15.9415 C   0  0  0  0  0  0  0  0  0  0  0  0
    5.9733   -9.6553   17.3832 N   0  0  0  0  0  0  0  0  0  0  0  0
   10.2411   -2.9363   23.4301 C   0  0  0  0  0  0  0  0  0  0  0  0
   10.7288   -3.8197   19.9525 C   0  0  0  0  0  0  0  0  0  0  0  0
   10.1189   -5.0054   19.6987 C   0  0  0  0  0  0  0  0  0  0  0  0
  1  3  4  0
  1  7  4  0
  2 21  4  0
  2 27  4  0
  3  9  4  0
  3 10  4  0
  4  8  4  0
  4 18  4  0
  4 25  1  0
  5  9  4  0
  5 12  4  0
  6 13  1  0
  6 27  1  0
  7 28  4  0
  8 11  4  0
  9 29  4  0
 10 12  4  0
 11 24  1  0
 11 26  4  0
 12 25  1  0
 13 28  1  0
 14 20  4  0
 14 23  4  0
 15 17  4  0
 15 21  4  0
 16 19  4  0
 16 23  4  0
 17 22  4  0
 18 26  4  0
 19 24  4  0
 20 24  4  0
 22 27  4  0
 28 29  4  0
M  END
$$$$

 Created by Python create_sdf_string function

 29 33  0  0  0  0  0  0  0  0999 V2000
   10.7215   -3.3326   17.6437 C   0  0  0  0  0  0  0  0  0  0  0  0
    9.9489   -3.4675   24.6487 N   0  0  0  0  0  0  0  0  0  0  0  0
   10.0172   -4.4740   17.4101 C   0  0  0  0  0  0  0  0  0  0  0  0
    6.9051   -7.9575   16.4222 C   0  0  0  0  0  0  0  0  0  0  0  0
    8.9969   -6.3552   17.9668 N   0  0  0  0  0  0  0  0  0  0  0  0
   10.6702   -3.9051   22.4070 C   0  0  0  0  0  0  0  0  0  0  0  0
   11.0625   -3.0028   18.8894 C   0  0  0  0  0  0  0  0  0  0  0  0
    5.6180   -7.9194   16.1754 O   0  0  0  0  0  0  0  0  0  0  0  0
    9.7259   -5.3080   18.4485 C   0  0  0  0  0  0  0  0  0  0  0  0
    9.4578   -5.0200   16.3036 N   0  0  0  0  0  0  0  0  0  0  0  0
    5.0287   -8.9365   16.8223 C   0  0  0  0  0  0  0  0  0  0  0  0
    8.7742   -6.1498   16.6764 C   0  0  0  0  0  0  0  0  0  0  0  0
   10.9418   -3.4032   21.2053 O   0  0  0  0  0  0  0  0  0  0  0  0
    1.4797   -8.6258   16.2950 C   0  0  0  0  0  0  0  0  0  0  0  0
    9.2861   -1.2743   25.3585 C   0  0  0  0  0  0  0  0  0  0  0  0
    1.8892  -10.3985   17.7511 N   0  0  0  0  0  0  0  0  0  0  0  0
    9.6210   -0.6952   24.0976 C   0  0  0  0  0  0  0  0  0  0  0  0
    7.0792   -9.0217   17.1429 C   0  0  0  0  0  0  0  0  0  0  0  0
    3.1713  -10.1816   17.6634 C   0  0  0  0  0  0  0  0  0  0  0  0
    2.7878   -8.3822   16.2137 C   0  0  0  0  0  0  0  0  0  0  0  0
    9.4601   -2.6590   25.6528 C   0  0  0  0  0  0  0  0  0  0  0  0
   10.1182   -1.5672   23.1165 C   0  0  0  0  0  0  0  0  0  0  0  0
    1.0552   -9.6360   17.0650 C   0  0  0  0  0  0  0  0  0  0  0  0
    3.6519   -9.1783   16.9039 C   0  0  0  0  0  0  0  0  0  0  0  0
    7.8675   -7.0096   15.9415 C   0  0  0  0  0  0  0  0  0  0  0  0
    5.9733   -9.6553   17.3832 N   0  0  0  0  0  0  0  0  0  0  0  0
   10.2411   -2.9363   23.4301 C   0  0  0  0  0  0  0  0  0  0  0  0
   10.7288   -3.8197   19.9525 C   0  0  0  0  0  0  0  0  0  0  0  0
   10.1189   -5.0054   19.6987 C   0  0  0  0  0  0  0  0  0  0  0  0
  1  3  4  0
  1  7  4  0
  2 21  4  0
  2 27  4  0
  3  9  4  0
  3 10  4  0
  4  8  4  0
  4 18  4  0
  4 25  1  0
  5  9  4  0
  5 12  4  0
  6 13  1  0
  6 27  1  0
  7 28  4  0
  8 11  4  0
  9 29  4  0
 10 12  4  0
 11 24  1  0
 11 26  4  0
 12 25  1  0
 13 28  1  0
 14 20  4  0
 14 23  4  0
 15 17  4  0
 15 21  4  0
 16 19  4  0
 16 23  4  0
 17 22  4  0
 18 26  4  0
 19 24  4  0
 20 24  4  0
 22 27  4  0
 28 29  4  0
M  END
$$$$

 Created by Python create_sdf_string function

 29 33  0  0  0  0  0  0  0  0999 V2000
   10.7215   -3.3326   17.6437 C   0  0  0  0  0  0  0  0  0  0  0  0
    9.9489   -3.4675   24.6487 N   0  0  0  0  0  0  0  0  0  0  0  0
   10.0172   -4.4740   17.4101 C   0  0  0  0  0  0  0  0  0  0  0  0
    6.9051   -7.9575   16.4222 C   0  0  0  0  0  0  0  0  0  0  0  0
    8.9969   -6.3552   17.9668 N   0  0  0  0  0  0  0  0  0  0  0  0
   10.6702   -3.9051   22.4070 C   0  0  0  0  0  0  0  0  0  0  0  0
   11.0625   -3.0028   18.8894 C   0  0  0  0  0  0  0  0  0  0  0  0
    5.6180   -7.9194   16.1754 O   0  0  0  0  0  0  0  0  0  0  0  0
    9.7259   -5.3080   18.4485 C   0  0  0  0  0  0  0  0  0  0  0  0
    9.4578   -5.0200   16.3036 N   0  0  0  0  0  0  0  0  0  0  0  0
    5.0287   -8.9365   16.8223 C   0  0  0  0  0  0  0  0  0  0  0  0
    8.7742   -6.1498   16.6764 C   0  0  0  0  0  0  0  0  0  0  0  0
   10.9418   -3.4032   21.2053 O   0  0  0  0  0  0  0  0  0  0  0  0
    1.4797   -8.6258   16.2950 C   0  0  0  0  0  0  0  0  0  0  0  0
    9.2861   -1.2743   25.3585 C   0  0  0  0  0  0  0  0  0  0  0  0
    1.8892  -10.3985   17.7511 N   0  0  0  0  0  0  0  0  0  0  0  0
    9.6210   -0.6952   24.0976 C   0  0  0  0  0  0  0  0  0  0  0  0
    7.0792   -9.0217   17.1429 C   0  0  0  0  0  0  0  0  0  0  0  0
    3.1713  -10.1816   17.6634 C   0  0  0  0  0  0  0  0  0  0  0  0
    2.7878   -8.3822   16.2137 C   0  0  0  0  0  0  0  0  0  0  0  0
    9.4601   -2.6590   25.6528 C   0  0  0  0  0  0  0  0  0  0  0  0
   10.1182   -1.5672   23.1165 C   0  0  0  0  0  0  0  0  0  0  0  0
    1.0552   -9.6360   17.0650 C   0  0  0  0  0  0  0  0  0  0  0  0
    3.6519   -9.1783   16.9039 C   0  0  0  0  0  0  0  0  0  0  0  0
    7.8675   -7.0096   15.9415 C   0  0  0  0  0  0  0  0  0  0  0  0
    5.9733   -9.6553   17.3832 N   0  0  0  0  0  0  0  0  0  0  0  0
   10.2411   -2.9363   23.4301 C   0  0  0  0  0  0  0  0  0  0  0  0
   10.7288   -3.8197   19.9525 C   0  0  0  0  0  0  0  0  0  0  0  0
   10.1189   -5.0054   19.6987 C   0  0  0  0  0  0  0  0  0  0  0  0
  1  3  4  0
  1  7  4  0
  2 21  4  0
  2 27  4  0
  3  9  4  0
  3 10  4  0
  4  8  4  0
  4 18  4  0
  4 25  1  0
  5  9  4  0
  5 12  4  0
  6 13  1  0
  6 27  1  0
  7 28  4  0
  8 11  4  0
  9 29  4  0
 10 12  4  0
 11 24  1  0
 11 26  4  0
 12 25  1  0
 13 28  1  0
 14 20  4  0
 14 23  4  0
 15 17  4  0
 15 21  4  0
 16 19  4  0
 16 23  4  0
 17 22  4  0
 18 26  4  0
 19 24  4  0
 20 24  4  0
 22 27  4  0
 28 29  4  0
M  END
$$$$

 Created by Python create_sdf_string function

 29 33  0  0  0  0  0  0  0  0999 V2000
   10.7215   -3.3326   17.6437 C   0  0  0  0  0  0  0  0  0  0  0  0
    9.9489   -3.4675   24.6487 N   0  0  0  0  0  0  0  0  0  0  0  0
   10.0172   -4.4740   17.4101 C   0  0  0  0  0  0  0  0  0  0  0  0
    6.9051   -7.9575   16.4222 C   0  0  0  0  0  0  0  0  0  0  0  0
    8.9969   -6.3552   17.9668 N   0  0  0  0  0  0  0  0  0  0  0  0
   10.6702   -3.9051   22.4070 C   0  0  0  0  0  0  0  0  0  0  0  0
   11.0625   -3.0028   18.8894 C   0  0  0  0  0  0  0  0  0  0  0  0
    5.6180   -7.9194   16.1754 O   0  0  0  0  0  0  0  0  0  0  0  0
    9.7259   -5.3080   18.4485 C   0  0  0  0  0  0  0  0  0  0  0  0
    9.4578   -5.0200   16.3036 N   0  0  0  0  0  0  0  0  0  0  0  0
    5.0287   -8.9365   16.8223 C   0  0  0  0  0  0  0  0  0  0  0  0
    8.7742   -6.1498   16.6764 C   0  0  0  0  0  0  0  0  0  0  0  0
   10.9418   -3.4032   21.2053 O   0  0  0  0  0  0  0  0  0  0  0  0
    1.4797   -8.6258   16.2950 C   0  0  0  0  0  0  0  0  0  0  0  0
    9.2861   -1.2743   25.3585 C   0  0  0  0  0  0  0  0  0  0  0  0
    1.8892  -10.3985   17.7511 N   0  0  0  0  0  0  0  0  0  0  0  0
    9.6210   -0.6952   24.0976 C   0  0  0  0  0  0  0  0  0  0  0  0
    7.0792   -9.0217   17.1429 C   0  0  0  0  0  0  0  0  0  0  0  0
    3.1713  -10.1816   17.6634 C   0  0  0  0  0  0  0  0  0  0  0  0
    2.7878   -8.3822   16.2137 C   0  0  0  0  0  0  0  0  0  0  0  0
    9.4601   -2.6590   25.6528 C   0  0  0  0  0  0  0  0  0  0  0  0
   10.1182   -1.5672   23.1165 C   0  0  0  0  0  0  0  0  0  0  0  0
    1.0552   -9.6360   17.0650 C   0  0  0  0  0  0  0  0  0  0  0  0
    3.6519   -9.1783   16.9039 C   0  0  0  0  0  0  0  0  0  0  0  0
    7.8675   -7.0096   15.9415 C   0  0  0  0  0  0  0  0  0  0  0  0
    5.9733   -9.6553   17.3832 N   0  0  0  0  0  0  0  0  0  0  0  0
   10.2411   -2.9363   23.4301 C   0  0  0  0  0  0  0  0  0  0  0  0
   10.7288   -3.8197   19.9525 C   0  0  0  0  0  0  0  0  0  0  0  0
   10.1189   -5.0054   19.6987 C   0  0  0  0  0  0  0  0  0  0  0  0
  1  3  4  0
  1  7  4  0
  2 21  4  0
  2 27  4  0
  3  9  4  0
  3 10  4  0
  4  8  4  0
  4 18  4  0
  4 25  1  0
  5  9  4  0
  5 12  4  0
  6 13  1  0
  6 27  1  0
  7 28  4  0
  8 11  4  0
  9 29  4  0
 10 12  4  0
 11 24  1  0
 11 26  4  0
 12 25  1  0
 13 28  1  0
 14 20  4  0
 14 23  4  0
 15 17  4  0
 15 21  4  0
 16 19  4  0
 16 23  4  0
 17 22  4  0
 18 26  4  0
 19 24  4  0
 20 24  4  0
 22 27  4  0
 28 29  4  0
M  END
$$$$

 Created by Python create_sdf_string function

 29 33  0  0  0  0  0  0  0  0999 V2000
   10.7215   -3.3326   17.6437 C   0  0  0  0  0  0  0  0  0  0  0  0
    9.9489   -3.4675   24.6487 N   0  0  0  0  0  0  0  0  0  0  0  0
   10.0172   -4.4740   17.4101 C   0  0  0  0  0  0  0  0  0  0  0  0
    6.9051   -7.9575   16.4222 C   0  0  0  0  0  0  0  0  0  0  0  0
    8.9969   -6.3552   17.9668 N   0  0  0  0  0  0  0  0  0  0  0  0
   10.6702   -3.9051   22.4070 C   0  0  0  0  0  0  0  0  0  0  0  0
   11.0625   -3.0028   18.8894 C   0  0  0  0  0  0  0  0  0  0  0  0
    5.6180   -7.9194   16.1754 O   0  0  0  0  0  0  0  0  0  0  0  0
    9.7259   -5.3080   18.4485 C   0  0  0  0  0  0  0  0  0  0  0  0
    9.4578   -5.0200   16.3036 N   0  0  0  0  0  0  0  0  0  0  0  0
    5.0287   -8.9365   16.8223 C   0  0  0  0  0  0  0  0  0  0  0  0
    8.7742   -6.1498   16.6764 C   0  0  0  0  0  0  0  0  0  0  0  0
   10.9418   -3.4032   21.2053 O   0  0  0  0  0  0  0  0  0  0  0  0
    1.4797   -8.6258   16.2950 C   0  0  0  0  0  0  0  0  0  0  0  0
    9.2861   -1.2743   25.3585 C   0  0  0  0  0  0  0  0  0  0  0  0
    1.8892  -10.3985   17.7511 N   0  0  0  0  0  0  0  0  0  0  0  0
    9.6210   -0.6952   24.0976 C   0  0  0  0  0  0  0  0  0  0  0  0
    7.0792   -9.0217   17.1429 C   0  0  0  0  0  0  0  0  0  0  0  0
    3.1713  -10.1816   17.6634 C   0  0  0  0  0  0  0  0  0  0  0  0
    2.7878   -8.3822   16.2137 C   0  0  0  0  0  0  0  0  0  0  0  0
    9.4601   -2.6590   25.6528 C   0  0  0  0  0  0  0  0  0  0  0  0
   10.1182   -1.5672   23.1165 C   0  0  0  0  0  0  0  0  0  0  0  0
    1.0552   -9.6360   17.0650 C   0  0  0  0  0  0  0  0  0  0  0  0
    3.6519   -9.1783   16.9039 C   0  0  0  0  0  0  0  0  0  0  0  0
    7.8675   -7.0096   15.9415 C   0  0  0  0  0  0  0  0  0  0  0  0
    5.9733   -9.6553   17.3832 N   0  0  0  0  0  0  0  0  0  0  0  0
   10.2411   -2.9363   23.4301 C   0  0  0  0  0  0  0  0  0  0  0  0
   10.7288   -3.8197   19.9525 C   0  0  0  0  0  0  0  0  0  0  0  0
   10.1189   -5.0054   19.6987 C   0  0  0  0  0  0  0  0  0  0  0  0
  1  3  4  0
  1  7  4  0
  2 21  4  0
  2 27  4  0
  3  9  4  0
  3 10  4  0
  4  8  4  0
  4 18  4  0
  4 25  1  0
  5  9  4  0
  5 12  4  0
  6 13  1  0
  6 27  1  0
  7 28  4  0
  8 11  4  0
  9 29  4  0
 10 12  4  0
 11 24  1  0
 11 26  4  0
 12 25  1  0
 13 28  1  0
 14 20  4  0
 14 23  4  0
 15 17  4  0
 15 21  4  0
 16 19  4  0
 16 23  4  0
 17 22  4  0
 18 26  4  0
 19 24  4  0
 20 24  4  0
 22 27  4  0
 28 29  4  0
M  END
$$$$

 Created by Python create_sdf_string function

 29 33  0  0  0  0  0  0  0  0999 V2000
   10.7215   -3.3326   17.6437 C   0  0  0  0  0  0  0  0  0  0  0  0
    9.9489   -3.4675   24.6487 N   0  0  0  0  0  0  0  0  0  0  0  0
   10.0172   -4.4740   17.4101 C   0  0  0  0  0  0  0  0  0  0  0  0
    6.9051   -7.9575   16.4222 C   0  0  0  0  0  0  0  0  0  0  0  0
    8.9969   -6.3552   17.9668 N   0  0  0  0  0  0  0  0  0  0  0  0
   10.6702   -3.9051   22.4070 C   0  0  0  0  0  0  0  0  0  0  0  0
   11.0625   -3.0028   18.8894 C   0  0  0  0  0  0  0  0  0  0  0  0
    5.6180   -7.9194   16.1754 O   0  0  0  0  0  0  0  0  0  0  0  0
    9.7259   -5.3080   18.4485 C   0  0  0  0  0  0  0  0  0  0  0  0
    9.4578   -5.0200   16.3036 N   0  0  0  0  0  0  0  0  0  0  0  0
    5.0287   -8.9365   16.8223 C   0  0  0  0  0  0  0  0  0  0  0  0
    8.7742   -6.1498   16.6764 C   0  0  0  0  0  0  0  0  0  0  0  0
   10.9418   -3.4032   21.2053 O   0  0  0  0  0  0  0  0  0  0  0  0
    1.4797   -8.6258   16.2950 C   0  0  0  0  0  0  0  0  0  0  0  0
    9.2861   -1.2743   25.3585 C   0  0  0  0  0  0  0  0  0  0  0  0
    1.8892  -10.3985   17.7511 N   0  0  0  0  0  0  0  0  0  0  0  0
    9.6210   -0.6952   24.0976 C   0  0  0  0  0  0  0  0  0  0  0  0
    7.0792   -9.0217   17.1429 C   0  0  0  0  0  0  0  0  0  0  0  0
    3.1713  -10.1816   17.6634 C   0  0  0  0  0  0  0  0  0  0  0  0
    2.7878   -8.3822   16.2137 C   0  0  0  0  0  0  0  0  0  0  0  0
    9.4601   -2.6590   25.6528 C   0  0  0  0  0  0  0  0  0  0  0  0
   10.1182   -1.5672   23.1165 C   0  0  0  0  0  0  0  0  0  0  0  0
    1.0552   -9.6360   17.0650 C   0  0  0  0  0  0  0  0  0  0  0  0
    3.6519   -9.1783   16.9039 C   0  0  0  0  0  0  0  0  0  0  0  0
    7.8675   -7.0096   15.9415 C   0  0  0  0  0  0  0  0  0  0  0  0
    5.9733   -9.6553   17.3832 N   0  0  0  0  0  0  0  0  0  0  0  0
   10.2411   -2.9363   23.4301 C   0  0  0  0  0  0  0  0  0  0  0  0
   10.7288   -3.8197   19.9525 C   0  0  0  0  0  0  0  0  0  0  0  0
   10.1189   -5.0054   19.6987 C   0  0  0  0  0  0  0  0  0  0  0  0
  1  3  4  0
  1  7  4  0
  2 21  4  0
  2 27  4  0
  3  9  4  0
  3 10  4  0
  4  8  4  0
  4 18  4  0
  4 25  1  0
  5  9  4  0
  5 12  4  0
  6 13  1  0
  6 27  1  0
  7 28  4  0
  8 11  4  0
  9 29  4  0
 10 12  4  0
 11 24  1  0
 11 26  4  0
 12 25  1  0
 13 28  1  0
 14 20  4  0
 14 23  4  0
 15 17  4  0
 15 21  4  0
 16 19  4  0
 16 23  4  0
 17 22  4  0
 18 26  4  0
 19 24  4  0
 20 24  4  0
 22 27  4  0
 28 29  4  0
M  END
$$$$

 Created by Python create_sdf_string function

 29 33  0  0  0  0  0  0  0  0999 V2000
   10.7215   -3.3326   17.6437 C   0  0  0  0  0  0  0  0  0  0  0  0
    9.9489   -3.4675   24.6487 N   0  0  0  0  0  0  0  0  0  0  0  0
   10.0172   -4.4740   17.4101 C   0  0  0  0  0  0  0  0  0  0  0  0
    6.9051   -7.9575   16.4222 C   0  0  0  0  0  0  0  0  0  0  0  0
    8.9969   -6.3552   17.9668 N   0  0  0  0  0  0  0  0  0  0  0  0
   10.6702   -3.9051   22.4070 C   0  0  0  0  0  0  0  0  0  0  0  0
   11.0625   -3.0028   18.8894 C   0  0  0  0  0  0  0  0  0  0  0  0
    5.6180   -7.9194   16.1754 O   0  0  0  0  0  0  0  0  0  0  0  0
    9.7259   -5.3080   18.4485 C   0  0  0  0  0  0  0  0  0  0  0  0
    9.4578   -5.0200   16.3036 N   0  0  0  0  0  0  0  0  0  0  0  0
    5.0287   -8.9365   16.8223 C   0  0  0  0  0  0  0  0  0  0  0  0
    8.7742   -6.1498   16.6764 C   0  0  0  0  0  0  0  0  0  0  0  0
   10.9418   -3.4032   21.2053 O   0  0  0  0  0  0  0  0  0  0  0  0
    1.4797   -8.6258   16.2950 C   0  0  0  0  0  0  0  0  0  0  0  0
    9.2861   -1.2743   25.3585 C   0  0  0  0  0  0  0  0  0  0  0  0
    1.8892  -10.3985   17.7511 N   0  0  0  0  0  0  0  0  0  0  0  0
    9.6210   -0.6952   24.0976 C   0  0  0  0  0  0  0  0  0  0  0  0
    7.0792   -9.0217   17.1429 C   0  0  0  0  0  0  0  0  0  0  0  0
    3.1713  -10.1816   17.6634 C   0  0  0  0  0  0  0  0  0  0  0  0
    2.7878   -8.3822   16.2137 C   0  0  0  0  0  0  0  0  0  0  0  0
    9.4601   -2.6590   25.6528 C   0  0  0  0  0  0  0  0  0  0  0  0
   10.1182   -1.5672   23.1165 C   0  0  0  0  0  0  0  0  0  0  0  0
    1.0552   -9.6360   17.0650 C   0  0  0  0  0  0  0  0  0  0  0  0
    3.6519   -9.1783   16.9039 C   0  0  0  0  0  0  0  0  0  0  0  0
    7.8675   -7.0096   15.9415 C   0  0  0  0  0  0  0  0  0  0  0  0
    5.9733   -9.6553   17.3832 N   0  0  0  0  0  0  0  0  0  0  0  0
   10.2411   -2.9363   23.4301 C   0  0  0  0  0  0  0  0  0  0  0  0
   10.7288   -3.8197   19.9525 C   0  0  0  0  0  0  0  0  0  0  0  0
   10.1189   -5.0054   19.6987 C   0  0  0  0  0  0  0  0  0  0  0  0
  1  3  4  0
  1  7  4  0
  2 21  4  0
  2 27  4  0
  3  9  4  0
  3 10  4  0
  4  8  4  0
  4 18  4  0
  4 25  1  0
  5  9  4  0
  5 12  4  0
  6 13  1  0
  6 27  1  0
  7 28  4  0
  8 11  4  0
  9 29  4  0
 10 12  4  0
 11 24  1  0
 11 26  4  0
 12 25  1  0
 13 28  1  0
 14 20  4  0
 14 23  4  0
 15 17  4  0
 15 21  4  0
 16 19  4  0
 16 23  4  0
 17 22  4  0
 18 26  4  0
 19 24  4  0
 20 24  4  0
 22 27  4  0
 28 29  4  0
M  END
$$$$

 Created by Python create_sdf_string function

 29 33  0  0  0  0  0  0  0  0999 V2000
   10.7215   -3.3326   17.6437 C   0  0  0  0  0  0  0  0  0  0  0  0
    9.9489   -3.4675   24.6487 N   0  0  0  0  0  0  0  0  0  0  0  0
   10.0172   -4.4740   17.4101 C   0  0  0  0  0  0  0  0  0  0  0  0
    6.9051   -7.9575   16.4222 C   0  0  0  0  0  0  0  0  0  0  0  0
    8.9969   -6.3552   17.9668 N   0  0  0  0  0  0  0  0  0  0  0  0
   10.6702   -3.9051   22.4070 C   0  0  0  0  0  0  0  0  0  0  0  0
   11.0625   -3.0028   18.8894 C   0  0  0  0  0  0  0  0  0  0  0  0
    5.6180   -7.9194   16.1754 O   0  0  0  0  0  0  0  0  0  0  0  0
    9.7259   -5.3080   18.4485 C   0  0  0  0  0  0  0  0  0  0  0  0
    9.4578   -5.0200   16.3036 N   0  0  0  0  0  0  0  0  0  0  0  0
    5.0287   -8.9365   16.8223 C   0  0  0  0  0  0  0  0  0  0  0  0
    8.7742   -6.1498   16.6764 C   0  0  0  0  0  0  0  0  0  0  0  0
   10.9418   -3.4032   21.2053 O   0  0  0  0  0  0  0  0  0  0  0  0
    1.4797   -8.6258   16.2950 C   0  0  0  0  0  0  0  0  0  0  0  0
    9.2861   -1.2743   25.3585 C   0  0  0  0  0  0  0  0  0  0  0  0
    1.8892  -10.3985   17.7511 N   0  0  0  0  0  0  0  0  0  0  0  0
    9.6210   -0.6952   24.0976 C   0  0  0  0  0  0  0  0  0  0  0  0
    7.0792   -9.0217   17.1429 C   0  0  0  0  0  0  0  0  0  0  0  0
    3.1713  -10.1816   17.6634 C   0  0  0  0  0  0  0  0  0  0  0  0
    2.7878   -8.3822   16.2137 C   0  0  0  0  0  0  0  0  0  0  0  0
    9.4601   -2.6590   25.6528 C   0  0  0  0  0  0  0  0  0  0  0  0
   10.1182   -1.5672   23.1165 C   0  0  0  0  0  0  0  0  0  0  0  0
    1.0552   -9.6360   17.0650 C   0  0  0  0  0  0  0  0  0  0  0  0
    3.6519   -9.1783   16.9039 C   0  0  0  0  0  0  0  0  0  0  0  0
    7.8675   -7.0096   15.9415 C   0  0  0  0  0  0  0  0  0  0  0  0
    5.9733   -9.6553   17.3832 N   0  0  0  0  0  0  0  0  0  0  0  0
   10.2411   -2.9363   23.4301 C   0  0  0  0  0  0  0  0  0  0  0  0
   10.7288   -3.8197   19.9525 C   0  0  0  0  0  0  0  0  0  0  0  0
   10.1189   -5.0054   19.6987 C   0  0  0  0  0  0  0  0  0  0  0  0
  1  3  4  0
  1  7  4  0
  2 21  4  0
  2 27  4  0
  3  9  4  0
  3 10  4  0
  4  8  4  0
  4 18  4  0
  4 25  1  0
  5  9  4  0
  5 12  4  0
  6 13  1  0
  6 27  1  0
  7 28  4  0
  8 11  4  0
  9 29  4  0
 10 12  4  0
 11 24  1  0
 11 26  4  0
 12 25  1  0
 13 28  1  0
 14 20  4  0
 14 23  4  0
 15 17  4  0
 15 21  4  0
 16 19  4  0
 16 23  4  0
 17 22  4  0
 18 26  4  0
 19 24  4  0
 20 24  4  0
 22 27  4  0
 28 29  4  0
M  END
$$$$

 Created by Python create_sdf_string function

 29 33  0  0  0  0  0  0  0  0999 V2000
   10.7215   -3.3326   17.6437 C   0  0  0  0  0  0  0  0  0  0  0  0
    9.9489   -3.4675   24.6487 N   0  0  0  0  0  0  0  0  0  0  0  0
   10.0172   -4.4740   17.4101 C   0  0  0  0  0  0  0  0  0  0  0  0
    6.9051   -7.9575   16.4222 C   0  0  0  0  0  0  0  0  0  0  0  0
    8.9969   -6.3552   17.9668 N   0  0  0  0  0  0  0  0  0  0  0  0
   10.6702   -3.9051   22.4070 C   0  0  0  0  0  0  0  0  0  0  0  0
   11.0625   -3.0028   18.8894 C   0  0  0  0  0  0  0  0  0  0  0  0
    5.6180   -7.9194   16.1754 O   0  0  0  0  0  0  0  0  0  0  0  0
    9.7259   -5.3080   18.4485 C   0  0  0  0  0  0  0  0  0  0  0  0
    9.4578   -5.0200   16.3036 N   0  0  0  0  0  0  0  0  0  0  0  0
    5.0287   -8.9365   16.8223 C   0  0  0  0  0  0  0  0  0  0  0  0
    8.7742   -6.1498   16.6764 C   0  0  0  0  0  0  0  0  0  0  0  0
   10.9418   -3.4032   21.2053 O   0  0  0  0  0  0  0  0  0  0  0  0
    1.4797   -8.6258   16.2950 C   0  0  0  0  0  0  0  0  0  0  0  0
    9.2861   -1.2743   25.3585 C   0  0  0  0  0  0  0  0  0  0  0  0
    1.8892  -10.3985   17.7511 N   0  0  0  0  0  0  0  0  0  0  0  0
    9.6210   -0.6952   24.0976 C   0  0  0  0  0  0  0  0  0  0  0  0
    7.0792   -9.0217   17.1429 C   0  0  0  0  0  0  0  0  0  0  0  0
    3.1713  -10.1816   17.6634 C   0  0  0  0  0  0  0  0  0  0  0  0
    2.7878   -8.3822   16.2137 C   0  0  0  0  0  0  0  0  0  0  0  0
    9.4601   -2.6590   25.6528 C   0  0  0  0  0  0  0  0  0  0  0  0
   10.1182   -1.5672   23.1165 C   0  0  0  0  0  0  0  0  0  0  0  0
    1.0552   -9.6360   17.0650 C   0  0  0  0  0  0  0  0  0  0  0  0
    3.6519   -9.1783   16.9039 C   0  0  0  0  0  0  0  0  0  0  0  0
    7.8675   -7.0096   15.9415 C   0  0  0  0  0  0  0  0  0  0  0  0
    5.9733   -9.6553   17.3832 N   0  0  0  0  0  0  0  0  0  0  0  0
   10.2411   -2.9363   23.4301 C   0  0  0  0  0  0  0  0  0  0  0  0
   10.7288   -3.8197   19.9525 C   0  0  0  0  0  0  0  0  0  0  0  0
   10.1189   -5.0054   19.6987 C   0  0  0  0  0  0  0  0  0  0  0  0
  1  3  4  0
  1  7  4  0
  2 21  4  0
  2 27  4  0
  3  9  4  0
  3 10  4  0
  4  8  4  0
  4 18  4  0
  4 25  1  0
  5  9  4  0
  5 12  4  0
  6 13  1  0
  6 27  1  0
  7 28  4  0
  8 11  4  0
  9 29  4  0
 10 12  4  0
 11 24  1  0
 11 26  4  0
 12 25  1  0
 13 28  1  0
 14 20  4  0
 14 23  4  0
 15 17  4  0
 15 21  4  0
 16 19  4  0
 16 23  4  0
 17 22  4  0
 18 26  4  0
 19 24  4  0
 20 24  4  0
 22 27  4  0
 28 29  4  0
M  END
$$$$

 Created by Python create_sdf_string function

 29 33  0  0  0  0  0  0  0  0999 V2000
   10.7215   -3.3326   17.6437 C   0  0  0  0  0  0  0  0  0  0  0  0
    9.9489   -3.4675   24.6487 N   0  0  0  0  0  0  0  0  0  0  0  0
   10.0172   -4.4740   17.4101 C   0  0  0  0  0  0  0  0  0  0  0  0
    6.9051   -7.9575   16.4222 C   0  0  0  0  0  0  0  0  0  0  0  0
    8.9969   -6.3552   17.9668 N   0  0  0  0  0  0  0  0  0  0  0  0
   10.6702   -3.9051   22.4070 C   0  0  0  0  0  0  0  0  0  0  0  0
   11.0625   -3.0028   18.8894 C   0  0  0  0  0  0  0  0  0  0  0  0
    5.6180   -7.9194   16.1754 O   0  0  0  0  0  0  0  0  0  0  0  0
    9.7259   -5.3080   18.4485 C   0  0  0  0  0  0  0  0  0  0  0  0
    9.4578   -5.0200   16.3036 N   0  0  0  0  0  0  0  0  0  0  0  0
    5.0287   -8.9365   16.8223 C   0  0  0  0  0  0  0  0  0  0  0  0
    8.7742   -6.1498   16.6764 C   0  0  0  0  0  0  0  0  0  0  0  0
   10.9418   -3.4032   21.2053 O   0  0  0  0  0  0  0  0  0  0  0  0
    1.4797   -8.6258   16.2950 C   0  0  0  0  0  0  0  0  0  0  0  0
    9.2861   -1.2743   25.3585 C   0  0  0  0  0  0  0  0  0  0  0  0
    1.8892  -10.3985   17.7511 N   0  0  0  0  0  0  0  0  0  0  0  0
    9.6210   -0.6952   24.0976 C   0  0  0  0  0  0  0  0  0  0  0  0
    7.0792   -9.0217   17.1429 C   0  0  0  0  0  0  0  0  0  0  0  0
    3.1713  -10.1816   17.6634 C   0  0  0  0  0  0  0  0  0  0  0  0
    2.7878   -8.3822   16.2137 C   0  0  0  0  0  0  0  0  0  0  0  0
    9.4601   -2.6590   25.6528 C   0  0  0  0  0  0  0  0  0  0  0  0
   10.1182   -1.5672   23.1165 C   0  0  0  0  0  0  0  0  0  0  0  0
    1.0552   -9.6360   17.0650 C   0  0  0  0  0  0  0  0  0  0  0  0
    3.6519   -9.1783   16.9039 C   0  0  0  0  0  0  0  0  0  0  0  0
    7.8675   -7.0096   15.9415 C   0  0  0  0  0  0  0  0  0  0  0  0
    5.9733   -9.6553   17.3832 N   0  0  0  0  0  0  0  0  0  0  0  0
   10.2411   -2.9363   23.4301 C   0  0  0  0  0  0  0  0  0  0  0  0
   10.7288   -3.8197   19.9525 C   0  0  0  0  0  0  0  0  0  0  0  0
   10.1189   -5.0054   19.6987 C   0  0  0  0  0  0  0  0  0  0  0  0
  1  3  4  0
  1  7  4  0
  2 21  4  0
  2 27  4  0
  3  9  4  0
  3 10  4  0
  4  8  4  0
  4 18  4  0
  4 25  1  0
  5  9  4  0
  5 12  4  0
  6 13  1  0
  6 27  1  0
  7 28  4  0
  8 11  4  0
  9 29  4  0
 10 12  4  0
 11 24  1  0
 11 26  4  0
 12 25  1  0
 13 28  1  0
 14 20  4  0
 14 23  4  0
 15 17  4  0
 15 21  4  0
 16 19  4  0
 16 23  4  0
 17 22  4  0
 18 26  4  0
 19 24  4  0
 20 24  4  0
 22 27  4  0
 28 29  4  0
M  END
$$$$

 Created by Python create_sdf_string function

 29 33  0  0  0  0  0  0  0  0999 V2000
   10.7215   -3.3326   17.6437 C   0  0  0  0  0  0  0  0  0  0  0  0
    9.9489   -3.4675   24.6487 N   0  0  0  0  0  0  0  0  0  0  0  0
   10.0172   -4.4740   17.4101 C   0  0  0  0  0  0  0  0  0  0  0  0
    6.9051   -7.9575   16.4222 C   0  0  0  0  0  0  0  0  0  0  0  0
    8.9969   -6.3552   17.9668 N   0  0  0  0  0  0  0  0  0  0  0  0
   10.6702   -3.9051   22.4070 C   0  0  0  0  0  0  0  0  0  0  0  0
   11.0625   -3.0028   18.8894 C   0  0  0  0  0  0  0  0  0  0  0  0
    5.6180   -7.9194   16.1754 O   0  0  0  0  0  0  0  0  0  0  0  0
    9.7259   -5.3080   18.4485 C   0  0  0  0  0  0  0  0  0  0  0  0
    9.4578   -5.0200   16.3036 N   0  0  0  0  0  0  0  0  0  0  0  0
    5.0287   -8.9365   16.8223 C   0  0  0  0  0  0  0  0  0  0  0  0
    8.7742   -6.1498   16.6764 C   0  0  0  0  0  0  0  0  0  0  0  0
   10.9418   -3.4032   21.2053 O   0  0  0  0  0  0  0  0  0  0  0  0
    1.4797   -8.6258   16.2950 C   0  0  0  0  0  0  0  0  0  0  0  0
    9.2861   -1.2743   25.3585 C   0  0  0  0  0  0  0  0  0  0  0  0
    1.8892  -10.3985   17.7511 N   0  0  0  0  0  0  0  0  0  0  0  0
    9.6210   -0.6952   24.0976 C   0  0  0  0  0  0  0  0  0  0  0  0
    7.0792   -9.0217   17.1429 C   0  0  0  0  0  0  0  0  0  0  0  0
    3.1713  -10.1816   17.6634 C   0  0  0  0  0  0  0  0  0  0  0  0
    2.7878   -8.3822   16.2137 C   0  0  0  0  0  0  0  0  0  0  0  0
    9.4601   -2.6590   25.6528 C   0  0  0  0  0  0  0  0  0  0  0  0
   10.1182   -1.5672   23.1165 C   0  0  0  0  0  0  0  0  0  0  0  0
    1.0552   -9.6360   17.0650 C   0  0  0  0  0  0  0  0  0  0  0  0
    3.6519   -9.1783   16.9039 C   0  0  0  0  0  0  0  0  0  0  0  0
    7.8675   -7.0096   15.9415 C   0  0  0  0  0  0  0  0  0  0  0  0
    5.9733   -9.6553   17.3832 N   0  0  0  0  0  0  0  0  0  0  0  0
   10.2411   -2.9363   23.4301 C   0  0  0  0  0  0  0  0  0  0  0  0
   10.7288   -3.8197   19.9525 C   0  0  0  0  0  0  0  0  0  0  0  0
   10.1189   -5.0054   19.6987 C   0  0  0  0  0  0  0  0  0  0  0  0
  1  3  4  0
  1  7  4  0
  2 21  4  0
  2 27  4  0
  3  9  4  0
  3 10  4  0
  4  8  4  0
  4 18  4  0
  4 25  1  0
  5  9  4  0
  5 12  4  0
  6 13  1  0
  6 27  1  0
  7 28  4  0
  8 11  4  0
  9 29  4  0
 10 12  4  0
 11 24  1  0
 11 26  4  0
 12 25  1  0
 13 28  1  0
 14 20  4  0
 14 23  4  0
 15 17  4  0
 15 21  4  0
 16 19  4  0
 16 23  4  0
 17 22  4  0
 18 26  4  0
 19 24  4  0
 20 24  4  0
 22 27  4  0
 28 29  4  0
M  END
$$$$

 Created by Python create_sdf_string function

 29 33  0  0  0  0  0  0  0  0999 V2000
   10.7215   -3.3326   17.6437 C   0  0  0  0  0  0  0  0  0  0  0  0
    9.9489   -3.4675   24.6487 N   0  0  0  0  0  0  0  0  0  0  0  0
   10.0172   -4.4740   17.4101 C   0  0  0  0  0  0  0  0  0  0  0  0
    6.9051   -7.9575   16.4222 C   0  0  0  0  0  0  0  0  0  0  0  0
    8.9969   -6.3552   17.9668 N   0  0  0  0  0  0  0  0  0  0  0  0
   10.6702   -3.9051   22.4070 C   0  0  0  0  0  0  0  0  0  0  0  0
   11.0625   -3.0028   18.8894 C   0  0  0  0  0  0  0  0  0  0  0  0
    5.6180   -7.9194   16.1754 O   0  0  0  0  0  0  0  0  0  0  0  0
    9.7259   -5.3080   18.4485 C   0  0  0  0  0  0  0  0  0  0  0  0
    9.4578   -5.0200   16.3036 N   0  0  0  0  0  0  0  0  0  0  0  0
    5.0287   -8.9365   16.8223 C   0  0  0  0  0  0  0  0  0  0  0  0
    8.7742   -6.1498   16.6764 C   0  0  0  0  0  0  0  0  0  0  0  0
   10.9418   -3.4032   21.2053 O   0  0  0  0  0  0  0  0  0  0  0  0
    1.4797   -8.6258   16.2950 C   0  0  0  0  0  0  0  0  0  0  0  0
    9.2861   -1.2743   25.3585 C   0  0  0  0  0  0  0  0  0  0  0  0
    1.8892  -10.3985   17.7511 N   0  0  0  0  0  0  0  0  0  0  0  0
    9.6210   -0.6952   24.0976 C   0  0  0  0  0  0  0  0  0  0  0  0
    7.0792   -9.0217   17.1429 C   0  0  0  0  0  0  0  0  0  0  0  0
    3.1713  -10.1816   17.6634 C   0  0  0  0  0  0  0  0  0  0  0  0
    2.7878   -8.3822   16.2137 C   0  0  0  0  0  0  0  0  0  0  0  0
    9.4601   -2.6590   25.6528 C   0  0  0  0  0  0  0  0  0  0  0  0
   10.1182   -1.5672   23.1165 C   0  0  0  0  0  0  0  0  0  0  0  0
    1.0552   -9.6360   17.0650 C   0  0  0  0  0  0  0  0  0  0  0  0
    3.6519   -9.1783   16.9039 C   0  0  0  0  0  0  0  0  0  0  0  0
    7.8675   -7.0096   15.9415 C   0  0  0  0  0  0  0  0  0  0  0  0
    5.9733   -9.6553   17.3832 N   0  0  0  0  0  0  0  0  0  0  0  0
   10.2411   -2.9363   23.4301 C   0  0  0  0  0  0  0  0  0  0  0  0
   10.7288   -3.8197   19.9525 C   0  0  0  0  0  0  0  0  0  0  0  0
   10.1189   -5.0054   19.6987 C   0  0  0  0  0  0  0  0  0  0  0  0
  1  3  4  0
  1  7  4  0
  2 21  4  0
  2 27  4  0
  3  9  4  0
  3 10  4  0
  4  8  4  0
  4 18  4  0
  4 25  1  0
  5  9  4  0
  5 12  4  0
  6 13  1  0
  6 27  1  0
  7 28  4  0
  8 11  4  0
  9 29  4  0
 10 12  4  0
 11 24  1  0
 11 26  4  0
 12 25  1  0
 13 28  1  0
 14 20  4  0
 14 23  4  0
 15 17  4  0
 15 21  4  0
 16 19  4  0
 16 23  4  0
 17 22  4  0
 18 26  4  0
 19 24  4  0
 20 24  4  0
 22 27  4  0
 28 29  4  0
M  END
$$$$

 Created by Python create_sdf_string function

 29 33  0  0  0  0  0  0  0  0999 V2000
   10.7215   -3.3326   17.6437 C   0  0  0  0  0  0  0  0  0  0  0  0
    9.9489   -3.4675   24.6487 N   0  0  0  0  0  0  0  0  0  0  0  0
   10.0172   -4.4740   17.4101 C   0  0  0  0  0  0  0  0  0  0  0  0
    6.9051   -7.9575   16.4222 C   0  0  0  0  0  0  0  0  0  0  0  0
    8.9969   -6.3552   17.9668 N   0  0  0  0  0  0  0  0  0  0  0  0
   10.6702   -3.9051   22.4070 C   0  0  0  0  0  0  0  0  0  0  0  0
   11.0625   -3.0028   18.8894 C   0  0  0  0  0  0  0  0  0  0  0  0
    5.6180   -7.9194   16.1754 O   0  0  0  0  0  0  0  0  0  0  0  0
    9.7259   -5.3080   18.4485 C   0  0  0  0  0  0  0  0  0  0  0  0
    9.4578   -5.0200   16.3036 N   0  0  0  0  0  0  0  0  0  0  0  0
    5.0287   -8.9365   16.8223 C   0  0  0  0  0  0  0  0  0  0  0  0
    8.7742   -6.1498   16.6764 C   0  0  0  0  0  0  0  0  0  0  0  0
   10.9418   -3.4032   21.2053 O   0  0  0  0  0  0  0  0  0  0  0  0
    1.4797   -8.6258   16.2950 C   0  0  0  0  0  0  0  0  0  0  0  0
    9.2861   -1.2743   25.3585 C   0  0  0  0  0  0  0  0  0  0  0  0
    1.8892  -10.3985   17.7511 N   0  0  0  0  0  0  0  0  0  0  0  0
    9.6210   -0.6952   24.0976 C   0  0  0  0  0  0  0  0  0  0  0  0
    7.0792   -9.0217   17.1429 C   0  0  0  0  0  0  0  0  0  0  0  0
    3.1713  -10.1816   17.6634 C   0  0  0  0  0  0  0  0  0  0  0  0
    2.7878   -8.3822   16.2137 C   0  0  0  0  0  0  0  0  0  0  0  0
    9.4601   -2.6590   25.6528 C   0  0  0  0  0  0  0  0  0  0  0  0
   10.1182   -1.5672   23.1165 C   0  0  0  0  0  0  0  0  0  0  0  0
    1.0552   -9.6360   17.0650 C   0  0  0  0  0  0  0  0  0  0  0  0
    3.6519   -9.1783   16.9039 C   0  0  0  0  0  0  0  0  0  0  0  0
    7.8675   -7.0096   15.9415 C   0  0  0  0  0  0  0  0  0  0  0  0
    5.9733   -9.6553   17.3832 N   0  0  0  0  0  0  0  0  0  0  0  0
   10.2411   -2.9363   23.4301 C   0  0  0  0  0  0  0  0  0  0  0  0
   10.7288   -3.8197   19.9525 C   0  0  0  0  0  0  0  0  0  0  0  0
   10.1189   -5.0054   19.6987 C   0  0  0  0  0  0  0  0  0  0  0  0
  1  3  4  0
  1  7  4  0
  2 21  4  0
  2 27  4  0
  3  9  4  0
  3 10  4  0
  4  8  4  0
  4 18  4  0
  4 25  1  0
  5  9  4  0
  5 12  4  0
  6 13  1  0
  6 27  1  0
  7 28  4  0
  8 11  4  0
  9 29  4  0
 10 12  4  0
 11 24  1  0
 11 26  4  0
 12 25  1  0
 13 28  1  0
 14 20  4  0
 14 23  4  0
 15 17  4  0
 15 21  4  0
 16 19  4  0
 16 23  4  0
 17 22  4  0
 18 26  4  0
 19 24  4  0
 20 24  4  0
 22 27  4  0
 28 29  4  0
M  END
$$$$

 Created by Python create_sdf_string function

 29 33  0  0  0  0  0  0  0  0999 V2000
   10.7215   -3.3326   17.6437 C   0  0  0  0  0  0  0  0  0  0  0  0
    9.9489   -3.4675   24.6487 N   0  0  0  0  0  0  0  0  0  0  0  0
   10.0172   -4.4740   17.4101 C   0  0  0  0  0  0  0  0  0  0  0  0
    6.9051   -7.9575   16.4222 C   0  0  0  0  0  0  0  0  0  0  0  0
    8.9969   -6.3552   17.9668 N   0  0  0  0  0  0  0  0  0  0  0  0
   10.6702   -3.9051   22.4070 C   0  0  0  0  0  0  0  0  0  0  0  0
   11.0625   -3.0028   18.8894 C   0  0  0  0  0  0  0  0  0  0  0  0
    5.6180   -7.9194   16.1754 O   0  0  0  0  0  0  0  0  0  0  0  0
    9.7259   -5.3080   18.4485 C   0  0  0  0  0  0  0  0  0  0  0  0
    9.4578   -5.0200   16.3036 N   0  0  0  0  0  0  0  0  0  0  0  0
    5.0287   -8.9365   16.8223 C   0  0  0  0  0  0  0  0  0  0  0  0
    8.7742   -6.1498   16.6764 C   0  0  0  0  0  0  0  0  0  0  0  0
   10.9418   -3.4032   21.2053 O   0  0  0  0  0  0  0  0  0  0  0  0
    1.4797   -8.6258   16.2950 C   0  0  0  0  0  0  0  0  0  0  0  0
    9.2861   -1.2743   25.3585 C   0  0  0  0  0  0  0  0  0  0  0  0
    1.8892  -10.3985   17.7511 N   0  0  0  0  0  0  0  0  0  0  0  0
    9.6210   -0.6952   24.0976 C   0  0  0  0  0  0  0  0  0  0  0  0
    7.0792   -9.0217   17.1429 C   0  0  0  0  0  0  0  0  0  0  0  0
    3.1713  -10.1816   17.6634 C   0  0  0  0  0  0  0  0  0  0  0  0
    2.7878   -8.3822   16.2137 C   0  0  0  0  0  0  0  0  0  0  0  0
    9.4601   -2.6590   25.6528 C   0  0  0  0  0  0  0  0  0  0  0  0
   10.1182   -1.5672   23.1165 C   0  0  0  0  0  0  0  0  0  0  0  0
    1.0552   -9.6360   17.0650 C   0  0  0  0  0  0  0  0  0  0  0  0
    3.6519   -9.1783   16.9039 C   0  0  0  0  0  0  0  0  0  0  0  0
    7.8675   -7.0096   15.9415 C   0  0  0  0  0  0  0  0  0  0  0  0
    5.9733   -9.6553   17.3832 N   0  0  0  0  0  0  0  0  0  0  0  0
   10.2411   -2.9363   23.4301 C   0  0  0  0  0  0  0  0  0  0  0  0
   10.7288   -3.8197   19.9525 C   0  0  0  0  0  0  0  0  0  0  0  0
   10.1189   -5.0054   19.6987 C   0  0  0  0  0  0  0  0  0  0  0  0
  1  3  4  0
  1  7  4  0
  2 21  4  0
  2 27  4  0
  3  9  4  0
  3 10  4  0
  4  8  4  0
  4 18  4  0
  4 25  1  0
  5  9  4  0
  5 12  4  0
  6 13  1  0
  6 27  1  0
  7 28  4  0
  8 11  4  0
  9 29  4  0
 10 12  4  0
 11 24  1  0
 11 26  4  0
 12 25  1  0
 13 28  1  0
 14 20  4  0
 14 23  4  0
 15 17  4  0
 15 21  4  0
 16 19  4  0
 16 23  4  0
 17 22  4  0
 18 26  4  0
 19 24  4  0
 20 24  4  0
 22 27  4  0
 28 29  4  0
M  END
$$$$

 Created by Python create_sdf_string function

 29 33  0  0  0  0  0  0  0  0999 V2000
   10.7215   -3.3326   17.6437 C   0  0  0  0  0  0  0  0  0  0  0  0
    9.9489   -3.4675   24.6487 N   0  0  0  0  0  0  0  0  0  0  0  0
   10.0172   -4.4740   17.4101 C   0  0  0  0  0  0  0  0  0  0  0  0
    6.9051   -7.9575   16.4222 C   0  0  0  0  0  0  0  0  0  0  0  0
    8.9969   -6.3552   17.9668 N   0  0  0  0  0  0  0  0  0  0  0  0
   10.6702   -3.9051   22.4070 C   0  0  0  0  0  0  0  0  0  0  0  0
   11.0625   -3.0028   18.8894 C   0  0  0  0  0  0  0  0  0  0  0  0
    5.6180   -7.9194   16.1754 O   0  0  0  0  0  0  0  0  0  0  0  0
    9.7259   -5.3080   18.4485 C   0  0  0  0  0  0  0  0  0  0  0  0
    9.4578   -5.0200   16.3036 N   0  0  0  0  0  0  0  0  0  0  0  0
    5.0287   -8.9365   16.8223 C   0  0  0  0  0  0  0  0  0  0  0  0
    8.7742   -6.1498   16.6764 C   0  0  0  0  0  0  0  0  0  0  0  0
   10.9418   -3.4032   21.2053 O   0  0  0  0  0  0  0  0  0  0  0  0
    1.4797   -8.6258   16.2950 C   0  0  0  0  0  0  0  0  0  0  0  0
    9.2861   -1.2743   25.3585 C   0  0  0  0  0  0  0  0  0  0  0  0
    1.8892  -10.3985   17.7511 N   0  0  0  0  0  0  0  0  0  0  0  0
    9.6210   -0.6952   24.0976 C   0  0  0  0  0  0  0  0  0  0  0  0
    7.0792   -9.0217   17.1429 C   0  0  0  0  0  0  0  0  0  0  0  0
    3.1713  -10.1816   17.6634 C   0  0  0  0  0  0  0  0  0  0  0  0
    2.7878   -8.3822   16.2137 C   0  0  0  0  0  0  0  0  0  0  0  0
    9.4601   -2.6590   25.6528 C   0  0  0  0  0  0  0  0  0  0  0  0
   10.1182   -1.5672   23.1165 C   0  0  0  0  0  0  0  0  0  0  0  0
    1.0552   -9.6360   17.0650 C   0  0  0  0  0  0  0  0  0  0  0  0
    3.6519   -9.1783   16.9039 C   0  0  0  0  0  0  0  0  0  0  0  0
    7.8675   -7.0096   15.9415 C   0  0  0  0  0  0  0  0  0  0  0  0
    5.9733   -9.6553   17.3832 N   0  0  0  0  0  0  0  0  0  0  0  0
   10.2411   -2.9363   23.4301 C   0  0  0  0  0  0  0  0  0  0  0  0
   10.7288   -3.8197   19.9525 C   0  0  0  0  0  0  0  0  0  0  0  0
   10.1189   -5.0054   19.6987 C   0  0  0  0  0  0  0  0  0  0  0  0
  1  3  4  0
  1  7  4  0
  2 21  4  0
  2 27  4  0
  3  9  4  0
  3 10  4  0
  4  8  4  0
  4 18  4  0
  4 25  1  0
  5  9  4  0
  5 12  4  0
  6 13  1  0
  6 27  1  0
  7 28  4  0
  8 11  4  0
  9 29  4  0
 10 12  4  0
 11 24  1  0
 11 26  4  0
 12 25  1  0
 13 28  1  0
 14 20  4  0
 14 23  4  0
 15 17  4  0
 15 21  4  0
 16 19  4  0
 16 23  4  0
 17 22  4  0
 18 26  4  0
 19 24  4  0
 20 24  4  0
 22 27  4  0
 28 29  4  0
M  END
$$$$

 Created by Python create_sdf_string function

 29 33  0  0  0  0  0  0  0  0999 V2000
   10.7215   -3.3326   17.6437 C   0  0  0  0  0  0  0  0  0  0  0  0
    9.9489   -3.4675   24.6487 N   0  0  0  0  0  0  0  0  0  0  0  0
   10.0172   -4.4740   17.4101 C   0  0  0  0  0  0  0  0  0  0  0  0
    6.9051   -7.9575   16.4222 C   0  0  0  0  0  0  0  0  0  0  0  0
    8.9969   -6.3552   17.9668 N   0  0  0  0  0  0  0  0  0  0  0  0
   10.6702   -3.9051   22.4070 C   0  0  0  0  0  0  0  0  0  0  0  0
   11.0625   -3.0028   18.8894 C   0  0  0  0  0  0  0  0  0  0  0  0
    5.6180   -7.9194   16.1754 O   0  0  0  0  0  0  0  0  0  0  0  0
    9.7259   -5.3080   18.4485 C   0  0  0  0  0  0  0  0  0  0  0  0
    9.4578   -5.0200   16.3036 N   0  0  0  0  0  0  0  0  0  0  0  0
    5.0287   -8.9365   16.8223 C   0  0  0  0  0  0  0  0  0  0  0  0
    8.7742   -6.1498   16.6764 C   0  0  0  0  0  0  0  0  0  0  0  0
   10.9418   -3.4032   21.2053 O   0  0  0  0  0  0  0  0  0  0  0  0
    1.4797   -8.6258   16.2950 C   0  0  0  0  0  0  0  0  0  0  0  0
    9.2861   -1.2743   25.3585 C   0  0  0  0  0  0  0  0  0  0  0  0
    1.8892  -10.3985   17.7511 N   0  0  0  0  0  0  0  0  0  0  0  0
    9.6210   -0.6952   24.0976 C   0  0  0  0  0  0  0  0  0  0  0  0
    7.0792   -9.0217   17.1429 C   0  0  0  0  0  0  0  0  0  0  0  0
    3.1713  -10.1816   17.6634 C   0  0  0  0  0  0  0  0  0  0  0  0
    2.7878   -8.3822   16.2137 C   0  0  0  0  0  0  0  0  0  0  0  0
    9.4601   -2.6590   25.6528 C   0  0  0  0  0  0  0  0  0  0  0  0
   10.1182   -1.5672   23.1165 C   0  0  0  0  0  0  0  0  0  0  0  0
    1.0552   -9.6360   17.0650 C   0  0  0  0  0  0  0  0  0  0  0  0
    3.6519   -9.1783   16.9039 C   0  0  0  0  0  0  0  0  0  0  0  0
    7.8675   -7.0096   15.9415 C   0  0  0  0  0  0  0  0  0  0  0  0
    5.9733   -9.6553   17.3832 N   0  0  0  0  0  0  0  0  0  0  0  0
   10.2411   -2.9363   23.4301 C   0  0  0  0  0  0  0  0  0  0  0  0
   10.7288   -3.8197   19.9525 C   0  0  0  0  0  0  0  0  0  0  0  0
   10.1189   -5.0054   19.6987 C   0  0  0  0  0  0  0  0  0  0  0  0
  1  3  4  0
  1  7  4  0
  2 21  4  0
  2 27  4  0
  3  9  4  0
  3 10  4  0
  4  8  4  0
  4 18  4  0
  4 25  1  0
  5  9  4  0
  5 12  4  0
  6 13  1  0
  6 27  1  0
  7 28  4  0
  8 11  4  0
  9 29  4  0
 10 12  4  0
 11 24  1  0
 11 26  4  0
 12 25  1  0
 13 28  1  0
 14 20  4  0
 14 23  4  0
 15 17  4  0
 15 21  4  0
 16 19  4  0
 16 23  4  0
 17 22  4  0
 18 26  4  0
 19 24  4  0
 20 24  4  0
 22 27  4  0
 28 29  4  0
M  END
$$$$

 Created by Python create_sdf_string function

 29 33  0  0  0  0  0  0  0  0999 V2000
   10.7215   -3.3326   17.6437 C   0  0  0  0  0  0  0  0  0  0  0  0
    9.9489   -3.4675   24.6487 N   0  0  0  0  0  0  0  0  0  0  0  0
   10.0172   -4.4740   17.4101 C   0  0  0  0  0  0  0  0  0  0  0  0
    6.9051   -7.9575   16.4222 C   0  0  0  0  0  0  0  0  0  0  0  0
    8.9969   -6.3552   17.9668 N   0  0  0  0  0  0  0  0  0  0  0  0
   10.6702   -3.9051   22.4070 C   0  0  0  0  0  0  0  0  0  0  0  0
   11.0625   -3.0028   18.8894 C   0  0  0  0  0  0  0  0  0  0  0  0
    5.6180   -7.9194   16.1754 O   0  0  0  0  0  0  0  0  0  0  0  0
    9.7259   -5.3080   18.4485 C   0  0  0  0  0  0  0  0  0  0  0  0
    9.4578   -5.0200   16.3036 N   0  0  0  0  0  0  0  0  0  0  0  0
    5.0287   -8.9365   16.8223 C   0  0  0  0  0  0  0  0  0  0  0  0
    8.7742   -6.1498   16.6764 C   0  0  0  0  0  0  0  0  0  0  0  0
   10.9418   -3.4032   21.2053 O   0  0  0  0  0  0  0  0  0  0  0  0
    1.4797   -8.6258   16.2950 C   0  0  0  0  0  0  0  0  0  0  0  0
    9.2861   -1.2743   25.3585 C   0  0  0  0  0  0  0  0  0  0  0  0
    1.8892  -10.3985   17.7511 N   0  0  0  0  0  0  0  0  0  0  0  0
    9.6210   -0.6952   24.0976 C   0  0  0  0  0  0  0  0  0  0  0  0
    7.0792   -9.0217   17.1429 C   0  0  0  0  0  0  0  0  0  0  0  0
    3.1713  -10.1816   17.6634 C   0  0  0  0  0  0  0  0  0  0  0  0
    2.7878   -8.3822   16.2137 C   0  0  0  0  0  0  0  0  0  0  0  0
    9.4601   -2.6590   25.6528 C   0  0  0  0  0  0  0  0  0  0  0  0
   10.1182   -1.5672   23.1165 C   0  0  0  0  0  0  0  0  0  0  0  0
    1.0552   -9.6360   17.0650 C   0  0  0  0  0  0  0  0  0  0  0  0
    3.6519   -9.1783   16.9039 C   0  0  0  0  0  0  0  0  0  0  0  0
    7.8675   -7.0096   15.9415 C   0  0  0  0  0  0  0  0  0  0  0  0
    5.9733   -9.6553   17.3832 N   0  0  0  0  0  0  0  0  0  0  0  0
   10.2411   -2.9363   23.4301 C   0  0  0  0  0  0  0  0  0  0  0  0
   10.7288   -3.8197   19.9525 C   0  0  0  0  0  0  0  0  0  0  0  0
   10.1189   -5.0054   19.6987 C   0  0  0  0  0  0  0  0  0  0  0  0
  1  3  4  0
  1  7  4  0
  2 21  4  0
  2 27  4  0
  3  9  4  0
  3 10  4  0
  4  8  4  0
  4 18  4  0
  4 25  1  0
  5  9  4  0
  5 12  4  0
  6 13  1  0
  6 27  1  0
  7 28  4  0
  8 11  4  0
  9 29  4  0
 10 12  4  0
 11 24  1  0
 11 26  4  0
 12 25  1  0
 13 28  1  0
 14 20  4  0
 14 23  4  0
 15 17  4  0
 15 21  4  0
 16 19  4  0
 16 23  4  0
 17 22  4  0
 18 26  4  0
 19 24  4  0
 20 24  4  0
 22 27  4  0
 28 29  4  0
M  END
$$$$

 Created by Python create_sdf_string function

 29 33  0  0  0  0  0  0  0  0999 V2000
   10.7215   -3.3326   17.6437 C   0  0  0  0  0  0  0  0  0  0  0  0
    9.9489   -3.4675   24.6487 N   0  0  0  0  0  0  0  0  0  0  0  0
   10.0172   -4.4740   17.4101 C   0  0  0  0  0  0  0  0  0  0  0  0
    6.9051   -7.9575   16.4222 C   0  0  0  0  0  0  0  0  0  0  0  0
    8.9969   -6.3552   17.9668 N   0  0  0  0  0  0  0  0  0  0  0  0
   10.6702   -3.9051   22.4070 C   0  0  0  0  0  0  0  0  0  0  0  0
   11.0625   -3.0028   18.8894 C   0  0  0  0  0  0  0  0  0  0  0  0
    5.6180   -7.9194   16.1754 O   0  0  0  0  0  0  0  0  0  0  0  0
    9.7259   -5.3080   18.4485 C   0  0  0  0  0  0  0  0  0  0  0  0
    9.4578   -5.0200   16.3036 N   0  0  0  0  0  0  0  0  0  0  0  0
    5.0287   -8.9365   16.8223 C   0  0  0  0  0  0  0  0  0  0  0  0
    8.7742   -6.1498   16.6764 C   0  0  0  0  0  0  0  0  0  0  0  0
   10.9418   -3.4032   21.2053 O   0  0  0  0  0  0  0  0  0  0  0  0
    1.4797   -8.6258   16.2950 C   0  0  0  0  0  0  0  0  0  0  0  0
    9.2861   -1.2743   25.3585 C   0  0  0  0  0  0  0  0  0  0  0  0
    1.8892  -10.3985   17.7511 N   0  0  0  0  0  0  0  0  0  0  0  0
    9.6210   -0.6952   24.0976 C   0  0  0  0  0  0  0  0  0  0  0  0
    7.0792   -9.0217   17.1429 C   0  0  0  0  0  0  0  0  0  0  0  0
    3.1713  -10.1816   17.6634 C   0  0  0  0  0  0  0  0  0  0  0  0
    2.7878   -8.3822   16.2137 C   0  0  0  0  0  0  0  0  0  0  0  0
    9.4601   -2.6590   25.6528 C   0  0  0  0  0  0  0  0  0  0  0  0
   10.1182   -1.5672   23.1165 C   0  0  0  0  0  0  0  0  0  0  0  0
    1.0552   -9.6360   17.0650 C   0  0  0  0  0  0  0  0  0  0  0  0
    3.6519   -9.1783   16.9039 C   0  0  0  0  0  0  0  0  0  0  0  0
    7.8675   -7.0096   15.9415 C   0  0  0  0  0  0  0  0  0  0  0  0
    5.9733   -9.6553   17.3832 N   0  0  0  0  0  0  0  0  0  0  0  0
   10.2411   -2.9363   23.4301 C   0  0  0  0  0  0  0  0  0  0  0  0
   10.7288   -3.8197   19.9525 C   0  0  0  0  0  0  0  0  0  0  0  0
   10.1189   -5.0054   19.6987 C   0  0  0  0  0  0  0  0  0  0  0  0
  1  3  4  0
  1  7  4  0
  2 21  4  0
  2 27  4  0
  3  9  4  0
  3 10  4  0
  4  8  4  0
  4 18  4  0
  4 25  1  0
  5  9  4  0
  5 12  4  0
  6 13  1  0
  6 27  1  0
  7 28  4  0
  8 11  4  0
  9 29  4  0
 10 12  4  0
 11 24  1  0
 11 26  4  0
 12 25  1  0
 13 28  1  0
 14 20  4  0
 14 23  4  0
 15 17  4  0
 15 21  4  0
 16 19  4  0
 16 23  4  0
 17 22  4  0
 18 26  4  0
 19 24  4  0
 20 24  4  0
 22 27  4  0
 28 29  4  0
M  END
$$$$

 Created by Python create_sdf_string function

 29 33  0  0  0  0  0  0  0  0999 V2000
   10.7215   -3.3326   17.6437 C   0  0  0  0  0  0  0  0  0  0  0  0
    9.9489   -3.4675   24.6487 N   0  0  0  0  0  0  0  0  0  0  0  0
   10.0172   -4.4740   17.4101 C   0  0  0  0  0  0  0  0  0  0  0  0
    6.9051   -7.9575   16.4222 C   0  0  0  0  0  0  0  0  0  0  0  0
    8.9969   -6.3552   17.9668 N   0  0  0  0  0  0  0  0  0  0  0  0
   10.6702   -3.9051   22.4070 C   0  0  0  0  0  0  0  0  0  0  0  0
   11.0625   -3.0028   18.8894 C   0  0  0  0  0  0  0  0  0  0  0  0
    5.6180   -7.9194   16.1754 O   0  0  0  0  0  0  0  0  0  0  0  0
    9.7259   -5.3080   18.4485 C   0  0  0  0  0  0  0  0  0  0  0  0
    9.4578   -5.0200   16.3036 N   0  0  0  0  0  0  0  0  0  0  0  0
    5.0287   -8.9365   16.8223 C   0  0  0  0  0  0  0  0  0  0  0  0
    8.7742   -6.1498   16.6764 C   0  0  0  0  0  0  0  0  0  0  0  0
   10.9418   -3.4032   21.2053 O   0  0  0  0  0  0  0  0  0  0  0  0
    1.4797   -8.6258   16.2950 C   0  0  0  0  0  0  0  0  0  0  0  0
    9.2861   -1.2743   25.3585 C   0  0  0  0  0  0  0  0  0  0  0  0
    1.8892  -10.3985   17.7511 N   0  0  0  0  0  0  0  0  0  0  0  0
    9.6210   -0.6952   24.0976 C   0  0  0  0  0  0  0  0  0  0  0  0
    7.0792   -9.0217   17.1429 C   0  0  0  0  0  0  0  0  0  0  0  0
    3.1713  -10.1816   17.6634 C   0  0  0  0  0  0  0  0  0  0  0  0
    2.7878   -8.3822   16.2137 C   0  0  0  0  0  0  0  0  0  0  0  0
    9.4601   -2.6590   25.6528 C   0  0  0  0  0  0  0  0  0  0  0  0
   10.1182   -1.5672   23.1165 C   0  0  0  0  0  0  0  0  0  0  0  0
    1.0552   -9.6360   17.0650 C   0  0  0  0  0  0  0  0  0  0  0  0
    3.6519   -9.1783   16.9039 C   0  0  0  0  0  0  0  0  0  0  0  0
    7.8675   -7.0096   15.9415 C   0  0  0  0  0  0  0  0  0  0  0  0
    5.9733   -9.6553   17.3832 N   0  0  0  0  0  0  0  0  0  0  0  0
   10.2411   -2.9363   23.4301 C   0  0  0  0  0  0  0  0  0  0  0  0
   10.7288   -3.8197   19.9525 C   0  0  0  0  0  0  0  0  0  0  0  0
   10.1189   -5.0054   19.6987 C   0  0  0  0  0  0  0  0  0  0  0  0
  1  3  4  0
  1  7  4  0
  2 21  4  0
  2 27  4  0
  3  9  4  0
  3 10  4  0
  4  8  4  0
  4 18  4  0
  4 25  1  0
  5  9  4  0
  5 12  4  0
  6 13  1  0
  6 27  1  0
  7 28  4  0
  8 11  4  0
  9 29  4  0
 10 12  4  0
 11 24  1  0
 11 26  4  0
 12 25  1  0
 13 28  1  0
 14 20  4  0
 14 23  4  0
 15 17  4  0
 15 21  4  0
 16 19  4  0
 16 23  4  0
 17 22  4  0
 18 26  4  0
 19 24  4  0
 20 24  4  0
 22 27  4  0
 28 29  4  0
M  END
$$$$

 Created by Python create_sdf_string function

 29 33  0  0  0  0  0  0  0  0999 V2000
   10.7215   -3.3326   17.6437 C   0  0  0  0  0  0  0  0  0  0  0  0
    9.9489   -3.4675   24.6487 N   0  0  0  0  0  0  0  0  0  0  0  0
   10.0172   -4.4740   17.4101 C   0  0  0  0  0  0  0  0  0  0  0  0
    6.9051   -7.9575   16.4222 C   0  0  0  0  0  0  0  0  0  0  0  0
    8.9969   -6.3552   17.9668 N   0  0  0  0  0  0  0  0  0  0  0  0
   10.6702   -3.9051   22.4070 C   0  0  0  0  0  0  0  0  0  0  0  0
   11.0625   -3.0028   18.8894 C   0  0  0  0  0  0  0  0  0  0  0  0
    5.6180   -7.9194   16.1754 O   0  0  0  0  0  0  0  0  0  0  0  0
    9.7259   -5.3080   18.4485 C   0  0  0  0  0  0  0  0  0  0  0  0
    9.4578   -5.0200   16.3036 N   0  0  0  0  0  0  0  0  0  0  0  0
    5.0287   -8.9365   16.8223 C   0  0  0  0  0  0  0  0  0  0  0  0
    8.7742   -6.1498   16.6764 C   0  0  0  0  0  0  0  0  0  0  0  0
   10.9418   -3.4032   21.2053 O   0  0  0  0  0  0  0  0  0  0  0  0
    1.4797   -8.6258   16.2950 C   0  0  0  0  0  0  0  0  0  0  0  0
    9.2861   -1.2743   25.3585 C   0  0  0  0  0  0  0  0  0  0  0  0
    1.8892  -10.3985   17.7511 N   0  0  0  0  0  0  0  0  0  0  0  0
    9.6210   -0.6952   24.0976 C   0  0  0  0  0  0  0  0  0  0  0  0
    7.0792   -9.0217   17.1429 C   0  0  0  0  0  0  0  0  0  0  0  0
    3.1713  -10.1816   17.6634 C   0  0  0  0  0  0  0  0  0  0  0  0
    2.7878   -8.3822   16.2137 C   0  0  0  0  0  0  0  0  0  0  0  0
    9.4601   -2.6590   25.6528 C   0  0  0  0  0  0  0  0  0  0  0  0
   10.1182   -1.5672   23.1165 C   0  0  0  0  0  0  0  0  0  0  0  0
    1.0552   -9.6360   17.0650 C   0  0  0  0  0  0  0  0  0  0  0  0
    3.6519   -9.1783   16.9039 C   0  0  0  0  0  0  0  0  0  0  0  0
    7.8675   -7.0096   15.9415 C   0  0  0  0  0  0  0  0  0  0  0  0
    5.9733   -9.6553   17.3832 N   0  0  0  0  0  0  0  0  0  0  0  0
   10.2411   -2.9363   23.4301 C   0  0  0  0  0  0  0  0  0  0  0  0
   10.7288   -3.8197   19.9525 C   0  0  0  0  0  0  0  0  0  0  0  0
   10.1189   -5.0054   19.6987 C   0  0  0  0  0  0  0  0  0  0  0  0
  1  3  4  0
  1  7  4  0
  2 21  4  0
  2 27  4  0
  3  9  4  0
  3 10  4  0
  4  8  4  0
  4 18  4  0
  4 25  1  0
  5  9  4  0
  5 12  4  0
  6 13  1  0
  6 27  1  0
  7 28  4  0
  8 11  4  0
  9 29  4  0
 10 12  4  0
 11 24  1  0
 11 26  4  0
 12 25  1  0
 13 28  1  0
 14 20  4  0
 14 23  4  0
 15 17  4  0
 15 21  4  0
 16 19  4  0
 16 23  4  0
 17 22  4  0
 18 26  4  0
 19 24  4  0
 20 24  4  0
 22 27  4  0
 28 29  4  0
M  END
$$$$

 Created by Python create_sdf_string function

 29 33  0  0  0  0  0  0  0  0999 V2000
   10.7215   -3.3326   17.6437 C   0  0  0  0  0  0  0  0  0  0  0  0
    9.9489   -3.4675   24.6487 N   0  0  0  0  0  0  0  0  0  0  0  0
   10.0172   -4.4740   17.4101 C   0  0  0  0  0  0  0  0  0  0  0  0
    6.9051   -7.9575   16.4222 C   0  0  0  0  0  0  0  0  0  0  0  0
    8.9969   -6.3552   17.9668 N   0  0  0  0  0  0  0  0  0  0  0  0
   10.6702   -3.9051   22.4070 C   0  0  0  0  0  0  0  0  0  0  0  0
   11.0625   -3.0028   18.8894 C   0  0  0  0  0  0  0  0  0  0  0  0
    5.6180   -7.9194   16.1754 O   0  0  0  0  0  0  0  0  0  0  0  0
    9.7259   -5.3080   18.4485 C   0  0  0  0  0  0  0  0  0  0  0  0
    9.4578   -5.0200   16.3036 N   0  0  0  0  0  0  0  0  0  0  0  0
    5.0287   -8.9365   16.8223 C   0  0  0  0  0  0  0  0  0  0  0  0
    8.7742   -6.1498   16.6764 C   0  0  0  0  0  0  0  0  0  0  0  0
   10.9418   -3.4032   21.2053 O   0  0  0  0  0  0  0  0  0  0  0  0
    1.4797   -8.6258   16.2950 C   0  0  0  0  0  0  0  0  0  0  0  0
    9.2861   -1.2743   25.3585 C   0  0  0  0  0  0  0  0  0  0  0  0
    1.8892  -10.3985   17.7511 N   0  0  0  0  0  0  0  0  0  0  0  0
    9.6210   -0.6952   24.0976 C   0  0  0  0  0  0  0  0  0  0  0  0
    7.0792   -9.0217   17.1429 C   0  0  0  0  0  0  0  0  0  0  0  0
    3.1713  -10.1816   17.6634 C   0  0  0  0  0  0  0  0  0  0  0  0
    2.7878   -8.3822   16.2137 C   0  0  0  0  0  0  0  0  0  0  0  0
    9.4601   -2.6590   25.6528 C   0  0  0  0  0  0  0  0  0  0  0  0
   10.1182   -1.5672   23.1165 C   0  0  0  0  0  0  0  0  0  0  0  0
    1.0552   -9.6360   17.0650 C   0  0  0  0  0  0  0  0  0  0  0  0
    3.6519   -9.1783   16.9039 C   0  0  0  0  0  0  0  0  0  0  0  0
    7.8675   -7.0096   15.9415 C   0  0  0  0  0  0  0  0  0  0  0  0
    5.9733   -9.6553   17.3832 N   0  0  0  0  0  0  0  0  0  0  0  0
   10.2411   -2.9363   23.4301 C   0  0  0  0  0  0  0  0  0  0  0  0
   10.7288   -3.8197   19.9525 C   0  0  0  0  0  0  0  0  0  0  0  0
   10.1189   -5.0054   19.6987 C   0  0  0  0  0  0  0  0  0  0  0  0
  1  3  4  0
  1  7  4  0
  2 21  4  0
  2 27  4  0
  3  9  4  0
  3 10  4  0
  4  8  4  0
  4 18  4  0
  4 25  1  0
  5  9  4  0
  5 12  4  0
  6 13  1  0
  6 27  1  0
  7 28  4  0
  8 11  4  0
  9 29  4  0
 10 12  4  0
 11 24  1  0
 11 26  4  0
 12 25  1  0
 13 28  1  0
 14 20  4  0
 14 23  4  0
 15 17  4  0
 15 21  4  0
 16 19  4  0
 16 23  4  0
 17 22  4  0
 18 26  4  0
 19 24  4  0
 20 24  4  0
 22 27  4  0
 28 29  4  0
M  END
$$$$

 Created by Python create_sdf_string function

 29 33  0  0  0  0  0  0  0  0999 V2000
   10.7215   -3.3326   17.6437 C   0  0  0  0  0  0  0  0  0  0  0  0
    9.9489   -3.4675   24.6487 N   0  0  0  0  0  0  0  0  0  0  0  0
   10.0172   -4.4740   17.4101 C   0  0  0  0  0  0  0  0  0  0  0  0
    6.9051   -7.9575   16.4222 C   0  0  0  0  0  0  0  0  0  0  0  0
    8.9969   -6.3552   17.9668 N   0  0  0  0  0  0  0  0  0  0  0  0
   10.6702   -3.9051   22.4070 C   0  0  0  0  0  0  0  0  0  0  0  0
   11.0625   -3.0028   18.8894 C   0  0  0  0  0  0  0  0  0  0  0  0
    5.6180   -7.9194   16.1754 O   0  0  0  0  0  0  0  0  0  0  0  0
    9.7259   -5.3080   18.4485 C   0  0  0  0  0  0  0  0  0  0  0  0
    9.4578   -5.0200   16.3036 N   0  0  0  0  0  0  0  0  0  0  0  0
    5.0287   -8.9365   16.8223 C   0  0  0  0  0  0  0  0  0  0  0  0
    8.7742   -6.1498   16.6764 C   0  0  0  0  0  0  0  0  0  0  0  0
   10.9418   -3.4032   21.2053 O   0  0  0  0  0  0  0  0  0  0  0  0
    1.4797   -8.6258   16.2950 C   0  0  0  0  0  0  0  0  0  0  0  0
    9.2861   -1.2743   25.3585 C   0  0  0  0  0  0  0  0  0  0  0  0
    1.8892  -10.3985   17.7511 N   0  0  0  0  0  0  0  0  0  0  0  0
    9.6210   -0.6952   24.0976 C   0  0  0  0  0  0  0  0  0  0  0  0
    7.0792   -9.0217   17.1429 C   0  0  0  0  0  0  0  0  0  0  0  0
    3.1713  -10.1816   17.6634 C   0  0  0  0  0  0  0  0  0  0  0  0
    2.7878   -8.3822   16.2137 C   0  0  0  0  0  0  0  0  0  0  0  0
    9.4601   -2.6590   25.6528 C   0  0  0  0  0  0  0  0  0  0  0  0
   10.1182   -1.5672   23.1165 C   0  0  0  0  0  0  0  0  0  0  0  0
    1.0552   -9.6360   17.0650 C   0  0  0  0  0  0  0  0  0  0  0  0
    3.6519   -9.1783   16.9039 C   0  0  0  0  0  0  0  0  0  0  0  0
    7.8675   -7.0096   15.9415 C   0  0  0  0  0  0  0  0  0  0  0  0
    5.9733   -9.6553   17.3832 N   0  0  0  0  0  0  0  0  0  0  0  0
   10.2411   -2.9363   23.4301 C   0  0  0  0  0  0  0  0  0  0  0  0
   10.7288   -3.8197   19.9525 C   0  0  0  0  0  0  0  0  0  0  0  0
   10.1189   -5.0054   19.6987 C   0  0  0  0  0  0  0  0  0  0  0  0
  1  3  4  0
  1  7  4  0
  2 21  4  0
  2 27  4  0
  3  9  4  0
  3 10  4  0
  4  8  4  0
  4 18  4  0
  4 25  1  0
  5  9  4  0
  5 12  4  0
  6 13  1  0
  6 27  1  0
  7 28  4  0
  8 11  4  0
  9 29  4  0
 10 12  4  0
 11 24  1  0
 11 26  4  0
 12 25  1  0
 13 28  1  0
 14 20  4  0
 14 23  4  0
 15 17  4  0
 15 21  4  0
 16 19  4  0
 16 23  4  0
 17 22  4  0
 18 26  4  0
 19 24  4  0
 20 24  4  0
 22 27  4  0
 28 29  4  0
M  END
$$$$

 Created by Python create_sdf_string function

 29 33  0  0  0  0  0  0  0  0999 V2000
   10.7215   -3.3326   17.6437 C   0  0  0  0  0  0  0  0  0  0  0  0
    9.9489   -3.4675   24.6487 N   0  0  0  0  0  0  0  0  0  0  0  0
   10.0172   -4.4740   17.4101 C   0  0  0  0  0  0  0  0  0  0  0  0
    6.9051   -7.9575   16.4222 C   0  0  0  0  0  0  0  0  0  0  0  0
    8.9969   -6.3552   17.9668 N   0  0  0  0  0  0  0  0  0  0  0  0
   10.6702   -3.9051   22.4070 C   0  0  0  0  0  0  0  0  0  0  0  0
   11.0625   -3.0028   18.8894 C   0  0  0  0  0  0  0  0  0  0  0  0
    5.6180   -7.9194   16.1754 O   0  0  0  0  0  0  0  0  0  0  0  0
    9.7259   -5.3080   18.4485 C   0  0  0  0  0  0  0  0  0  0  0  0
    9.4578   -5.0200   16.3036 N   0  0  0  0  0  0  0  0  0  0  0  0
    5.0287   -8.9365   16.8223 C   0  0  0  0  0  0  0  0  0  0  0  0
    8.7742   -6.1498   16.6764 C   0  0  0  0  0  0  0  0  0  0  0  0
   10.9418   -3.4032   21.2053 O   0  0  0  0  0  0  0  0  0  0  0  0
    1.4797   -8.6258   16.2950 C   0  0  0  0  0  0  0  0  0  0  0  0
    9.2861   -1.2743   25.3585 C   0  0  0  0  0  0  0  0  0  0  0  0
    1.8892  -10.3985   17.7511 N   0  0  0  0  0  0  0  0  0  0  0  0
    9.6210   -0.6952   24.0976 C   0  0  0  0  0  0  0  0  0  0  0  0
    7.0792   -9.0217   17.1429 C   0  0  0  0  0  0  0  0  0  0  0  0
    3.1713  -10.1816   17.6634 C   0  0  0  0  0  0  0  0  0  0  0  0
    2.7878   -8.3822   16.2137 C   0  0  0  0  0  0  0  0  0  0  0  0
    9.4601   -2.6590   25.6528 C   0  0  0  0  0  0  0  0  0  0  0  0
   10.1182   -1.5672   23.1165 C   0  0  0  0  0  0  0  0  0  0  0  0
    1.0552   -9.6360   17.0650 C   0  0  0  0  0  0  0  0  0  0  0  0
    3.6519   -9.1783   16.9039 C   0  0  0  0  0  0  0  0  0  0  0  0
    7.8675   -7.0096   15.9415 C   0  0  0  0  0  0  0  0  0  0  0  0
    5.9733   -9.6553   17.3832 N   0  0  0  0  0  0  0  0  0  0  0  0
   10.2411   -2.9363   23.4301 C   0  0  0  0  0  0  0  0  0  0  0  0
   10.7288   -3.8197   19.9525 C   0  0  0  0  0  0  0  0  0  0  0  0
   10.1189   -5.0054   19.6987 C   0  0  0  0  0  0  0  0  0  0  0  0
  1  3  4  0
  1  7  4  0
  2 21  4  0
  2 27  4  0
  3  9  4  0
  3 10  4  0
  4  8  4  0
  4 18  4  0
  4 25  1  0
  5  9  4  0
  5 12  4  0
  6 13  1  0
  6 27  1  0
  7 28  4  0
  8 11  4  0
  9 29  4  0
 10 12  4  0
 11 24  1  0
 11 26  4  0
 12 25  1  0
 13 28  1  0
 14 20  4  0
 14 23  4  0
 15 17  4  0
 15 21  4  0
 16 19  4  0
 16 23  4  0
 17 22  4  0
 18 26  4  0
 19 24  4  0
 20 24  4  0
 22 27  4  0
 28 29  4  0
M  END
$$$$

 Created by Python create_sdf_string function

 29 33  0  0  0  0  0  0  0  0999 V2000
   10.7215   -3.3326   17.6437 C   0  0  0  0  0  0  0  0  0  0  0  0
    9.9489   -3.4675   24.6487 N   0  0  0  0  0  0  0  0  0  0  0  0
   10.0172   -4.4740   17.4101 C   0  0  0  0  0  0  0  0  0  0  0  0
    6.9051   -7.9575   16.4222 C   0  0  0  0  0  0  0  0  0  0  0  0
    8.9969   -6.3552   17.9668 N   0  0  0  0  0  0  0  0  0  0  0  0
   10.6702   -3.9051   22.4070 C   0  0  0  0  0  0  0  0  0  0  0  0
   11.0625   -3.0028   18.8894 C   0  0  0  0  0  0  0  0  0  0  0  0
    5.6180   -7.9194   16.1754 O   0  0  0  0  0  0  0  0  0  0  0  0
    9.7259   -5.3080   18.4485 C   0  0  0  0  0  0  0  0  0  0  0  0
    9.4578   -5.0200   16.3036 N   0  0  0  0  0  0  0  0  0  0  0  0
    5.0287   -8.9365   16.8223 C   0  0  0  0  0  0  0  0  0  0  0  0
    8.7742   -6.1498   16.6764 C   0  0  0  0  0  0  0  0  0  0  0  0
   10.9418   -3.4032   21.2053 O   0  0  0  0  0  0  0  0  0  0  0  0
    1.4797   -8.6258   16.2950 C   0  0  0  0  0  0  0  0  0  0  0  0
    9.2861   -1.2743   25.3585 C   0  0  0  0  0  0  0  0  0  0  0  0
    1.8892  -10.3985   17.7511 N   0  0  0  0  0  0  0  0  0  0  0  0
    9.6210   -0.6952   24.0976 C   0  0  0  0  0  0  0  0  0  0  0  0
    7.0792   -9.0217   17.1429 C   0  0  0  0  0  0  0  0  0  0  0  0
    3.1713  -10.1816   17.6634 C   0  0  0  0  0  0  0  0  0  0  0  0
    2.7878   -8.3822   16.2137 C   0  0  0  0  0  0  0  0  0  0  0  0
    9.4601   -2.6590   25.6528 C   0  0  0  0  0  0  0  0  0  0  0  0
   10.1182   -1.5672   23.1165 C   0  0  0  0  0  0  0  0  0  0  0  0
    1.0552   -9.6360   17.0650 C   0  0  0  0  0  0  0  0  0  0  0  0
    3.6519   -9.1783   16.9039 C   0  0  0  0  0  0  0  0  0  0  0  0
    7.8675   -7.0096   15.9415 C   0  0  0  0  0  0  0  0  0  0  0  0
    5.9733   -9.6553   17.3832 N   0  0  0  0  0  0  0  0  0  0  0  0
   10.2411   -2.9363   23.4301 C   0  0  0  0  0  0  0  0  0  0  0  0
   10.7288   -3.8197   19.9525 C   0  0  0  0  0  0  0  0  0  0  0  0
   10.1189   -5.0054   19.6987 C   0  0  0  0  0  0  0  0  0  0  0  0
  1  3  4  0
  1  7  4  0
  2 21  4  0
  2 27  4  0
  3  9  4  0
  3 10  4  0
  4  8  4  0
  4 18  4  0
  4 25  1  0
  5  9  4  0
  5 12  4  0
  6 13  1  0
  6 27  1  0
  7 28  4  0
  8 11  4  0
  9 29  4  0
 10 12  4  0
 11 24  1  0
 11 26  4  0
 12 25  1  0
 13 28  1  0
 14 20  4  0
 14 23  4  0
 15 17  4  0
 15 21  4  0
 16 19  4  0
 16 23  4  0
 17 22  4  0
 18 26  4  0
 19 24  4  0
 20 24  4  0
 22 27  4  0
 28 29  4  0
M  END
$$$$

 Created by Python create_sdf_string function

 29 33  0  0  0  0  0  0  0  0999 V2000
   10.7215   -3.3326   17.6437 C   0  0  0  0  0  0  0  0  0  0  0  0
    9.9489   -3.4675   24.6487 N   0  0  0  0  0  0  0  0  0  0  0  0
   10.0172   -4.4740   17.4101 C   0  0  0  0  0  0  0  0  0  0  0  0
    6.9051   -7.9575   16.4222 C   0  0  0  0  0  0  0  0  0  0  0  0
    8.9969   -6.3552   17.9668 N   0  0  0  0  0  0  0  0  0  0  0  0
   10.6702   -3.9051   22.4070 C   0  0  0  0  0  0  0  0  0  0  0  0
   11.0625   -3.0028   18.8894 C   0  0  0  0  0  0  0  0  0  0  0  0
    5.6180   -7.9194   16.1754 O   0  0  0  0  0  0  0  0  0  0  0  0
    9.7259   -5.3080   18.4485 C   0  0  0  0  0  0  0  0  0  0  0  0
    9.4578   -5.0200   16.3036 N   0  0  0  0  0  0  0  0  0  0  0  0
    5.0287   -8.9365   16.8223 C   0  0  0  0  0  0  0  0  0  0  0  0
    8.7742   -6.1498   16.6764 C   0  0  0  0  0  0  0  0  0  0  0  0
   10.9418   -3.4032   21.2053 O   0  0  0  0  0  0  0  0  0  0  0  0
    1.4797   -8.6258   16.2950 C   0  0  0  0  0  0  0  0  0  0  0  0
    9.2861   -1.2743   25.3585 C   0  0  0  0  0  0  0  0  0  0  0  0
    1.8892  -10.3985   17.7511 N   0  0  0  0  0  0  0  0  0  0  0  0
    9.6210   -0.6952   24.0976 C   0  0  0  0  0  0  0  0  0  0  0  0
    7.0792   -9.0217   17.1429 C   0  0  0  0  0  0  0  0  0  0  0  0
    3.1713  -10.1816   17.6634 C   0  0  0  0  0  0  0  0  0  0  0  0
    2.7878   -8.3822   16.2137 C   0  0  0  0  0  0  0  0  0  0  0  0
    9.4601   -2.6590   25.6528 C   0  0  0  0  0  0  0  0  0  0  0  0
   10.1182   -1.5672   23.1165 C   0  0  0  0  0  0  0  0  0  0  0  0
    1.0552   -9.6360   17.0650 C   0  0  0  0  0  0  0  0  0  0  0  0
    3.6519   -9.1783   16.9039 C   0  0  0  0  0  0  0  0  0  0  0  0
    7.8675   -7.0096   15.9415 C   0  0  0  0  0  0  0  0  0  0  0  0
    5.9733   -9.6553   17.3832 N   0  0  0  0  0  0  0  0  0  0  0  0
   10.2411   -2.9363   23.4301 C   0  0  0  0  0  0  0  0  0  0  0  0
   10.7288   -3.8197   19.9525 C   0  0  0  0  0  0  0  0  0  0  0  0
   10.1189   -5.0054   19.6987 C   0  0  0  0  0  0  0  0  0  0  0  0
  1  3  4  0
  1  7  4  0
  2 21  4  0
  2 27  4  0
  3  9  4  0
  3 10  4  0
  4  8  4  0
  4 18  4  0
  4 25  1  0
  5  9  4  0
  5 12  4  0
  6 13  1  0
  6 27  1  0
  7 28  4  0
  8 11  4  0
  9 29  4  0
 10 12  4  0
 11 24  1  0
 11 26  4  0
 12 25  1  0
 13 28  1  0
 14 20  4  0
 14 23  4  0
 15 17  4  0
 15 21  4  0
 16 19  4  0
 16 23  4  0
 17 22  4  0
 18 26  4  0
 19 24  4  0
 20 24  4  0
 22 27  4  0
 28 29  4  0
M  END
$$$$

 Created by Python create_sdf_string function

 29 33  0  0  0  0  0  0  0  0999 V2000
   10.7215   -3.3326   17.6437 C   0  0  0  0  0  0  0  0  0  0  0  0
    9.9489   -3.4675   24.6487 N   0  0  0  0  0  0  0  0  0  0  0  0
   10.0172   -4.4740   17.4101 C   0  0  0  0  0  0  0  0  0  0  0  0
    6.9051   -7.9575   16.4222 C   0  0  0  0  0  0  0  0  0  0  0  0
    8.9969   -6.3552   17.9668 N   0  0  0  0  0  0  0  0  0  0  0  0
   10.6702   -3.9051   22.4070 C   0  0  0  0  0  0  0  0  0  0  0  0
   11.0625   -3.0028   18.8894 C   0  0  0  0  0  0  0  0  0  0  0  0
    5.6180   -7.9194   16.1754 O   0  0  0  0  0  0  0  0  0  0  0  0
    9.7259   -5.3080   18.4485 C   0  0  0  0  0  0  0  0  0  0  0  0
    9.4578   -5.0200   16.3036 N   0  0  0  0  0  0  0  0  0  0  0  0
    5.0287   -8.9365   16.8223 C   0  0  0  0  0  0  0  0  0  0  0  0
    8.7742   -6.1498   16.6764 C   0  0  0  0  0  0  0  0  0  0  0  0
   10.9418   -3.4032   21.2053 O   0  0  0  0  0  0  0  0  0  0  0  0
    1.4797   -8.6258   16.2950 C   0  0  0  0  0  0  0  0  0  0  0  0
    9.2861   -1.2743   25.3585 C   0  0  0  0  0  0  0  0  0  0  0  0
    1.8892  -10.3985   17.7511 N   0  0  0  0  0  0  0  0  0  0  0  0
    9.6210   -0.6952   24.0976 C   0  0  0  0  0  0  0  0  0  0  0  0
    7.0792   -9.0217   17.1429 C   0  0  0  0  0  0  0  0  0  0  0  0
    3.1713  -10.1816   17.6634 C   0  0  0  0  0  0  0  0  0  0  0  0
    2.7878   -8.3822   16.2137 C   0  0  0  0  0  0  0  0  0  0  0  0
    9.4601   -2.6590   25.6528 C   0  0  0  0  0  0  0  0  0  0  0  0
   10.1182   -1.5672   23.1165 C   0  0  0  0  0  0  0  0  0  0  0  0
    1.0552   -9.6360   17.0650 C   0  0  0  0  0  0  0  0  0  0  0  0
    3.6519   -9.1783   16.9039 C   0  0  0  0  0  0  0  0  0  0  0  0
    7.8675   -7.0096   15.9415 C   0  0  0  0  0  0  0  0  0  0  0  0
    5.9733   -9.6553   17.3832 N   0  0  0  0  0  0  0  0  0  0  0  0
   10.2411   -2.9363   23.4301 C   0  0  0  0  0  0  0  0  0  0  0  0
   10.7288   -3.8197   19.9525 C   0  0  0  0  0  0  0  0  0  0  0  0
   10.1189   -5.0054   19.6987 C   0  0  0  0  0  0  0  0  0  0  0  0
  1  3  4  0
  1  7  4  0
  2 21  4  0
  2 27  4  0
  3  9  4  0
  3 10  4  0
  4  8  4  0
  4 18  4  0
  4 25  1  0
  5  9  4  0
  5 12  4  0
  6 13  1  0
  6 27  1  0
  7 28  4  0
  8 11  4  0
  9 29  4  0
 10 12  4  0
 11 24  1  0
 11 26  4  0
 12 25  1  0
 13 28  1  0
 14 20  4  0
 14 23  4  0
 15 17  4  0
 15 21  4  0
 16 19  4  0
 16 23  4  0
 17 22  4  0
 18 26  4  0
 19 24  4  0
 20 24  4  0
 22 27  4  0
 28 29  4  0
M  END
$$$$

 Created by Python create_sdf_string function

 29 33  0  0  0  0  0  0  0  0999 V2000
   10.7215   -3.3326   17.6437 C   0  0  0  0  0  0  0  0  0  0  0  0
    9.9489   -3.4675   24.6487 N   0  0  0  0  0  0  0  0  0  0  0  0
   10.0172   -4.4740   17.4101 C   0  0  0  0  0  0  0  0  0  0  0  0
    6.9051   -7.9575   16.4222 C   0  0  0  0  0  0  0  0  0  0  0  0
    8.9969   -6.3552   17.9668 N   0  0  0  0  0  0  0  0  0  0  0  0
   10.6702   -3.9051   22.4070 C   0  0  0  0  0  0  0  0  0  0  0  0
   11.0625   -3.0028   18.8894 C   0  0  0  0  0  0  0  0  0  0  0  0
    5.6180   -7.9194   16.1754 O   0  0  0  0  0  0  0  0  0  0  0  0
    9.7259   -5.3080   18.4485 C   0  0  0  0  0  0  0  0  0  0  0  0
    9.4578   -5.0200   16.3036 N   0  0  0  0  0  0  0  0  0  0  0  0
    5.0287   -8.9365   16.8223 C   0  0  0  0  0  0  0  0  0  0  0  0
    8.7742   -6.1498   16.6764 C   0  0  0  0  0  0  0  0  0  0  0  0
   10.9418   -3.4032   21.2053 O   0  0  0  0  0  0  0  0  0  0  0  0
    1.4797   -8.6258   16.2950 C   0  0  0  0  0  0  0  0  0  0  0  0
    9.2861   -1.2743   25.3585 C   0  0  0  0  0  0  0  0  0  0  0  0
    1.8892  -10.3985   17.7511 N   0  0  0  0  0  0  0  0  0  0  0  0
    9.6210   -0.6952   24.0976 C   0  0  0  0  0  0  0  0  0  0  0  0
    7.0792   -9.0217   17.1429 C   0  0  0  0  0  0  0  0  0  0  0  0
    3.1713  -10.1816   17.6634 C   0  0  0  0  0  0  0  0  0  0  0  0
    2.7878   -8.3822   16.2137 C   0  0  0  0  0  0  0  0  0  0  0  0
    9.4601   -2.6590   25.6528 C   0  0  0  0  0  0  0  0  0  0  0  0
   10.1182   -1.5672   23.1165 C   0  0  0  0  0  0  0  0  0  0  0  0
    1.0552   -9.6360   17.0650 C   0  0  0  0  0  0  0  0  0  0  0  0
    3.6519   -9.1783   16.9039 C   0  0  0  0  0  0  0  0  0  0  0  0
    7.8675   -7.0096   15.9415 C   0  0  0  0  0  0  0  0  0  0  0  0
    5.9733   -9.6553   17.3832 N   0  0  0  0  0  0  0  0  0  0  0  0
   10.2411   -2.9363   23.4301 C   0  0  0  0  0  0  0  0  0  0  0  0
   10.7288   -3.8197   19.9525 C   0  0  0  0  0  0  0  0  0  0  0  0
   10.1189   -5.0054   19.6987 C   0  0  0  0  0  0  0  0  0  0  0  0
  1  3  4  0
  1  7  4  0
  2 21  4  0
  2 27  4  0
  3  9  4  0
  3 10  4  0
  4  8  4  0
  4 18  4  0
  4 25  1  0
  5  9  4  0
  5 12  4  0
  6 13  1  0
  6 27  1  0
  7 28  4  0
  8 11  4  0
  9 29  4  0
 10 12  4  0
 11 24  1  0
 11 26  4  0
 12 25  1  0
 13 28  1  0
 14 20  4  0
 14 23  4  0
 15 17  4  0
 15 21  4  0
 16 19  4  0
 16 23  4  0
 17 22  4  0
 18 26  4  0
 19 24  4  0
 20 24  4  0
 22 27  4  0
 28 29  4  0
M  END
$$$$

 Created by Python create_sdf_string function

 29 33  0  0  0  0  0  0  0  0999 V2000
   10.7215   -3.3326   17.6437 C   0  0  0  0  0  0  0  0  0  0  0  0
    9.9489   -3.4675   24.6487 N   0  0  0  0  0  0  0  0  0  0  0  0
   10.0172   -4.4740   17.4101 C   0  0  0  0  0  0  0  0  0  0  0  0
    6.9051   -7.9575   16.4222 C   0  0  0  0  0  0  0  0  0  0  0  0
    8.9969   -6.3552   17.9668 N   0  0  0  0  0  0  0  0  0  0  0  0
   10.6702   -3.9051   22.4070 C   0  0  0  0  0  0  0  0  0  0  0  0
   11.0625   -3.0028   18.8894 C   0  0  0  0  0  0  0  0  0  0  0  0
    5.6180   -7.9194   16.1754 O   0  0  0  0  0  0  0  0  0  0  0  0
    9.7259   -5.3080   18.4485 C   0  0  0  0  0  0  0  0  0  0  0  0
    9.4578   -5.0200   16.3036 N   0  0  0  0  0  0  0  0  0  0  0  0
    5.0287   -8.9365   16.8223 C   0  0  0  0  0  0  0  0  0  0  0  0
    8.7742   -6.1498   16.6764 C   0  0  0  0  0  0  0  0  0  0  0  0
   10.9418   -3.4032   21.2053 O   0  0  0  0  0  0  0  0  0  0  0  0
    1.4797   -8.6258   16.2950 C   0  0  0  0  0  0  0  0  0  0  0  0
    9.2861   -1.2743   25.3585 C   0  0  0  0  0  0  0  0  0  0  0  0
    1.8892  -10.3985   17.7511 N   0  0  0  0  0  0  0  0  0  0  0  0
    9.6210   -0.6952   24.0976 C   0  0  0  0  0  0  0  0  0  0  0  0
    7.0792   -9.0217   17.1429 C   0  0  0  0  0  0  0  0  0  0  0  0
    3.1713  -10.1816   17.6634 C   0  0  0  0  0  0  0  0  0  0  0  0
    2.7878   -8.3822   16.2137 C   0  0  0  0  0  0  0  0  0  0  0  0
    9.4601   -2.6590   25.6528 C   0  0  0  0  0  0  0  0  0  0  0  0
   10.1182   -1.5672   23.1165 C   0  0  0  0  0  0  0  0  0  0  0  0
    1.0552   -9.6360   17.0650 C   0  0  0  0  0  0  0  0  0  0  0  0
    3.6519   -9.1783   16.9039 C   0  0  0  0  0  0  0  0  0  0  0  0
    7.8675   -7.0096   15.9415 C   0  0  0  0  0  0  0  0  0  0  0  0
    5.9733   -9.6553   17.3832 N   0  0  0  0  0  0  0  0  0  0  0  0
   10.2411   -2.9363   23.4301 C   0  0  0  0  0  0  0  0  0  0  0  0
   10.7288   -3.8197   19.9525 C   0  0  0  0  0  0  0  0  0  0  0  0
   10.1189   -5.0054   19.6987 C   0  0  0  0  0  0  0  0  0  0  0  0
  1  3  4  0
  1  7  4  0
  2 21  4  0
  2 27  4  0
  3  9  4  0
  3 10  4  0
  4  8  4  0
  4 18  4  0
  4 25  1  0
  5  9  4  0
  5 12  4  0
  6 13  1  0
  6 27  1  0
  7 28  4  0
  8 11  4  0
  9 29  4  0
 10 12  4  0
 11 24  1  0
 11 26  4  0
 12 25  1  0
 13 28  1  0
 14 20  4  0
 14 23  4  0
 15 17  4  0
 15 21  4  0
 16 19  4  0
 16 23  4  0
 17 22  4  0
 18 26  4  0
 19 24  4  0
 20 24  4  0
 22 27  4  0
 28 29  4  0
M  END
$$$$

 Created by Python create_sdf_string function

 29 33  0  0  0  0  0  0  0  0999 V2000
   10.7215   -3.3326   17.6437 C   0  0  0  0  0  0  0  0  0  0  0  0
    9.9489   -3.4675   24.6487 N   0  0  0  0  0  0  0  0  0  0  0  0
   10.0172   -4.4740   17.4101 C   0  0  0  0  0  0  0  0  0  0  0  0
    6.9051   -7.9575   16.4222 C   0  0  0  0  0  0  0  0  0  0  0  0
    8.9969   -6.3552   17.9668 N   0  0  0  0  0  0  0  0  0  0  0  0
   10.6702   -3.9051   22.4070 C   0  0  0  0  0  0  0  0  0  0  0  0
   11.0625   -3.0028   18.8894 C   0  0  0  0  0  0  0  0  0  0  0  0
    5.6180   -7.9194   16.1754 O   0  0  0  0  0  0  0  0  0  0  0  0
    9.7259   -5.3080   18.4485 C   0  0  0  0  0  0  0  0  0  0  0  0
    9.4578   -5.0200   16.3036 N   0  0  0  0  0  0  0  0  0  0  0  0
    5.0287   -8.9365   16.8223 C   0  0  0  0  0  0  0  0  0  0  0  0
    8.7742   -6.1498   16.6764 C   0  0  0  0  0  0  0  0  0  0  0  0
   10.9418   -3.4032   21.2053 O   0  0  0  0  0  0  0  0  0  0  0  0
    1.4797   -8.6258   16.2950 C   0  0  0  0  0  0  0  0  0  0  0  0
    9.2861   -1.2743   25.3585 C   0  0  0  0  0  0  0  0  0  0  0  0
    1.8892  -10.3985   17.7511 N   0  0  0  0  0  0  0  0  0  0  0  0
    9.6210   -0.6952   24.0976 C   0  0  0  0  0  0  0  0  0  0  0  0
    7.0792   -9.0217   17.1429 C   0  0  0  0  0  0  0  0  0  0  0  0
    3.1713  -10.1816   17.6634 C   0  0  0  0  0  0  0  0  0  0  0  0
    2.7878   -8.3822   16.2137 C   0  0  0  0  0  0  0  0  0  0  0  0
    9.4601   -2.6590   25.6528 C   0  0  0  0  0  0  0  0  0  0  0  0
   10.1182   -1.5672   23.1165 C   0  0  0  0  0  0  0  0  0  0  0  0
    1.0552   -9.6360   17.0650 C   0  0  0  0  0  0  0  0  0  0  0  0
    3.6519   -9.1783   16.9039 C   0  0  0  0  0  0  0  0  0  0  0  0
    7.8675   -7.0096   15.9415 C   0  0  0  0  0  0  0  0  0  0  0  0
    5.9733   -9.6553   17.3832 N   0  0  0  0  0  0  0  0  0  0  0  0
   10.2411   -2.9363   23.4301 C   0  0  0  0  0  0  0  0  0  0  0  0
   10.7288   -3.8197   19.9525 C   0  0  0  0  0  0  0  0  0  0  0  0
   10.1189   -5.0054   19.6987 C   0  0  0  0  0  0  0  0  0  0  0  0
  1  3  4  0
  1  7  4  0
  2 21  4  0
  2 27  4  0
  3  9  4  0
  3 10  4  0
  4  8  4  0
  4 18  4  0
  4 25  1  0
  5  9  4  0
  5 12  4  0
  6 13  1  0
  6 27  1  0
  7 28  4  0
  8 11  4  0
  9 29  4  0
 10 12  4  0
 11 24  1  0
 11 26  4  0
 12 25  1  0
 13 28  1  0
 14 20  4  0
 14 23  4  0
 15 17  4  0
 15 21  4  0
 16 19  4  0
 16 23  4  0
 17 22  4  0
 18 26  4  0
 19 24  4  0
 20 24  4  0
 22 27  4  0
 28 29  4  0
M  END
$$$$

 Created by Python create_sdf_string function

 29 33  0  0  0  0  0  0  0  0999 V2000
   10.7215   -3.3326   17.6437 C   0  0  0  0  0  0  0  0  0  0  0  0
    9.9489   -3.4675   24.6487 N   0  0  0  0  0  0  0  0  0  0  0  0
   10.0172   -4.4740   17.4101 C   0  0  0  0  0  0  0  0  0  0  0  0
    6.9051   -7.9575   16.4222 C   0  0  0  0  0  0  0  0  0  0  0  0
    8.9969   -6.3552   17.9668 N   0  0  0  0  0  0  0  0  0  0  0  0
   10.6702   -3.9051   22.4070 C   0  0  0  0  0  0  0  0  0  0  0  0
   11.0625   -3.0028   18.8894 C   0  0  0  0  0  0  0  0  0  0  0  0
    5.6180   -7.9194   16.1754 O   0  0  0  0  0  0  0  0  0  0  0  0
    9.7259   -5.3080   18.4485 C   0  0  0  0  0  0  0  0  0  0  0  0
    9.4578   -5.0200   16.3036 N   0  0  0  0  0  0  0  0  0  0  0  0
    5.0287   -8.9365   16.8223 C   0  0  0  0  0  0  0  0  0  0  0  0
    8.7742   -6.1498   16.6764 C   0  0  0  0  0  0  0  0  0  0  0  0
   10.9418   -3.4032   21.2053 O   0  0  0  0  0  0  0  0  0  0  0  0
    1.4797   -8.6258   16.2950 C   0  0  0  0  0  0  0  0  0  0  0  0
    9.2861   -1.2743   25.3585 C   0  0  0  0  0  0  0  0  0  0  0  0
    1.8892  -10.3985   17.7511 N   0  0  0  0  0  0  0  0  0  0  0  0
    9.6210   -0.6952   24.0976 C   0  0  0  0  0  0  0  0  0  0  0  0
    7.0792   -9.0217   17.1429 C   0  0  0  0  0  0  0  0  0  0  0  0
    3.1713  -10.1816   17.6634 C   0  0  0  0  0  0  0  0  0  0  0  0
    2.7878   -8.3822   16.2137 C   0  0  0  0  0  0  0  0  0  0  0  0
    9.4601   -2.6590   25.6528 C   0  0  0  0  0  0  0  0  0  0  0  0
   10.1182   -1.5672   23.1165 C   0  0  0  0  0  0  0  0  0  0  0  0
    1.0552   -9.6360   17.0650 C   0  0  0  0  0  0  0  0  0  0  0  0
    3.6519   -9.1783   16.9039 C   0  0  0  0  0  0  0  0  0  0  0  0
    7.8675   -7.0096   15.9415 C   0  0  0  0  0  0  0  0  0  0  0  0
    5.9733   -9.6553   17.3832 N   0  0  0  0  0  0  0  0  0  0  0  0
   10.2411   -2.9363   23.4301 C   0  0  0  0  0  0  0  0  0  0  0  0
   10.7288   -3.8197   19.9525 C   0  0  0  0  0  0  0  0  0  0  0  0
   10.1189   -5.0054   19.6987 C   0  0  0  0  0  0  0  0  0  0  0  0
  1  3  4  0
  1  7  4  0
  2 21  4  0
  2 27  4  0
  3  9  4  0
  3 10  4  0
  4  8  4  0
  4 18  4  0
  4 25  1  0
  5  9  4  0
  5 12  4  0
  6 13  1  0
  6 27  1  0
  7 28  4  0
  8 11  4  0
  9 29  4  0
 10 12  4  0
 11 24  1  0
 11 26  4  0
 12 25  1  0
 13 28  1  0
 14 20  4  0
 14 23  4  0
 15 17  4  0
 15 21  4  0
 16 19  4  0
 16 23  4  0
 17 22  4  0
 18 26  4  0
 19 24  4  0
 20 24  4  0
 22 27  4  0
 28 29  4  0
M  END
$$$$

 Created by Python create_sdf_string function

 29 33  0  0  0  0  0  0  0  0999 V2000
   10.7215   -3.3326   17.6437 C   0  0  0  0  0  0  0  0  0  0  0  0
    9.9489   -3.4675   24.6487 N   0  0  0  0  0  0  0  0  0  0  0  0
   10.0172   -4.4740   17.4101 C   0  0  0  0  0  0  0  0  0  0  0  0
    6.9051   -7.9575   16.4222 C   0  0  0  0  0  0  0  0  0  0  0  0
    8.9969   -6.3552   17.9668 N   0  0  0  0  0  0  0  0  0  0  0  0
   10.6702   -3.9051   22.4070 C   0  0  0  0  0  0  0  0  0  0  0  0
   11.0625   -3.0028   18.8894 C   0  0  0  0  0  0  0  0  0  0  0  0
    5.6180   -7.9194   16.1754 O   0  0  0  0  0  0  0  0  0  0  0  0
    9.7259   -5.3080   18.4485 C   0  0  0  0  0  0  0  0  0  0  0  0
    9.4578   -5.0200   16.3036 N   0  0  0  0  0  0  0  0  0  0  0  0
    5.0287   -8.9365   16.8223 C   0  0  0  0  0  0  0  0  0  0  0  0
    8.7742   -6.1498   16.6764 C   0  0  0  0  0  0  0  0  0  0  0  0
   10.9418   -3.4032   21.2053 O   0  0  0  0  0  0  0  0  0  0  0  0
    1.4797   -8.6258   16.2950 C   0  0  0  0  0  0  0  0  0  0  0  0
    9.2861   -1.2743   25.3585 C   0  0  0  0  0  0  0  0  0  0  0  0
    1.8892  -10.3985   17.7511 N   0  0  0  0  0  0  0  0  0  0  0  0
    9.6210   -0.6952   24.0976 C   0  0  0  0  0  0  0  0  0  0  0  0
    7.0792   -9.0217   17.1429 C   0  0  0  0  0  0  0  0  0  0  0  0
    3.1713  -10.1816   17.6634 C   0  0  0  0  0  0  0  0  0  0  0  0
    2.7878   -8.3822   16.2137 C   0  0  0  0  0  0  0  0  0  0  0  0
    9.4601   -2.6590   25.6528 C   0  0  0  0  0  0  0  0  0  0  0  0
   10.1182   -1.5672   23.1165 C   0  0  0  0  0  0  0  0  0  0  0  0
    1.0552   -9.6360   17.0650 C   0  0  0  0  0  0  0  0  0  0  0  0
    3.6519   -9.1783   16.9039 C   0  0  0  0  0  0  0  0  0  0  0  0
    7.8675   -7.0096   15.9415 C   0  0  0  0  0  0  0  0  0  0  0  0
    5.9733   -9.6553   17.3832 N   0  0  0  0  0  0  0  0  0  0  0  0
   10.2411   -2.9363   23.4301 C   0  0  0  0  0  0  0  0  0  0  0  0
   10.7288   -3.8197   19.9525 C   0  0  0  0  0  0  0  0  0  0  0  0
   10.1189   -5.0054   19.6987 C   0  0  0  0  0  0  0  0  0  0  0  0
  1  3  4  0
  1  7  4  0
  2 21  4  0
  2 27  4  0
  3  9  4  0
  3 10  4  0
  4  8  4  0
  4 18  4  0
  4 25  1  0
  5  9  4  0
  5 12  4  0
  6 13  1  0
  6 27  1  0
  7 28  4  0
  8 11  4  0
  9 29  4  0
 10 12  4  0
 11 24  1  0
 11 26  4  0
 12 25  1  0
 13 28  1  0
 14 20  4  0
 14 23  4  0
 15 17  4  0
 15 21  4  0
 16 19  4  0
 16 23  4  0
 17 22  4  0
 18 26  4  0
 19 24  4  0
 20 24  4  0
 22 27  4  0
 28 29  4  0
M  END
$$$$

 Created by Python create_sdf_string function

 29 33  0  0  0  0  0  0  0  0999 V2000
   10.7215   -3.3326   17.6437 C   0  0  0  0  0  0  0  0  0  0  0  0
    9.9489   -3.4675   24.6487 N   0  0  0  0  0  0  0  0  0  0  0  0
   10.0172   -4.4740   17.4101 C   0  0  0  0  0  0  0  0  0  0  0  0
    6.9051   -7.9575   16.4222 C   0  0  0  0  0  0  0  0  0  0  0  0
    8.9969   -6.3552   17.9668 N   0  0  0  0  0  0  0  0  0  0  0  0
   10.6702   -3.9051   22.4070 C   0  0  0  0  0  0  0  0  0  0  0  0
   11.0625   -3.0028   18.8894 C   0  0  0  0  0  0  0  0  0  0  0  0
    5.6180   -7.9194   16.1754 O   0  0  0  0  0  0  0  0  0  0  0  0
    9.7259   -5.3080   18.4485 C   0  0  0  0  0  0  0  0  0  0  0  0
    9.4578   -5.0200   16.3036 N   0  0  0  0  0  0  0  0  0  0  0  0
    5.0287   -8.9365   16.8223 C   0  0  0  0  0  0  0  0  0  0  0  0
    8.7742   -6.1498   16.6764 C   0  0  0  0  0  0  0  0  0  0  0  0
   10.9418   -3.4032   21.2053 O   0  0  0  0  0  0  0  0  0  0  0  0
    1.4797   -8.6258   16.2950 C   0  0  0  0  0  0  0  0  0  0  0  0
    9.2861   -1.2743   25.3585 C   0  0  0  0  0  0  0  0  0  0  0  0
    1.8892  -10.3985   17.7511 N   0  0  0  0  0  0  0  0  0  0  0  0
    9.6210   -0.6952   24.0976 C   0  0  0  0  0  0  0  0  0  0  0  0
    7.0792   -9.0217   17.1429 C   0  0  0  0  0  0  0  0  0  0  0  0
    3.1713  -10.1816   17.6634 C   0  0  0  0  0  0  0  0  0  0  0  0
    2.7878   -8.3822   16.2137 C   0  0  0  0  0  0  0  0  0  0  0  0
    9.4601   -2.6590   25.6528 C   0  0  0  0  0  0  0  0  0  0  0  0
   10.1182   -1.5672   23.1165 C   0  0  0  0  0  0  0  0  0  0  0  0
    1.0552   -9.6360   17.0650 C   0  0  0  0  0  0  0  0  0  0  0  0
    3.6519   -9.1783   16.9039 C   0  0  0  0  0  0  0  0  0  0  0  0
    7.8675   -7.0096   15.9415 C   0  0  0  0  0  0  0  0  0  0  0  0
    5.9733   -9.6553   17.3832 N   0  0  0  0  0  0  0  0  0  0  0  0
   10.2411   -2.9363   23.4301 C   0  0  0  0  0  0  0  0  0  0  0  0
   10.7288   -3.8197   19.9525 C   0  0  0  0  0  0  0  0  0  0  0  0
   10.1189   -5.0054   19.6987 C   0  0  0  0  0  0  0  0  0  0  0  0
  1  3  4  0
  1  7  4  0
  2 21  4  0
  2 27  4  0
  3  9  4  0
  3 10  4  0
  4  8  4  0
  4 18  4  0
  4 25  1  0
  5  9  4  0
  5 12  4  0
  6 13  1  0
  6 27  1  0
  7 28  4  0
  8 11  4  0
  9 29  4  0
 10 12  4  0
 11 24  1  0
 11 26  4  0
 12 25  1  0
 13 28  1  0
 14 20  4  0
 14 23  4  0
 15 17  4  0
 15 21  4  0
 16 19  4  0
 16 23  4  0
 17 22  4  0
 18 26  4  0
 19 24  4  0
 20 24  4  0
 22 27  4  0
 28 29  4  0
M  END
$$$$

 Created by Python create_sdf_string function

 29 33  0  0  0  0  0  0  0  0999 V2000
   10.7215   -3.3326   17.6437 C   0  0  0  0  0  0  0  0  0  0  0  0
    9.9489   -3.4675   24.6487 N   0  0  0  0  0  0  0  0  0  0  0  0
   10.0172   -4.4740   17.4101 C   0  0  0  0  0  0  0  0  0  0  0  0
    6.9051   -7.9575   16.4222 C   0  0  0  0  0  0  0  0  0  0  0  0
    8.9969   -6.3552   17.9668 N   0  0  0  0  0  0  0  0  0  0  0  0
   10.6702   -3.9051   22.4070 C   0  0  0  0  0  0  0  0  0  0  0  0
   11.0625   -3.0028   18.8894 C   0  0  0  0  0  0  0  0  0  0  0  0
    5.6180   -7.9194   16.1754 O   0  0  0  0  0  0  0  0  0  0  0  0
    9.7259   -5.3080   18.4485 C   0  0  0  0  0  0  0  0  0  0  0  0
    9.4578   -5.0200   16.3036 N   0  0  0  0  0  0  0  0  0  0  0  0
    5.0287   -8.9365   16.8223 C   0  0  0  0  0  0  0  0  0  0  0  0
    8.7742   -6.1498   16.6764 C   0  0  0  0  0  0  0  0  0  0  0  0
   10.9418   -3.4032   21.2053 O   0  0  0  0  0  0  0  0  0  0  0  0
    1.4797   -8.6258   16.2950 C   0  0  0  0  0  0  0  0  0  0  0  0
    9.2861   -1.2743   25.3585 C   0  0  0  0  0  0  0  0  0  0  0  0
    1.8892  -10.3985   17.7511 N   0  0  0  0  0  0  0  0  0  0  0  0
    9.6210   -0.6952   24.0976 C   0  0  0  0  0  0  0  0  0  0  0  0
    7.0792   -9.0217   17.1429 C   0  0  0  0  0  0  0  0  0  0  0  0
    3.1713  -10.1816   17.6634 C   0  0  0  0  0  0  0  0  0  0  0  0
    2.7878   -8.3822   16.2137 C   0  0  0  0  0  0  0  0  0  0  0  0
    9.4601   -2.6590   25.6528 C   0  0  0  0  0  0  0  0  0  0  0  0
   10.1182   -1.5672   23.1165 C   0  0  0  0  0  0  0  0  0  0  0  0
    1.0552   -9.6360   17.0650 C   0  0  0  0  0  0  0  0  0  0  0  0
    3.6519   -9.1783   16.9039 C   0  0  0  0  0  0  0  0  0  0  0  0
    7.8675   -7.0096   15.9415 C   0  0  0  0  0  0  0  0  0  0  0  0
    5.9733   -9.6553   17.3832 N   0  0  0  0  0  0  0  0  0  0  0  0
   10.2411   -2.9363   23.4301 C   0  0  0  0  0  0  0  0  0  0  0  0
   10.7288   -3.8197   19.9525 C   0  0  0  0  0  0  0  0  0  0  0  0
   10.1189   -5.0054   19.6987 C   0  0  0  0  0  0  0  0  0  0  0  0
  1  3  4  0
  1  7  4  0
  2 21  4  0
  2 27  4  0
  3  9  4  0
  3 10  4  0
  4  8  4  0
  4 18  4  0
  4 25  1  0
  5  9  4  0
  5 12  4  0
  6 13  1  0
  6 27  1  0
  7 28  4  0
  8 11  4  0
  9 29  4  0
 10 12  4  0
 11 24  1  0
 11 26  4  0
 12 25  1  0
 13 28  1  0
 14 20  4  0
 14 23  4  0
 15 17  4  0
 15 21  4  0
 16 19  4  0
 16 23  4  0
 17 22  4  0
 18 26  4  0
 19 24  4  0
 20 24  4  0
 22 27  4  0
 28 29  4  0
M  END
$$$$

 Created by Python create_sdf_string function

 29 33  0  0  0  0  0  0  0  0999 V2000
   10.7215   -3.3326   17.6437 C   0  0  0  0  0  0  0  0  0  0  0  0
    9.9489   -3.4675   24.6487 N   0  0  0  0  0  0  0  0  0  0  0  0
   10.0172   -4.4740   17.4101 C   0  0  0  0  0  0  0  0  0  0  0  0
    6.9051   -7.9575   16.4222 C   0  0  0  0  0  0  0  0  0  0  0  0
    8.9969   -6.3552   17.9668 N   0  0  0  0  0  0  0  0  0  0  0  0
   10.6702   -3.9051   22.4070 C   0  0  0  0  0  0  0  0  0  0  0  0
   11.0625   -3.0028   18.8894 C   0  0  0  0  0  0  0  0  0  0  0  0
    5.6180   -7.9194   16.1754 O   0  0  0  0  0  0  0  0  0  0  0  0
    9.7259   -5.3080   18.4485 C   0  0  0  0  0  0  0  0  0  0  0  0
    9.4578   -5.0200   16.3036 N   0  0  0  0  0  0  0  0  0  0  0  0
    5.0287   -8.9365   16.8223 C   0  0  0  0  0  0  0  0  0  0  0  0
    8.7742   -6.1498   16.6764 C   0  0  0  0  0  0  0  0  0  0  0  0
   10.9418   -3.4032   21.2053 O   0  0  0  0  0  0  0  0  0  0  0  0
    1.4797   -8.6258   16.2950 C   0  0  0  0  0  0  0  0  0  0  0  0
    9.2861   -1.2743   25.3585 C   0  0  0  0  0  0  0  0  0  0  0  0
    1.8892  -10.3985   17.7511 N   0  0  0  0  0  0  0  0  0  0  0  0
    9.6210   -0.6952   24.0976 C   0  0  0  0  0  0  0  0  0  0  0  0
    7.0792   -9.0217   17.1429 C   0  0  0  0  0  0  0  0  0  0  0  0
    3.1713  -10.1816   17.6634 C   0  0  0  0  0  0  0  0  0  0  0  0
    2.7878   -8.3822   16.2137 C   0  0  0  0  0  0  0  0  0  0  0  0
    9.4601   -2.6590   25.6528 C   0  0  0  0  0  0  0  0  0  0  0  0
   10.1182   -1.5672   23.1165 C   0  0  0  0  0  0  0  0  0  0  0  0
    1.0552   -9.6360   17.0650 C   0  0  0  0  0  0  0  0  0  0  0  0
    3.6519   -9.1783   16.9039 C   0  0  0  0  0  0  0  0  0  0  0  0
    7.8675   -7.0096   15.9415 C   0  0  0  0  0  0  0  0  0  0  0  0
    5.9733   -9.6553   17.3832 N   0  0  0  0  0  0  0  0  0  0  0  0
   10.2411   -2.9363   23.4301 C   0  0  0  0  0  0  0  0  0  0  0  0
   10.7288   -3.8197   19.9525 C   0  0  0  0  0  0  0  0  0  0  0  0
   10.1189   -5.0054   19.6987 C   0  0  0  0  0  0  0  0  0  0  0  0
  1  3  4  0
  1  7  4  0
  2 21  4  0
  2 27  4  0
  3  9  4  0
  3 10  4  0
  4  8  4  0
  4 18  4  0
  4 25  1  0
  5  9  4  0
  5 12  4  0
  6 13  1  0
  6 27  1  0
  7 28  4  0
  8 11  4  0
  9 29  4  0
 10 12  4  0
 11 24  1  0
 11 26  4  0
 12 25  1  0
 13 28  1  0
 14 20  4  0
 14 23  4  0
 15 17  4  0
 15 21  4  0
 16 19  4  0
 16 23  4  0
 17 22  4  0
 18 26  4  0
 19 24  4  0
 20 24  4  0
 22 27  4  0
 28 29  4  0
M  END
$$$$

 Created by Python create_sdf_string function

 29 33  0  0  0  0  0  0  0  0999 V2000
   10.7215   -3.3326   17.6437 C   0  0  0  0  0  0  0  0  0  0  0  0
    9.9489   -3.4675   24.6487 N   0  0  0  0  0  0  0  0  0  0  0  0
   10.0172   -4.4740   17.4101 C   0  0  0  0  0  0  0  0  0  0  0  0
    6.9051   -7.9575   16.4222 C   0  0  0  0  0  0  0  0  0  0  0  0
    8.9969   -6.3552   17.9668 N   0  0  0  0  0  0  0  0  0  0  0  0
   10.6702   -3.9051   22.4070 C   0  0  0  0  0  0  0  0  0  0  0  0
   11.0625   -3.0028   18.8894 C   0  0  0  0  0  0  0  0  0  0  0  0
    5.6180   -7.9194   16.1754 O   0  0  0  0  0  0  0  0  0  0  0  0
    9.7259   -5.3080   18.4485 C   0  0  0  0  0  0  0  0  0  0  0  0
    9.4578   -5.0200   16.3036 N   0  0  0  0  0  0  0  0  0  0  0  0
    5.0287   -8.9365   16.8223 C   0  0  0  0  0  0  0  0  0  0  0  0
    8.7742   -6.1498   16.6764 C   0  0  0  0  0  0  0  0  0  0  0  0
   10.9418   -3.4032   21.2053 O   0  0  0  0  0  0  0  0  0  0  0  0
    1.4797   -8.6258   16.2950 C   0  0  0  0  0  0  0  0  0  0  0  0
    9.2861   -1.2743   25.3585 C   0  0  0  0  0  0  0  0  0  0  0  0
    1.8892  -10.3985   17.7511 N   0  0  0  0  0  0  0  0  0  0  0  0
    9.6210   -0.6952   24.0976 C   0  0  0  0  0  0  0  0  0  0  0  0
    7.0792   -9.0217   17.1429 C   0  0  0  0  0  0  0  0  0  0  0  0
    3.1713  -10.1816   17.6634 C   0  0  0  0  0  0  0  0  0  0  0  0
    2.7878   -8.3822   16.2137 C   0  0  0  0  0  0  0  0  0  0  0  0
    9.4601   -2.6590   25.6528 C   0  0  0  0  0  0  0  0  0  0  0  0
   10.1182   -1.5672   23.1165 C   0  0  0  0  0  0  0  0  0  0  0  0
    1.0552   -9.6360   17.0650 C   0  0  0  0  0  0  0  0  0  0  0  0
    3.6519   -9.1783   16.9039 C   0  0  0  0  0  0  0  0  0  0  0  0
    7.8675   -7.0096   15.9415 C   0  0  0  0  0  0  0  0  0  0  0  0
    5.9733   -9.6553   17.3832 N   0  0  0  0  0  0  0  0  0  0  0  0
   10.2411   -2.9363   23.4301 C   0  0  0  0  0  0  0  0  0  0  0  0
   10.7288   -3.8197   19.9525 C   0  0  0  0  0  0  0  0  0  0  0  0
   10.1189   -5.0054   19.6987 C   0  0  0  0  0  0  0  0  0  0  0  0
  1  3  4  0
  1  7  4  0
  2 21  4  0
  2 27  4  0
  3  9  4  0
  3 10  4  0
  4  8  4  0
  4 18  4  0
  4 25  1  0
  5  9  4  0
  5 12  4  0
  6 13  1  0
  6 27  1  0
  7 28  4  0
  8 11  4  0
  9 29  4  0
 10 12  4  0
 11 24  1  0
 11 26  4  0
 12 25  1  0
 13 28  1  0
 14 20  4  0
 14 23  4  0
 15 17  4  0
 15 21  4  0
 16 19  4  0
 16 23  4  0
 17 22  4  0
 18 26  4  0
 19 24  4  0
 20 24  4  0
 22 27  4  0
 28 29  4  0
M  END
$$$$

 Created by Python create_sdf_string function

 29 33  0  0  0  0  0  0  0  0999 V2000
   10.7215   -3.3326   17.6437 C   0  0  0  0  0  0  0  0  0  0  0  0
    9.9489   -3.4675   24.6487 N   0  0  0  0  0  0  0  0  0  0  0  0
   10.0172   -4.4740   17.4101 C   0  0  0  0  0  0  0  0  0  0  0  0
    6.9051   -7.9575   16.4222 C   0  0  0  0  0  0  0  0  0  0  0  0
    8.9969   -6.3552   17.9668 N   0  0  0  0  0  0  0  0  0  0  0  0
   10.6702   -3.9051   22.4070 C   0  0  0  0  0  0  0  0  0  0  0  0
   11.0625   -3.0028   18.8894 C   0  0  0  0  0  0  0  0  0  0  0  0
    5.6180   -7.9194   16.1754 O   0  0  0  0  0  0  0  0  0  0  0  0
    9.7259   -5.3080   18.4485 C   0  0  0  0  0  0  0  0  0  0  0  0
    9.4578   -5.0200   16.3036 N   0  0  0  0  0  0  0  0  0  0  0  0
    5.0287   -8.9365   16.8223 C   0  0  0  0  0  0  0  0  0  0  0  0
    8.7742   -6.1498   16.6764 C   0  0  0  0  0  0  0  0  0  0  0  0
   10.9418   -3.4032   21.2053 O   0  0  0  0  0  0  0  0  0  0  0  0
    1.4797   -8.6258   16.2950 C   0  0  0  0  0  0  0  0  0  0  0  0
    9.2861   -1.2743   25.3585 C   0  0  0  0  0  0  0  0  0  0  0  0
    1.8892  -10.3985   17.7511 N   0  0  0  0  0  0  0  0  0  0  0  0
    9.6210   -0.6952   24.0976 C   0  0  0  0  0  0  0  0  0  0  0  0
    7.0792   -9.0217   17.1429 C   0  0  0  0  0  0  0  0  0  0  0  0
    3.1713  -10.1816   17.6634 C   0  0  0  0  0  0  0  0  0  0  0  0
    2.7878   -8.3822   16.2137 C   0  0  0  0  0  0  0  0  0  0  0  0
    9.4601   -2.6590   25.6528 C   0  0  0  0  0  0  0  0  0  0  0  0
   10.1182   -1.5672   23.1165 C   0  0  0  0  0  0  0  0  0  0  0  0
    1.0552   -9.6360   17.0650 C   0  0  0  0  0  0  0  0  0  0  0  0
    3.6519   -9.1783   16.9039 C   0  0  0  0  0  0  0  0  0  0  0  0
    7.8675   -7.0096   15.9415 C   0  0  0  0  0  0  0  0  0  0  0  0
    5.9733   -9.6553   17.3832 N   0  0  0  0  0  0  0  0  0  0  0  0
   10.2411   -2.9363   23.4301 C   0  0  0  0  0  0  0  0  0  0  0  0
   10.7288   -3.8197   19.9525 C   0  0  0  0  0  0  0  0  0  0  0  0
   10.1189   -5.0054   19.6987 C   0  0  0  0  0  0  0  0  0  0  0  0
  1  3  4  0
  1  7  4  0
  2 21  4  0
  2 27  4  0
  3  9  4  0
  3 10  4  0
  4  8  4  0
  4 18  4  0
  4 25  1  0
  5  9  4  0
  5 12  4  0
  6 13  1  0
  6 27  1  0
  7 28  4  0
  8 11  4  0
  9 29  4  0
 10 12  4  0
 11 24  1  0
 11 26  4  0
 12 25  1  0
 13 28  1  0
 14 20  4  0
 14 23  4  0
 15 17  4  0
 15 21  4  0
 16 19  4  0
 16 23  4  0
 17 22  4  0
 18 26  4  0
 19 24  4  0
 20 24  4  0
 22 27  4  0
 28 29  4  0
M  END
$$$$

 Created by Python create_sdf_string function

 29 33  0  0  0  0  0  0  0  0999 V2000
   10.7215   -3.3326   17.6437 C   0  0  0  0  0  0  0  0  0  0  0  0
    9.9489   -3.4675   24.6487 N   0  0  0  0  0  0  0  0  0  0  0  0
   10.0172   -4.4740   17.4101 C   0  0  0  0  0  0  0  0  0  0  0  0
    6.9051   -7.9575   16.4222 C   0  0  0  0  0  0  0  0  0  0  0  0
    8.9969   -6.3552   17.9668 N   0  0  0  0  0  0  0  0  0  0  0  0
   10.6702   -3.9051   22.4070 C   0  0  0  0  0  0  0  0  0  0  0  0
   11.0625   -3.0028   18.8894 C   0  0  0  0  0  0  0  0  0  0  0  0
    5.6180   -7.9194   16.1754 O   0  0  0  0  0  0  0  0  0  0  0  0
    9.7259   -5.3080   18.4485 C   0  0  0  0  0  0  0  0  0  0  0  0
    9.4578   -5.0200   16.3036 N   0  0  0  0  0  0  0  0  0  0  0  0
    5.0287   -8.9365   16.8223 C   0  0  0  0  0  0  0  0  0  0  0  0
    8.7742   -6.1498   16.6764 C   0  0  0  0  0  0  0  0  0  0  0  0
   10.9418   -3.4032   21.2053 O   0  0  0  0  0  0  0  0  0  0  0  0
    1.4797   -8.6258   16.2950 C   0  0  0  0  0  0  0  0  0  0  0  0
    9.2861   -1.2743   25.3585 C   0  0  0  0  0  0  0  0  0  0  0  0
    1.8892  -10.3985   17.7511 N   0  0  0  0  0  0  0  0  0  0  0  0
    9.6210   -0.6952   24.0976 C   0  0  0  0  0  0  0  0  0  0  0  0
    7.0792   -9.0217   17.1429 C   0  0  0  0  0  0  0  0  0  0  0  0
    3.1713  -10.1816   17.6634 C   0  0  0  0  0  0  0  0  0  0  0  0
    2.7878   -8.3822   16.2137 C   0  0  0  0  0  0  0  0  0  0  0  0
    9.4601   -2.6590   25.6528 C   0  0  0  0  0  0  0  0  0  0  0  0
   10.1182   -1.5672   23.1165 C   0  0  0  0  0  0  0  0  0  0  0  0
    1.0552   -9.6360   17.0650 C   0  0  0  0  0  0  0  0  0  0  0  0
    3.6519   -9.1783   16.9039 C   0  0  0  0  0  0  0  0  0  0  0  0
    7.8675   -7.0096   15.9415 C   0  0  0  0  0  0  0  0  0  0  0  0
    5.9733   -9.6553   17.3832 N   0  0  0  0  0  0  0  0  0  0  0  0
   10.2411   -2.9363   23.4301 C   0  0  0  0  0  0  0  0  0  0  0  0
   10.7288   -3.8197   19.9525 C   0  0  0  0  0  0  0  0  0  0  0  0
   10.1189   -5.0054   19.6987 C   0  0  0  0  0  0  0  0  0  0  0  0
  1  3  4  0
  1  7  4  0
  2 21  4  0
  2 27  4  0
  3  9  4  0
  3 10  4  0
  4  8  4  0
  4 18  4  0
  4 25  1  0
  5  9  4  0
  5 12  4  0
  6 13  1  0
  6 27  1  0
  7 28  4  0
  8 11  4  0
  9 29  4  0
 10 12  4  0
 11 24  1  0
 11 26  4  0
 12 25  1  0
 13 28  1  0
 14 20  4  0
 14 23  4  0
 15 17  4  0
 15 21  4  0
 16 19  4  0
 16 23  4  0
 17 22  4  0
 18 26  4  0
 19 24  4  0
 20 24  4  0
 22 27  4  0
 28 29  4  0
M  END
$$$$

 Created by Python create_sdf_string function

 29 33  0  0  0  0  0  0  0  0999 V2000
   10.7215   -3.3326   17.6437 C   0  0  0  0  0  0  0  0  0  0  0  0
    9.9489   -3.4675   24.6487 N   0  0  0  0  0  0  0  0  0  0  0  0
   10.0172   -4.4740   17.4101 C   0  0  0  0  0  0  0  0  0  0  0  0
    6.9051   -7.9575   16.4222 C   0  0  0  0  0  0  0  0  0  0  0  0
    8.9969   -6.3552   17.9668 N   0  0  0  0  0  0  0  0  0  0  0  0
   10.6702   -3.9051   22.4070 C   0  0  0  0  0  0  0  0  0  0  0  0
   11.0625   -3.0028   18.8894 C   0  0  0  0  0  0  0  0  0  0  0  0
    5.6180   -7.9194   16.1754 O   0  0  0  0  0  0  0  0  0  0  0  0
    9.7259   -5.3080   18.4485 C   0  0  0  0  0  0  0  0  0  0  0  0
    9.4578   -5.0200   16.3036 N   0  0  0  0  0  0  0  0  0  0  0  0
    5.0287   -8.9365   16.8223 C   0  0  0  0  0  0  0  0  0  0  0  0
    8.7742   -6.1498   16.6764 C   0  0  0  0  0  0  0  0  0  0  0  0
   10.9418   -3.4032   21.2053 O   0  0  0  0  0  0  0  0  0  0  0  0
    1.4797   -8.6258   16.2950 C   0  0  0  0  0  0  0  0  0  0  0  0
    9.2861   -1.2743   25.3585 C   0  0  0  0  0  0  0  0  0  0  0  0
    1.8892  -10.3985   17.7511 N   0  0  0  0  0  0  0  0  0  0  0  0
    9.6210   -0.6952   24.0976 C   0  0  0  0  0  0  0  0  0  0  0  0
    7.0792   -9.0217   17.1429 C   0  0  0  0  0  0  0  0  0  0  0  0
    3.1713  -10.1816   17.6634 C   0  0  0  0  0  0  0  0  0  0  0  0
    2.7878   -8.3822   16.2137 C   0  0  0  0  0  0  0  0  0  0  0  0
    9.4601   -2.6590   25.6528 C   0  0  0  0  0  0  0  0  0  0  0  0
   10.1182   -1.5672   23.1165 C   0  0  0  0  0  0  0  0  0  0  0  0
    1.0552   -9.6360   17.0650 C   0  0  0  0  0  0  0  0  0  0  0  0
    3.6519   -9.1783   16.9039 C   0  0  0  0  0  0  0  0  0  0  0  0
    7.8675   -7.0096   15.9415 C   0  0  0  0  0  0  0  0  0  0  0  0
    5.9733   -9.6553   17.3832 N   0  0  0  0  0  0  0  0  0  0  0  0
   10.2411   -2.9363   23.4301 C   0  0  0  0  0  0  0  0  0  0  0  0
   10.7288   -3.8197   19.9525 C   0  0  0  0  0  0  0  0  0  0  0  0
   10.1189   -5.0054   19.6987 C   0  0  0  0  0  0  0  0  0  0  0  0
  1  3  4  0
  1  7  4  0
  2 21  4  0
  2 27  4  0
  3  9  4  0
  3 10  4  0
  4  8  4  0
  4 18  4  0
  4 25  1  0
  5  9  4  0
  5 12  4  0
  6 13  1  0
  6 27  1  0
  7 28  4  0
  8 11  4  0
  9 29  4  0
 10 12  4  0
 11 24  1  0
 11 26  4  0
 12 25  1  0
 13 28  1  0
 14 20  4  0
 14 23  4  0
 15 17  4  0
 15 21  4  0
 16 19  4  0
 16 23  4  0
 17 22  4  0
 18 26  4  0
 19 24  4  0
 20 24  4  0
 22 27  4  0
 28 29  4  0
M  END
$$$$

 Created by Python create_sdf_string function

 29 33  0  0  0  0  0  0  0  0999 V2000
   10.7215   -3.3326   17.6437 C   0  0  0  0  0  0  0  0  0  0  0  0
    9.9489   -3.4675   24.6487 N   0  0  0  0  0  0  0  0  0  0  0  0
   10.0172   -4.4740   17.4101 C   0  0  0  0  0  0  0  0  0  0  0  0
    6.9051   -7.9575   16.4222 C   0  0  0  0  0  0  0  0  0  0  0  0
    8.9969   -6.3552   17.9668 N   0  0  0  0  0  0  0  0  0  0  0  0
   10.6702   -3.9051   22.4070 C   0  0  0  0  0  0  0  0  0  0  0  0
   11.0625   -3.0028   18.8894 C   0  0  0  0  0  0  0  0  0  0  0  0
    5.6180   -7.9194   16.1754 O   0  0  0  0  0  0  0  0  0  0  0  0
    9.7259   -5.3080   18.4485 C   0  0  0  0  0  0  0  0  0  0  0  0
    9.4578   -5.0200   16.3036 N   0  0  0  0  0  0  0  0  0  0  0  0
    5.0287   -8.9365   16.8223 C   0  0  0  0  0  0  0  0  0  0  0  0
    8.7742   -6.1498   16.6764 C   0  0  0  0  0  0  0  0  0  0  0  0
   10.9418   -3.4032   21.2053 O   0  0  0  0  0  0  0  0  0  0  0  0
    1.4797   -8.6258   16.2950 C   0  0  0  0  0  0  0  0  0  0  0  0
    9.2861   -1.2743   25.3585 C   0  0  0  0  0  0  0  0  0  0  0  0
    1.8892  -10.3985   17.7511 N   0  0  0  0  0  0  0  0  0  0  0  0
    9.6210   -0.6952   24.0976 C   0  0  0  0  0  0  0  0  0  0  0  0
    7.0792   -9.0217   17.1429 C   0  0  0  0  0  0  0  0  0  0  0  0
    3.1713  -10.1816   17.6634 C   0  0  0  0  0  0  0  0  0  0  0  0
    2.7878   -8.3822   16.2137 C   0  0  0  0  0  0  0  0  0  0  0  0
    9.4601   -2.6590   25.6528 C   0  0  0  0  0  0  0  0  0  0  0  0
   10.1182   -1.5672   23.1165 C   0  0  0  0  0  0  0  0  0  0  0  0
    1.0552   -9.6360   17.0650 C   0  0  0  0  0  0  0  0  0  0  0  0
    3.6519   -9.1783   16.9039 C   0  0  0  0  0  0  0  0  0  0  0  0
    7.8675   -7.0096   15.9415 C   0  0  0  0  0  0  0  0  0  0  0  0
    5.9733   -9.6553   17.3832 N   0  0  0  0  0  0  0  0  0  0  0  0
   10.2411   -2.9363   23.4301 C   0  0  0  0  0  0  0  0  0  0  0  0
   10.7288   -3.8197   19.9525 C   0  0  0  0  0  0  0  0  0  0  0  0
   10.1189   -5.0054   19.6987 C   0  0  0  0  0  0  0  0  0  0  0  0
  1  3  4  0
  1  7  4  0
  2 21  4  0
  2 27  4  0
  3  9  4  0
  3 10  4  0
  4  8  4  0
  4 18  4  0
  4 25  1  0
  5  9  4  0
  5 12  4  0
  6 13  1  0
  6 27  1  0
  7 28  4  0
  8 11  4  0
  9 29  4  0
 10 12  4  0
 11 24  1  0
 11 26  4  0
 12 25  1  0
 13 28  1  0
 14 20  4  0
 14 23  4  0
 15 17  4  0
 15 21  4  0
 16 19  4  0
 16 23  4  0
 17 22  4  0
 18 26  4  0
 19 24  4  0
 20 24  4  0
 22 27  4  0
 28 29  4  0
M  END
$$$$

 Created by Python create_sdf_string function

 29 33  0  0  0  0  0  0  0  0999 V2000
   10.7215   -3.3326   17.6437 C   0  0  0  0  0  0  0  0  0  0  0  0
    9.9489   -3.4675   24.6487 N   0  0  0  0  0  0  0  0  0  0  0  0
   10.0172   -4.4740   17.4101 C   0  0  0  0  0  0  0  0  0  0  0  0
    6.9051   -7.9575   16.4222 C   0  0  0  0  0  0  0  0  0  0  0  0
    8.9969   -6.3552   17.9668 N   0  0  0  0  0  0  0  0  0  0  0  0
   10.6702   -3.9051   22.4070 C   0  0  0  0  0  0  0  0  0  0  0  0
   11.0625   -3.0028   18.8894 C   0  0  0  0  0  0  0  0  0  0  0  0
    5.6180   -7.9194   16.1754 O   0  0  0  0  0  0  0  0  0  0  0  0
    9.7259   -5.3080   18.4485 C   0  0  0  0  0  0  0  0  0  0  0  0
    9.4578   -5.0200   16.3036 N   0  0  0  0  0  0  0  0  0  0  0  0
    5.0287   -8.9365   16.8223 C   0  0  0  0  0  0  0  0  0  0  0  0
    8.7742   -6.1498   16.6764 C   0  0  0  0  0  0  0  0  0  0  0  0
   10.9418   -3.4032   21.2053 O   0  0  0  0  0  0  0  0  0  0  0  0
    1.4797   -8.6258   16.2950 C   0  0  0  0  0  0  0  0  0  0  0  0
    9.2861   -1.2743   25.3585 C   0  0  0  0  0  0  0  0  0  0  0  0
    1.8892  -10.3985   17.7511 N   0  0  0  0  0  0  0  0  0  0  0  0
    9.6210   -0.6952   24.0976 C   0  0  0  0  0  0  0  0  0  0  0  0
    7.0792   -9.0217   17.1429 C   0  0  0  0  0  0  0  0  0  0  0  0
    3.1713  -10.1816   17.6634 C   0  0  0  0  0  0  0  0  0  0  0  0
    2.7878   -8.3822   16.2137 C   0  0  0  0  0  0  0  0  0  0  0  0
    9.4601   -2.6590   25.6528 C   0  0  0  0  0  0  0  0  0  0  0  0
   10.1182   -1.5672   23.1165 C   0  0  0  0  0  0  0  0  0  0  0  0
    1.0552   -9.6360   17.0650 C   0  0  0  0  0  0  0  0  0  0  0  0
    3.6519   -9.1783   16.9039 C   0  0  0  0  0  0  0  0  0  0  0  0
    7.8675   -7.0096   15.9415 C   0  0  0  0  0  0  0  0  0  0  0  0
    5.9733   -9.6553   17.3832 N   0  0  0  0  0  0  0  0  0  0  0  0
   10.2411   -2.9363   23.4301 C   0  0  0  0  0  0  0  0  0  0  0  0
   10.7288   -3.8197   19.9525 C   0  0  0  0  0  0  0  0  0  0  0  0
   10.1189   -5.0054   19.6987 C   0  0  0  0  0  0  0  0  0  0  0  0
  1  3  4  0
  1  7  4  0
  2 21  4  0
  2 27  4  0
  3  9  4  0
  3 10  4  0
  4  8  4  0
  4 18  4  0
  4 25  1  0
  5  9  4  0
  5 12  4  0
  6 13  1  0
  6 27  1  0
  7 28  4  0
  8 11  4  0
  9 29  4  0
 10 12  4  0
 11 24  1  0
 11 26  4  0
 12 25  1  0
 13 28  1  0
 14 20  4  0
 14 23  4  0
 15 17  4  0
 15 21  4  0
 16 19  4  0
 16 23  4  0
 17 22  4  0
 18 26  4  0
 19 24  4  0
 20 24  4  0
 22 27  4  0
 28 29  4  0
M  END
$$$$

 Created by Python create_sdf_string function

 29 33  0  0  0  0  0  0  0  0999 V2000
   10.7215   -3.3326   17.6437 C   0  0  0  0  0  0  0  0  0  0  0  0
    9.9489   -3.4675   24.6487 N   0  0  0  0  0  0  0  0  0  0  0  0
   10.0172   -4.4740   17.4101 C   0  0  0  0  0  0  0  0  0  0  0  0
    6.9051   -7.9575   16.4222 C   0  0  0  0  0  0  0  0  0  0  0  0
    8.9969   -6.3552   17.9668 N   0  0  0  0  0  0  0  0  0  0  0  0
   10.6702   -3.9051   22.4070 C   0  0  0  0  0  0  0  0  0  0  0  0
   11.0625   -3.0028   18.8894 C   0  0  0  0  0  0  0  0  0  0  0  0
    5.6180   -7.9194   16.1754 O   0  0  0  0  0  0  0  0  0  0  0  0
    9.7259   -5.3080   18.4485 C   0  0  0  0  0  0  0  0  0  0  0  0
    9.4578   -5.0200   16.3036 N   0  0  0  0  0  0  0  0  0  0  0  0
    5.0287   -8.9365   16.8223 C   0  0  0  0  0  0  0  0  0  0  0  0
    8.7742   -6.1498   16.6764 C   0  0  0  0  0  0  0  0  0  0  0  0
   10.9418   -3.4032   21.2053 O   0  0  0  0  0  0  0  0  0  0  0  0
    1.4797   -8.6258   16.2950 C   0  0  0  0  0  0  0  0  0  0  0  0
    9.2861   -1.2743   25.3585 C   0  0  0  0  0  0  0  0  0  0  0  0
    1.8892  -10.3985   17.7511 N   0  0  0  0  0  0  0  0  0  0  0  0
    9.6210   -0.6952   24.0976 C   0  0  0  0  0  0  0  0  0  0  0  0
    7.0792   -9.0217   17.1429 C   0  0  0  0  0  0  0  0  0  0  0  0
    3.1713  -10.1816   17.6634 C   0  0  0  0  0  0  0  0  0  0  0  0
    2.7878   -8.3822   16.2137 C   0  0  0  0  0  0  0  0  0  0  0  0
    9.4601   -2.6590   25.6528 C   0  0  0  0  0  0  0  0  0  0  0  0
   10.1182   -1.5672   23.1165 C   0  0  0  0  0  0  0  0  0  0  0  0
    1.0552   -9.6360   17.0650 C   0  0  0  0  0  0  0  0  0  0  0  0
    3.6519   -9.1783   16.9039 C   0  0  0  0  0  0  0  0  0  0  0  0
    7.8675   -7.0096   15.9415 C   0  0  0  0  0  0  0  0  0  0  0  0
    5.9733   -9.6553   17.3832 N   0  0  0  0  0  0  0  0  0  0  0  0
   10.2411   -2.9363   23.4301 C   0  0  0  0  0  0  0  0  0  0  0  0
   10.7288   -3.8197   19.9525 C   0  0  0  0  0  0  0  0  0  0  0  0
   10.1189   -5.0054   19.6987 C   0  0  0  0  0  0  0  0  0  0  0  0
  1  3  4  0
  1  7  4  0
  2 21  4  0
  2 27  4  0
  3  9  4  0
  3 10  4  0
  4  8  4  0
  4 18  4  0
  4 25  1  0
  5  9  4  0
  5 12  4  0
  6 13  1  0
  6 27  1  0
  7 28  4  0
  8 11  4  0
  9 29  4  0
 10 12  4  0
 11 24  1  0
 11 26  4  0
 12 25  1  0
 13 28  1  0
 14 20  4  0
 14 23  4  0
 15 17  4  0
 15 21  4  0
 16 19  4  0
 16 23  4  0
 17 22  4  0
 18 26  4  0
 19 24  4  0
 20 24  4  0
 22 27  4  0
 28 29  4  0
M  END
$$$$

 Created by Python create_sdf_string function

 29 33  0  0  0  0  0  0  0  0999 V2000
   10.7215   -3.3326   17.6437 C   0  0  0  0  0  0  0  0  0  0  0  0
    9.9489   -3.4675   24.6487 N   0  0  0  0  0  0  0  0  0  0  0  0
   10.0172   -4.4740   17.4101 C   0  0  0  0  0  0  0  0  0  0  0  0
    6.9051   -7.9575   16.4222 C   0  0  0  0  0  0  0  0  0  0  0  0
    8.9969   -6.3552   17.9668 N   0  0  0  0  0  0  0  0  0  0  0  0
   10.6702   -3.9051   22.4070 C   0  0  0  0  0  0  0  0  0  0  0  0
   11.0625   -3.0028   18.8894 C   0  0  0  0  0  0  0  0  0  0  0  0
    5.6180   -7.9194   16.1754 O   0  0  0  0  0  0  0  0  0  0  0  0
    9.7259   -5.3080   18.4485 C   0  0  0  0  0  0  0  0  0  0  0  0
    9.4578   -5.0200   16.3036 N   0  0  0  0  0  0  0  0  0  0  0  0
    5.0287   -8.9365   16.8223 C   0  0  0  0  0  0  0  0  0  0  0  0
    8.7742   -6.1498   16.6764 C   0  0  0  0  0  0  0  0  0  0  0  0
   10.9418   -3.4032   21.2053 O   0  0  0  0  0  0  0  0  0  0  0  0
    1.4797   -8.6258   16.2950 C   0  0  0  0  0  0  0  0  0  0  0  0
    9.2861   -1.2743   25.3585 C   0  0  0  0  0  0  0  0  0  0  0  0
    1.8892  -10.3985   17.7511 N   0  0  0  0  0  0  0  0  0  0  0  0
    9.6210   -0.6952   24.0976 C   0  0  0  0  0  0  0  0  0  0  0  0
    7.0792   -9.0217   17.1429 C   0  0  0  0  0  0  0  0  0  0  0  0
    3.1713  -10.1816   17.6634 C   0  0  0  0  0  0  0  0  0  0  0  0
    2.7878   -8.3822   16.2137 C   0  0  0  0  0  0  0  0  0  0  0  0
    9.4601   -2.6590   25.6528 C   0  0  0  0  0  0  0  0  0  0  0  0
   10.1182   -1.5672   23.1165 C   0  0  0  0  0  0  0  0  0  0  0  0
    1.0552   -9.6360   17.0650 C   0  0  0  0  0  0  0  0  0  0  0  0
    3.6519   -9.1783   16.9039 C   0  0  0  0  0  0  0  0  0  0  0  0
    7.8675   -7.0096   15.9415 C   0  0  0  0  0  0  0  0  0  0  0  0
    5.9733   -9.6553   17.3832 N   0  0  0  0  0  0  0  0  0  0  0  0
   10.2411   -2.9363   23.4301 C   0  0  0  0  0  0  0  0  0  0  0  0
   10.7288   -3.8197   19.9525 C   0  0  0  0  0  0  0  0  0  0  0  0
   10.1189   -5.0054   19.6987 C   0  0  0  0  0  0  0  0  0  0  0  0
  1  3  4  0
  1  7  4  0
  2 21  4  0
  2 27  4  0
  3  9  4  0
  3 10  4  0
  4  8  4  0
  4 18  4  0
  4 25  1  0
  5  9  4  0
  5 12  4  0
  6 13  1  0
  6 27  1  0
  7 28  4  0
  8 11  4  0
  9 29  4  0
 10 12  4  0
 11 24  1  0
 11 26  4  0
 12 25  1  0
 13 28  1  0
 14 20  4  0
 14 23  4  0
 15 17  4  0
 15 21  4  0
 16 19  4  0
 16 23  4  0
 17 22  4  0
 18 26  4  0
 19 24  4  0
 20 24  4  0
 22 27  4  0
 28 29  4  0
M  END
$$$$

 Created by Python create_sdf_string function

 29 33  0  0  0  0  0  0  0  0999 V2000
   10.7215   -3.3326   17.6437 C   0  0  0  0  0  0  0  0  0  0  0  0
    9.9489   -3.4675   24.6487 N   0  0  0  0  0  0  0  0  0  0  0  0
   10.0172   -4.4740   17.4101 C   0  0  0  0  0  0  0  0  0  0  0  0
    6.9051   -7.9575   16.4222 C   0  0  0  0  0  0  0  0  0  0  0  0
    8.9969   -6.3552   17.9668 N   0  0  0  0  0  0  0  0  0  0  0  0
   10.6702   -3.9051   22.4070 C   0  0  0  0  0  0  0  0  0  0  0  0
   11.0625   -3.0028   18.8894 C   0  0  0  0  0  0  0  0  0  0  0  0
    5.6180   -7.9194   16.1754 O   0  0  0  0  0  0  0  0  0  0  0  0
    9.7259   -5.3080   18.4485 C   0  0  0  0  0  0  0  0  0  0  0  0
    9.4578   -5.0200   16.3036 N   0  0  0  0  0  0  0  0  0  0  0  0
    5.0287   -8.9365   16.8223 C   0  0  0  0  0  0  0  0  0  0  0  0
    8.7742   -6.1498   16.6764 C   0  0  0  0  0  0  0  0  0  0  0  0
   10.9418   -3.4032   21.2053 O   0  0  0  0  0  0  0  0  0  0  0  0
    1.4797   -8.6258   16.2950 C   0  0  0  0  0  0  0  0  0  0  0  0
    9.2861   -1.2743   25.3585 C   0  0  0  0  0  0  0  0  0  0  0  0
    1.8892  -10.3985   17.7511 N   0  0  0  0  0  0  0  0  0  0  0  0
    9.6210   -0.6952   24.0976 C   0  0  0  0  0  0  0  0  0  0  0  0
    7.0792   -9.0217   17.1429 C   0  0  0  0  0  0  0  0  0  0  0  0
    3.1713  -10.1816   17.6634 C   0  0  0  0  0  0  0  0  0  0  0  0
    2.7878   -8.3822   16.2137 C   0  0  0  0  0  0  0  0  0  0  0  0
    9.4601   -2.6590   25.6528 C   0  0  0  0  0  0  0  0  0  0  0  0
   10.1182   -1.5672   23.1165 C   0  0  0  0  0  0  0  0  0  0  0  0
    1.0552   -9.6360   17.0650 C   0  0  0  0  0  0  0  0  0  0  0  0
    3.6519   -9.1783   16.9039 C   0  0  0  0  0  0  0  0  0  0  0  0
    7.8675   -7.0096   15.9415 C   0  0  0  0  0  0  0  0  0  0  0  0
    5.9733   -9.6553   17.3832 N   0  0  0  0  0  0  0  0  0  0  0  0
   10.2411   -2.9363   23.4301 C   0  0  0  0  0  0  0  0  0  0  0  0
   10.7288   -3.8197   19.9525 C   0  0  0  0  0  0  0  0  0  0  0  0
   10.1189   -5.0054   19.6987 C   0  0  0  0  0  0  0  0  0  0  0  0
  1  3  4  0
  1  7  4  0
  2 21  4  0
  2 27  4  0
  3  9  4  0
  3 10  4  0
  4  8  4  0
  4 18  4  0
  4 25  1  0
  5  9  4  0
  5 12  4  0
  6 13  1  0
  6 27  1  0
  7 28  4  0
  8 11  4  0
  9 29  4  0
 10 12  4  0
 11 24  1  0
 11 26  4  0
 12 25  1  0
 13 28  1  0
 14 20  4  0
 14 23  4  0
 15 17  4  0
 15 21  4  0
 16 19  4  0
 16 23  4  0
 17 22  4  0
 18 26  4  0
 19 24  4  0
 20 24  4  0
 22 27  4  0
 28 29  4  0
M  END
$$$$

 Created by Python create_sdf_string function

 29 33  0  0  0  0  0  0  0  0999 V2000
   10.7215   -3.3326   17.6437 C   0  0  0  0  0  0  0  0  0  0  0  0
    9.9489   -3.4675   24.6487 N   0  0  0  0  0  0  0  0  0  0  0  0
   10.0172   -4.4740   17.4101 C   0  0  0  0  0  0  0  0  0  0  0  0
    6.9051   -7.9575   16.4222 C   0  0  0  0  0  0  0  0  0  0  0  0
    8.9969   -6.3552   17.9668 N   0  0  0  0  0  0  0  0  0  0  0  0
   10.6702   -3.9051   22.4070 C   0  0  0  0  0  0  0  0  0  0  0  0
   11.0625   -3.0028   18.8894 C   0  0  0  0  0  0  0  0  0  0  0  0
    5.6180   -7.9194   16.1754 O   0  0  0  0  0  0  0  0  0  0  0  0
    9.7259   -5.3080   18.4485 C   0  0  0  0  0  0  0  0  0  0  0  0
    9.4578   -5.0200   16.3036 N   0  0  0  0  0  0  0  0  0  0  0  0
    5.0287   -8.9365   16.8223 C   0  0  0  0  0  0  0  0  0  0  0  0
    8.7742   -6.1498   16.6764 C   0  0  0  0  0  0  0  0  0  0  0  0
   10.9418   -3.4032   21.2053 O   0  0  0  0  0  0  0  0  0  0  0  0
    1.4797   -8.6258   16.2950 C   0  0  0  0  0  0  0  0  0  0  0  0
    9.2861   -1.2743   25.3585 C   0  0  0  0  0  0  0  0  0  0  0  0
    1.8892  -10.3985   17.7511 N   0  0  0  0  0  0  0  0  0  0  0  0
    9.6210   -0.6952   24.0976 C   0  0  0  0  0  0  0  0  0  0  0  0
    7.0792   -9.0217   17.1429 C   0  0  0  0  0  0  0  0  0  0  0  0
    3.1713  -10.1816   17.6634 C   0  0  0  0  0  0  0  0  0  0  0  0
    2.7878   -8.3822   16.2137 C   0  0  0  0  0  0  0  0  0  0  0  0
    9.4601   -2.6590   25.6528 C   0  0  0  0  0  0  0  0  0  0  0  0
   10.1182   -1.5672   23.1165 C   0  0  0  0  0  0  0  0  0  0  0  0
    1.0552   -9.6360   17.0650 C   0  0  0  0  0  0  0  0  0  0  0  0
    3.6519   -9.1783   16.9039 C   0  0  0  0  0  0  0  0  0  0  0  0
    7.8675   -7.0096   15.9415 C   0  0  0  0  0  0  0  0  0  0  0  0
    5.9733   -9.6553   17.3832 N   0  0  0  0  0  0  0  0  0  0  0  0
   10.2411   -2.9363   23.4301 C   0  0  0  0  0  0  0  0  0  0  0  0
   10.7288   -3.8197   19.9525 C   0  0  0  0  0  0  0  0  0  0  0  0
   10.1189   -5.0054   19.6987 C   0  0  0  0  0  0  0  0  0  0  0  0
  1  3  4  0
  1  7  4  0
  2 21  4  0
  2 27  4  0
  3  9  4  0
  3 10  4  0
  4  8  4  0
  4 18  4  0
  4 25  1  0
  5  9  4  0
  5 12  4  0
  6 13  1  0
  6 27  1  0
  7 28  4  0
  8 11  4  0
  9 29  4  0
 10 12  4  0
 11 24  1  0
 11 26  4  0
 12 25  1  0
 13 28  1  0
 14 20  4  0
 14 23  4  0
 15 17  4  0
 15 21  4  0
 16 19  4  0
 16 23  4  0
 17 22  4  0
 18 26  4  0
 19 24  4  0
 20 24  4  0
 22 27  4  0
 28 29  4  0
M  END
$$$$

 Created by Python create_sdf_string function

 29 33  0  0  0  0  0  0  0  0999 V2000
   10.7215   -3.3326   17.6437 C   0  0  0  0  0  0  0  0  0  0  0  0
    9.9489   -3.4675   24.6487 N   0  0  0  0  0  0  0  0  0  0  0  0
   10.0172   -4.4740   17.4101 C   0  0  0  0  0  0  0  0  0  0  0  0
    6.9051   -7.9575   16.4222 C   0  0  0  0  0  0  0  0  0  0  0  0
    8.9969   -6.3552   17.9668 N   0  0  0  0  0  0  0  0  0  0  0  0
   10.6702   -3.9051   22.4070 C   0  0  0  0  0  0  0  0  0  0  0  0
   11.0625   -3.0028   18.8894 C   0  0  0  0  0  0  0  0  0  0  0  0
    5.6180   -7.9194   16.1754 O   0  0  0  0  0  0  0  0  0  0  0  0
    9.7259   -5.3080   18.4485 C   0  0  0  0  0  0  0  0  0  0  0  0
    9.4578   -5.0200   16.3036 N   0  0  0  0  0  0  0  0  0  0  0  0
    5.0287   -8.9365   16.8223 C   0  0  0  0  0  0  0  0  0  0  0  0
    8.7742   -6.1498   16.6764 C   0  0  0  0  0  0  0  0  0  0  0  0
   10.9418   -3.4032   21.2053 O   0  0  0  0  0  0  0  0  0  0  0  0
    1.4797   -8.6258   16.2950 C   0  0  0  0  0  0  0  0  0  0  0  0
    9.2861   -1.2743   25.3585 C   0  0  0  0  0  0  0  0  0  0  0  0
    1.8892  -10.3985   17.7511 N   0  0  0  0  0  0  0  0  0  0  0  0
    9.6210   -0.6952   24.0976 C   0  0  0  0  0  0  0  0  0  0  0  0
    7.0792   -9.0217   17.1429 C   0  0  0  0  0  0  0  0  0  0  0  0
    3.1713  -10.1816   17.6634 C   0  0  0  0  0  0  0  0  0  0  0  0
    2.7878   -8.3822   16.2137 C   0  0  0  0  0  0  0  0  0  0  0  0
    9.4601   -2.6590   25.6528 C   0  0  0  0  0  0  0  0  0  0  0  0
   10.1182   -1.5672   23.1165 C   0  0  0  0  0  0  0  0  0  0  0  0
    1.0552   -9.6360   17.0650 C   0  0  0  0  0  0  0  0  0  0  0  0
    3.6519   -9.1783   16.9039 C   0  0  0  0  0  0  0  0  0  0  0  0
    7.8675   -7.0096   15.9415 C   0  0  0  0  0  0  0  0  0  0  0  0
    5.9733   -9.6553   17.3832 N   0  0  0  0  0  0  0  0  0  0  0  0
   10.2411   -2.9363   23.4301 C   0  0  0  0  0  0  0  0  0  0  0  0
   10.7288   -3.8197   19.9525 C   0  0  0  0  0  0  0  0  0  0  0  0
   10.1189   -5.0054   19.6987 C   0  0  0  0  0  0  0  0  0  0  0  0
  1  3  4  0
  1  7  4  0
  2 21  4  0
  2 27  4  0
  3  9  4  0
  3 10  4  0
  4  8  4  0
  4 18  4  0
  4 25  1  0
  5  9  4  0
  5 12  4  0
  6 13  1  0
  6 27  1  0
  7 28  4  0
  8 11  4  0
  9 29  4  0
 10 12  4  0
 11 24  1  0
 11 26  4  0
 12 25  1  0
 13 28  1  0
 14 20  4  0
 14 23  4  0
 15 17  4  0
 15 21  4  0
 16 19  4  0
 16 23  4  0
 17 22  4  0
 18 26  4  0
 19 24  4  0
 20 24  4  0
 22 27  4  0
 28 29  4  0
M  END
$$$$

 Created by Python create_sdf_string function

 29 33  0  0  0  0  0  0  0  0999 V2000
   10.7215   -3.3326   17.6437 C   0  0  0  0  0  0  0  0  0  0  0  0
    9.9489   -3.4675   24.6487 N   0  0  0  0  0  0  0  0  0  0  0  0
   10.0172   -4.4740   17.4101 C   0  0  0  0  0  0  0  0  0  0  0  0
    6.9051   -7.9575   16.4222 C   0  0  0  0  0  0  0  0  0  0  0  0
    8.9969   -6.3552   17.9668 N   0  0  0  0  0  0  0  0  0  0  0  0
   10.6702   -3.9051   22.4070 C   0  0  0  0  0  0  0  0  0  0  0  0
   11.0625   -3.0028   18.8894 C   0  0  0  0  0  0  0  0  0  0  0  0
    5.6180   -7.9194   16.1754 O   0  0  0  0  0  0  0  0  0  0  0  0
    9.7259   -5.3080   18.4485 C   0  0  0  0  0  0  0  0  0  0  0  0
    9.4578   -5.0200   16.3036 N   0  0  0  0  0  0  0  0  0  0  0  0
    5.0287   -8.9365   16.8223 C   0  0  0  0  0  0  0  0  0  0  0  0
    8.7742   -6.1498   16.6764 C   0  0  0  0  0  0  0  0  0  0  0  0
   10.9418   -3.4032   21.2053 O   0  0  0  0  0  0  0  0  0  0  0  0
    1.4797   -8.6258   16.2950 C   0  0  0  0  0  0  0  0  0  0  0  0
    9.2861   -1.2743   25.3585 C   0  0  0  0  0  0  0  0  0  0  0  0
    1.8892  -10.3985   17.7511 N   0  0  0  0  0  0  0  0  0  0  0  0
    9.6210   -0.6952   24.0976 C   0  0  0  0  0  0  0  0  0  0  0  0
    7.0792   -9.0217   17.1429 C   0  0  0  0  0  0  0  0  0  0  0  0
    3.1713  -10.1816   17.6634 C   0  0  0  0  0  0  0  0  0  0  0  0
    2.7878   -8.3822   16.2137 C   0  0  0  0  0  0  0  0  0  0  0  0
    9.4601   -2.6590   25.6528 C   0  0  0  0  0  0  0  0  0  0  0  0
   10.1182   -1.5672   23.1165 C   0  0  0  0  0  0  0  0  0  0  0  0
    1.0552   -9.6360   17.0650 C   0  0  0  0  0  0  0  0  0  0  0  0
    3.6519   -9.1783   16.9039 C   0  0  0  0  0  0  0  0  0  0  0  0
    7.8675   -7.0096   15.9415 C   0  0  0  0  0  0  0  0  0  0  0  0
    5.9733   -9.6553   17.3832 N   0  0  0  0  0  0  0  0  0  0  0  0
   10.2411   -2.9363   23.4301 C   0  0  0  0  0  0  0  0  0  0  0  0
   10.7288   -3.8197   19.9525 C   0  0  0  0  0  0  0  0  0  0  0  0
   10.1189   -5.0054   19.6987 C   0  0  0  0  0  0  0  0  0  0  0  0
  1  3  4  0
  1  7  4  0
  2 21  4  0
  2 27  4  0
  3  9  4  0
  3 10  4  0
  4  8  4  0
  4 18  4  0
  4 25  1  0
  5  9  4  0
  5 12  4  0
  6 13  1  0
  6 27  1  0
  7 28  4  0
  8 11  4  0
  9 29  4  0
 10 12  4  0
 11 24  1  0
 11 26  4  0
 12 25  1  0
 13 28  1  0
 14 20  4  0
 14 23  4  0
 15 17  4  0
 15 21  4  0
 16 19  4  0
 16 23  4  0
 17 22  4  0
 18 26  4  0
 19 24  4  0
 20 24  4  0
 22 27  4  0
 28 29  4  0
M  END
$$$$

 Created by Python create_sdf_string function

 29 33  0  0  0  0  0  0  0  0999 V2000
   10.7215   -3.3326   17.6437 C   0  0  0  0  0  0  0  0  0  0  0  0
    9.9489   -3.4675   24.6487 N   0  0  0  0  0  0  0  0  0  0  0  0
   10.0172   -4.4740   17.4101 C   0  0  0  0  0  0  0  0  0  0  0  0
    6.9051   -7.9575   16.4222 C   0  0  0  0  0  0  0  0  0  0  0  0
    8.9969   -6.3552   17.9668 N   0  0  0  0  0  0  0  0  0  0  0  0
   10.6702   -3.9051   22.4070 C   0  0  0  0  0  0  0  0  0  0  0  0
   11.0625   -3.0028   18.8894 C   0  0  0  0  0  0  0  0  0  0  0  0
    5.6180   -7.9194   16.1754 O   0  0  0  0  0  0  0  0  0  0  0  0
    9.7259   -5.3080   18.4485 C   0  0  0  0  0  0  0  0  0  0  0  0
    9.4578   -5.0200   16.3036 N   0  0  0  0  0  0  0  0  0  0  0  0
    5.0287   -8.9365   16.8223 C   0  0  0  0  0  0  0  0  0  0  0  0
    8.7742   -6.1498   16.6764 C   0  0  0  0  0  0  0  0  0  0  0  0
   10.9418   -3.4032   21.2053 O   0  0  0  0  0  0  0  0  0  0  0  0
    1.4797   -8.6258   16.2950 C   0  0  0  0  0  0  0  0  0  0  0  0
    9.2861   -1.2743   25.3585 C   0  0  0  0  0  0  0  0  0  0  0  0
    1.8892  -10.3985   17.7511 N   0  0  0  0  0  0  0  0  0  0  0  0
    9.6210   -0.6952   24.0976 C   0  0  0  0  0  0  0  0  0  0  0  0
    7.0792   -9.0217   17.1429 C   0  0  0  0  0  0  0  0  0  0  0  0
    3.1713  -10.1816   17.6634 C   0  0  0  0  0  0  0  0  0  0  0  0
    2.7878   -8.3822   16.2137 C   0  0  0  0  0  0  0  0  0  0  0  0
    9.4601   -2.6590   25.6528 C   0  0  0  0  0  0  0  0  0  0  0  0
   10.1182   -1.5672   23.1165 C   0  0  0  0  0  0  0  0  0  0  0  0
    1.0552   -9.6360   17.0650 C   0  0  0  0  0  0  0  0  0  0  0  0
    3.6519   -9.1783   16.9039 C   0  0  0  0  0  0  0  0  0  0  0  0
    7.8675   -7.0096   15.9415 C   0  0  0  0  0  0  0  0  0  0  0  0
    5.9733   -9.6553   17.3832 N   0  0  0  0  0  0  0  0  0  0  0  0
   10.2411   -2.9363   23.4301 C   0  0  0  0  0  0  0  0  0  0  0  0
   10.7288   -3.8197   19.9525 C   0  0  0  0  0  0  0  0  0  0  0  0
   10.1189   -5.0054   19.6987 C   0  0  0  0  0  0  0  0  0  0  0  0
  1  3  4  0
  1  7  4  0
  2 21  4  0
  2 27  4  0
  3  9  4  0
  3 10  4  0
  4  8  4  0
  4 18  4  0
  4 25  1  0
  5  9  4  0
  5 12  4  0
  6 13  1  0
  6 27  1  0
  7 28  4  0
  8 11  4  0
  9 29  4  0
 10 12  4  0
 11 24  1  0
 11 26  4  0
 12 25  1  0
 13 28  1  0
 14 20  4  0
 14 23  4  0
 15 17  4  0
 15 21  4  0
 16 19  4  0
 16 23  4  0
 17 22  4  0
 18 26  4  0
 19 24  4  0
 20 24  4  0
 22 27  4  0
 28 29  4  0
M  END
$$$$

 Created by Python create_sdf_string function

 29 33  0  0  0  0  0  0  0  0999 V2000
   10.7215   -3.3326   17.6437 C   0  0  0  0  0  0  0  0  0  0  0  0
    9.9489   -3.4675   24.6487 N   0  0  0  0  0  0  0  0  0  0  0  0
   10.0172   -4.4740   17.4101 C   0  0  0  0  0  0  0  0  0  0  0  0
    6.9051   -7.9575   16.4222 C   0  0  0  0  0  0  0  0  0  0  0  0
    8.9969   -6.3552   17.9668 N   0  0  0  0  0  0  0  0  0  0  0  0
   10.6702   -3.9051   22.4070 C   0  0  0  0  0  0  0  0  0  0  0  0
   11.0625   -3.0028   18.8894 C   0  0  0  0  0  0  0  0  0  0  0  0
    5.6180   -7.9194   16.1754 O   0  0  0  0  0  0  0  0  0  0  0  0
    9.7259   -5.3080   18.4485 C   0  0  0  0  0  0  0  0  0  0  0  0
    9.4578   -5.0200   16.3036 N   0  0  0  0  0  0  0  0  0  0  0  0
    5.0287   -8.9365   16.8223 C   0  0  0  0  0  0  0  0  0  0  0  0
    8.7742   -6.1498   16.6764 C   0  0  0  0  0  0  0  0  0  0  0  0
   10.9418   -3.4032   21.2053 O   0  0  0  0  0  0  0  0  0  0  0  0
    1.4797   -8.6258   16.2950 C   0  0  0  0  0  0  0  0  0  0  0  0
    9.2861   -1.2743   25.3585 C   0  0  0  0  0  0  0  0  0  0  0  0
    1.8892  -10.3985   17.7511 N   0  0  0  0  0  0  0  0  0  0  0  0
    9.6210   -0.6952   24.0976 C   0  0  0  0  0  0  0  0  0  0  0  0
    7.0792   -9.0217   17.1429 C   0  0  0  0  0  0  0  0  0  0  0  0
    3.1713  -10.1816   17.6634 C   0  0  0  0  0  0  0  0  0  0  0  0
    2.7878   -8.3822   16.2137 C   0  0  0  0  0  0  0  0  0  0  0  0
    9.4601   -2.6590   25.6528 C   0  0  0  0  0  0  0  0  0  0  0  0
   10.1182   -1.5672   23.1165 C   0  0  0  0  0  0  0  0  0  0  0  0
    1.0552   -9.6360   17.0650 C   0  0  0  0  0  0  0  0  0  0  0  0
    3.6519   -9.1783   16.9039 C   0  0  0  0  0  0  0  0  0  0  0  0
    7.8675   -7.0096   15.9415 C   0  0  0  0  0  0  0  0  0  0  0  0
    5.9733   -9.6553   17.3832 N   0  0  0  0  0  0  0  0  0  0  0  0
   10.2411   -2.9363   23.4301 C   0  0  0  0  0  0  0  0  0  0  0  0
   10.7288   -3.8197   19.9525 C   0  0  0  0  0  0  0  0  0  0  0  0
   10.1189   -5.0054   19.6987 C   0  0  0  0  0  0  0  0  0  0  0  0
  1  3  4  0
  1  7  4  0
  2 21  4  0
  2 27  4  0
  3  9  4  0
  3 10  4  0
  4  8  4  0
  4 18  4  0
  4 25  1  0
  5  9  4  0
  5 12  4  0
  6 13  1  0
  6 27  1  0
  7 28  4  0
  8 11  4  0
  9 29  4  0
 10 12  4  0
 11 24  1  0
 11 26  4  0
 12 25  1  0
 13 28  1  0
 14 20  4  0
 14 23  4  0
 15 17  4  0
 15 21  4  0
 16 19  4  0
 16 23  4  0
 17 22  4  0
 18 26  4  0
 19 24  4  0
 20 24  4  0
 22 27  4  0
 28 29  4  0
M  END
$$$$

 Created by Python create_sdf_string function

 29 33  0  0  0  0  0  0  0  0999 V2000
   10.7215   -3.3326   17.6437 C   0  0  0  0  0  0  0  0  0  0  0  0
    9.9489   -3.4675   24.6487 N   0  0  0  0  0  0  0  0  0  0  0  0
   10.0172   -4.4740   17.4101 C   0  0  0  0  0  0  0  0  0  0  0  0
    6.9051   -7.9575   16.4222 C   0  0  0  0  0  0  0  0  0  0  0  0
    8.9969   -6.3552   17.9668 N   0  0  0  0  0  0  0  0  0  0  0  0
   10.6702   -3.9051   22.4070 C   0  0  0  0  0  0  0  0  0  0  0  0
   11.0625   -3.0028   18.8894 C   0  0  0  0  0  0  0  0  0  0  0  0
    5.6180   -7.9194   16.1754 O   0  0  0  0  0  0  0  0  0  0  0  0
    9.7259   -5.3080   18.4485 C   0  0  0  0  0  0  0  0  0  0  0  0
    9.4578   -5.0200   16.3036 N   0  0  0  0  0  0  0  0  0  0  0  0
    5.0287   -8.9365   16.8223 C   0  0  0  0  0  0  0  0  0  0  0  0
    8.7742   -6.1498   16.6764 C   0  0  0  0  0  0  0  0  0  0  0  0
   10.9418   -3.4032   21.2053 O   0  0  0  0  0  0  0  0  0  0  0  0
    1.4797   -8.6258   16.2950 C   0  0  0  0  0  0  0  0  0  0  0  0
    9.2861   -1.2743   25.3585 C   0  0  0  0  0  0  0  0  0  0  0  0
    1.8892  -10.3985   17.7511 N   0  0  0  0  0  0  0  0  0  0  0  0
    9.6210   -0.6952   24.0976 C   0  0  0  0  0  0  0  0  0  0  0  0
    7.0792   -9.0217   17.1429 C   0  0  0  0  0  0  0  0  0  0  0  0
    3.1713  -10.1816   17.6634 C   0  0  0  0  0  0  0  0  0  0  0  0
    2.7878   -8.3822   16.2137 C   0  0  0  0  0  0  0  0  0  0  0  0
    9.4601   -2.6590   25.6528 C   0  0  0  0  0  0  0  0  0  0  0  0
   10.1182   -1.5672   23.1165 C   0  0  0  0  0  0  0  0  0  0  0  0
    1.0552   -9.6360   17.0650 C   0  0  0  0  0  0  0  0  0  0  0  0
    3.6519   -9.1783   16.9039 C   0  0  0  0  0  0  0  0  0  0  0  0
    7.8675   -7.0096   15.9415 C   0  0  0  0  0  0  0  0  0  0  0  0
    5.9733   -9.6553   17.3832 N   0  0  0  0  0  0  0  0  0  0  0  0
   10.2411   -2.9363   23.4301 C   0  0  0  0  0  0  0  0  0  0  0  0
   10.7288   -3.8197   19.9525 C   0  0  0  0  0  0  0  0  0  0  0  0
   10.1189   -5.0054   19.6987 C   0  0  0  0  0  0  0  0  0  0  0  0
  1  3  4  0
  1  7  4  0
  2 21  4  0
  2 27  4  0
  3  9  4  0
  3 10  4  0
  4  8  4  0
  4 18  4  0
  4 25  1  0
  5  9  4  0
  5 12  4  0
  6 13  1  0
  6 27  1  0
  7 28  4  0
  8 11  4  0
  9 29  4  0
 10 12  4  0
 11 24  1  0
 11 26  4  0
 12 25  1  0
 13 28  1  0
 14 20  4  0
 14 23  4  0
 15 17  4  0
 15 21  4  0
 16 19  4  0
 16 23  4  0
 17 22  4  0
 18 26  4  0
 19 24  4  0
 20 24  4  0
 22 27  4  0
 28 29  4  0
M  END
$$$$

 Created by Python create_sdf_string function

 29 33  0  0  0  0  0  0  0  0999 V2000
   10.7215   -3.3326   17.6437 C   0  0  0  0  0  0  0  0  0  0  0  0
    9.9489   -3.4675   24.6487 N   0  0  0  0  0  0  0  0  0  0  0  0
   10.0172   -4.4740   17.4101 C   0  0  0  0  0  0  0  0  0  0  0  0
    6.9051   -7.9575   16.4222 C   0  0  0  0  0  0  0  0  0  0  0  0
    8.9969   -6.3552   17.9668 N   0  0  0  0  0  0  0  0  0  0  0  0
   10.6702   -3.9051   22.4070 C   0  0  0  0  0  0  0  0  0  0  0  0
   11.0625   -3.0028   18.8894 C   0  0  0  0  0  0  0  0  0  0  0  0
    5.6180   -7.9194   16.1754 O   0  0  0  0  0  0  0  0  0  0  0  0
    9.7259   -5.3080   18.4485 C   0  0  0  0  0  0  0  0  0  0  0  0
    9.4578   -5.0200   16.3036 N   0  0  0  0  0  0  0  0  0  0  0  0
    5.0287   -8.9365   16.8223 C   0  0  0  0  0  0  0  0  0  0  0  0
    8.7742   -6.1498   16.6764 C   0  0  0  0  0  0  0  0  0  0  0  0
   10.9418   -3.4032   21.2053 O   0  0  0  0  0  0  0  0  0  0  0  0
    1.4797   -8.6258   16.2950 C   0  0  0  0  0  0  0  0  0  0  0  0
    9.2861   -1.2743   25.3585 C   0  0  0  0  0  0  0  0  0  0  0  0
    1.8892  -10.3985   17.7511 N   0  0  0  0  0  0  0  0  0  0  0  0
    9.6210   -0.6952   24.0976 C   0  0  0  0  0  0  0  0  0  0  0  0
    7.0792   -9.0217   17.1429 C   0  0  0  0  0  0  0  0  0  0  0  0
    3.1713  -10.1816   17.6634 C   0  0  0  0  0  0  0  0  0  0  0  0
    2.7878   -8.3822   16.2137 C   0  0  0  0  0  0  0  0  0  0  0  0
    9.4601   -2.6590   25.6528 C   0  0  0  0  0  0  0  0  0  0  0  0
   10.1182   -1.5672   23.1165 C   0  0  0  0  0  0  0  0  0  0  0  0
    1.0552   -9.6360   17.0650 C   0  0  0  0  0  0  0  0  0  0  0  0
    3.6519   -9.1783   16.9039 C   0  0  0  0  0  0  0  0  0  0  0  0
    7.8675   -7.0096   15.9415 C   0  0  0  0  0  0  0  0  0  0  0  0
    5.9733   -9.6553   17.3832 N   0  0  0  0  0  0  0  0  0  0  0  0
   10.2411   -2.9363   23.4301 C   0  0  0  0  0  0  0  0  0  0  0  0
   10.7288   -3.8197   19.9525 C   0  0  0  0  0  0  0  0  0  0  0  0
   10.1189   -5.0054   19.6987 C   0  0  0  0  0  0  0  0  0  0  0  0
  1  3  4  0
  1  7  4  0
  2 21  4  0
  2 27  4  0
  3  9  4  0
  3 10  4  0
  4  8  4  0
  4 18  4  0
  4 25  1  0
  5  9  4  0
  5 12  4  0
  6 13  1  0
  6 27  1  0
  7 28  4  0
  8 11  4  0
  9 29  4  0
 10 12  4  0
 11 24  1  0
 11 26  4  0
 12 25  1  0
 13 28  1  0
 14 20  4  0
 14 23  4  0
 15 17  4  0
 15 21  4  0
 16 19  4  0
 16 23  4  0
 17 22  4  0
 18 26  4  0
 19 24  4  0
 20 24  4  0
 22 27  4  0
 28 29  4  0
M  END
$$$$

 Created by Python create_sdf_string function

 29 33  0  0  0  0  0  0  0  0999 V2000
   10.7215   -3.3326   17.6437 C   0  0  0  0  0  0  0  0  0  0  0  0
    9.9489   -3.4675   24.6487 N   0  0  0  0  0  0  0  0  0  0  0  0
   10.0172   -4.4740   17.4101 C   0  0  0  0  0  0  0  0  0  0  0  0
    6.9051   -7.9575   16.4222 C   0  0  0  0  0  0  0  0  0  0  0  0
    8.9969   -6.3552   17.9668 N   0  0  0  0  0  0  0  0  0  0  0  0
   10.6702   -3.9051   22.4070 C   0  0  0  0  0  0  0  0  0  0  0  0
   11.0625   -3.0028   18.8894 C   0  0  0  0  0  0  0  0  0  0  0  0
    5.6180   -7.9194   16.1754 O   0  0  0  0  0  0  0  0  0  0  0  0
    9.7259   -5.3080   18.4485 C   0  0  0  0  0  0  0  0  0  0  0  0
    9.4578   -5.0200   16.3036 N   0  0  0  0  0  0  0  0  0  0  0  0
    5.0287   -8.9365   16.8223 C   0  0  0  0  0  0  0  0  0  0  0  0
    8.7742   -6.1498   16.6764 C   0  0  0  0  0  0  0  0  0  0  0  0
   10.9418   -3.4032   21.2053 O   0  0  0  0  0  0  0  0  0  0  0  0
    1.4797   -8.6258   16.2950 C   0  0  0  0  0  0  0  0  0  0  0  0
    9.2861   -1.2743   25.3585 C   0  0  0  0  0  0  0  0  0  0  0  0
    1.8892  -10.3985   17.7511 N   0  0  0  0  0  0  0  0  0  0  0  0
    9.6210   -0.6952   24.0976 C   0  0  0  0  0  0  0  0  0  0  0  0
    7.0792   -9.0217   17.1429 C   0  0  0  0  0  0  0  0  0  0  0  0
    3.1713  -10.1816   17.6634 C   0  0  0  0  0  0  0  0  0  0  0  0
    2.7878   -8.3822   16.2137 C   0  0  0  0  0  0  0  0  0  0  0  0
    9.4601   -2.6590   25.6528 C   0  0  0  0  0  0  0  0  0  0  0  0
   10.1182   -1.5672   23.1165 C   0  0  0  0  0  0  0  0  0  0  0  0
    1.0552   -9.6360   17.0650 C   0  0  0  0  0  0  0  0  0  0  0  0
    3.6519   -9.1783   16.9039 C   0  0  0  0  0  0  0  0  0  0  0  0
    7.8675   -7.0096   15.9415 C   0  0  0  0  0  0  0  0  0  0  0  0
    5.9733   -9.6553   17.3832 N   0  0  0  0  0  0  0  0  0  0  0  0
   10.2411   -2.9363   23.4301 C   0  0  0  0  0  0  0  0  0  0  0  0
   10.7288   -3.8197   19.9525 C   0  0  0  0  0  0  0  0  0  0  0  0
   10.1189   -5.0054   19.6987 C   0  0  0  0  0  0  0  0  0  0  0  0
  1  3  4  0
  1  7  4  0
  2 21  4  0
  2 27  4  0
  3  9  4  0
  3 10  4  0
  4  8  4  0
  4 18  4  0
  4 25  1  0
  5  9  4  0
  5 12  4  0
  6 13  1  0
  6 27  1  0
  7 28  4  0
  8 11  4  0
  9 29  4  0
 10 12  4  0
 11 24  1  0
 11 26  4  0
 12 25  1  0
 13 28  1  0
 14 20  4  0
 14 23  4  0
 15 17  4  0
 15 21  4  0
 16 19  4  0
 16 23  4  0
 17 22  4  0
 18 26  4  0
 19 24  4  0
 20 24  4  0
 22 27  4  0
 28 29  4  0
M  END
$$$$

 Created by Python create_sdf_string function

 29 33  0  0  0  0  0  0  0  0999 V2000
   10.7215   -3.3326   17.6437 C   0  0  0  0  0  0  0  0  0  0  0  0
    9.9489   -3.4675   24.6487 N   0  0  0  0  0  0  0  0  0  0  0  0
   10.0172   -4.4740   17.4101 C   0  0  0  0  0  0  0  0  0  0  0  0
    6.9051   -7.9575   16.4222 C   0  0  0  0  0  0  0  0  0  0  0  0
    8.9969   -6.3552   17.9668 N   0  0  0  0  0  0  0  0  0  0  0  0
   10.6702   -3.9051   22.4070 C   0  0  0  0  0  0  0  0  0  0  0  0
   11.0625   -3.0028   18.8894 C   0  0  0  0  0  0  0  0  0  0  0  0
    5.6180   -7.9194   16.1754 O   0  0  0  0  0  0  0  0  0  0  0  0
    9.7259   -5.3080   18.4485 C   0  0  0  0  0  0  0  0  0  0  0  0
    9.4578   -5.0200   16.3036 N   0  0  0  0  0  0  0  0  0  0  0  0
    5.0287   -8.9365   16.8223 C   0  0  0  0  0  0  0  0  0  0  0  0
    8.7742   -6.1498   16.6764 C   0  0  0  0  0  0  0  0  0  0  0  0
   10.9418   -3.4032   21.2053 O   0  0  0  0  0  0  0  0  0  0  0  0
    1.4797   -8.6258   16.2950 C   0  0  0  0  0  0  0  0  0  0  0  0
    9.2861   -1.2743   25.3585 C   0  0  0  0  0  0  0  0  0  0  0  0
    1.8892  -10.3985   17.7511 N   0  0  0  0  0  0  0  0  0  0  0  0
    9.6210   -0.6952   24.0976 C   0  0  0  0  0  0  0  0  0  0  0  0
    7.0792   -9.0217   17.1429 C   0  0  0  0  0  0  0  0  0  0  0  0
    3.1713  -10.1816   17.6634 C   0  0  0  0  0  0  0  0  0  0  0  0
    2.7878   -8.3822   16.2137 C   0  0  0  0  0  0  0  0  0  0  0  0
    9.4601   -2.6590   25.6528 C   0  0  0  0  0  0  0  0  0  0  0  0
   10.1182   -1.5672   23.1165 C   0  0  0  0  0  0  0  0  0  0  0  0
    1.0552   -9.6360   17.0650 C   0  0  0  0  0  0  0  0  0  0  0  0
    3.6519   -9.1783   16.9039 C   0  0  0  0  0  0  0  0  0  0  0  0
    7.8675   -7.0096   15.9415 C   0  0  0  0  0  0  0  0  0  0  0  0
    5.9733   -9.6553   17.3832 N   0  0  0  0  0  0  0  0  0  0  0  0
   10.2411   -2.9363   23.4301 C   0  0  0  0  0  0  0  0  0  0  0  0
   10.7288   -3.8197   19.9525 C   0  0  0  0  0  0  0  0  0  0  0  0
   10.1189   -5.0054   19.6987 C   0  0  0  0  0  0  0  0  0  0  0  0
  1  3  4  0
  1  7  4  0
  2 21  4  0
  2 27  4  0
  3  9  4  0
  3 10  4  0
  4  8  4  0
  4 18  4  0
  4 25  1  0
  5  9  4  0
  5 12  4  0
  6 13  1  0
  6 27  1  0
  7 28  4  0
  8 11  4  0
  9 29  4  0
 10 12  4  0
 11 24  1  0
 11 26  4  0
 12 25  1  0
 13 28  1  0
 14 20  4  0
 14 23  4  0
 15 17  4  0
 15 21  4  0
 16 19  4  0
 16 23  4  0
 17 22  4  0
 18 26  4  0
 19 24  4  0
 20 24  4  0
 22 27  4  0
 28 29  4  0
M  END
$$$$

 Created by Python create_sdf_string function

 29 33  0  0  0  0  0  0  0  0999 V2000
   10.7215   -3.3326   17.6437 C   0  0  0  0  0  0  0  0  0  0  0  0
    9.9489   -3.4675   24.6487 N   0  0  0  0  0  0  0  0  0  0  0  0
   10.0172   -4.4740   17.4101 C   0  0  0  0  0  0  0  0  0  0  0  0
    6.9051   -7.9575   16.4222 C   0  0  0  0  0  0  0  0  0  0  0  0
    8.9969   -6.3552   17.9668 N   0  0  0  0  0  0  0  0  0  0  0  0
   10.6702   -3.9051   22.4070 C   0  0  0  0  0  0  0  0  0  0  0  0
   11.0625   -3.0028   18.8894 C   0  0  0  0  0  0  0  0  0  0  0  0
    5.6180   -7.9194   16.1754 O   0  0  0  0  0  0  0  0  0  0  0  0
    9.7259   -5.3080   18.4485 C   0  0  0  0  0  0  0  0  0  0  0  0
    9.4578   -5.0200   16.3036 N   0  0  0  0  0  0  0  0  0  0  0  0
    5.0287   -8.9365   16.8223 C   0  0  0  0  0  0  0  0  0  0  0  0
    8.7742   -6.1498   16.6764 C   0  0  0  0  0  0  0  0  0  0  0  0
   10.9418   -3.4032   21.2053 O   0  0  0  0  0  0  0  0  0  0  0  0
    1.4797   -8.6258   16.2950 C   0  0  0  0  0  0  0  0  0  0  0  0
    9.2861   -1.2743   25.3585 C   0  0  0  0  0  0  0  0  0  0  0  0
    1.8892  -10.3985   17.7511 N   0  0  0  0  0  0  0  0  0  0  0  0
    9.6210   -0.6952   24.0976 C   0  0  0  0  0  0  0  0  0  0  0  0
    7.0792   -9.0217   17.1429 C   0  0  0  0  0  0  0  0  0  0  0  0
    3.1713  -10.1816   17.6634 C   0  0  0  0  0  0  0  0  0  0  0  0
    2.7878   -8.3822   16.2137 C   0  0  0  0  0  0  0  0  0  0  0  0
    9.4601   -2.6590   25.6528 C   0  0  0  0  0  0  0  0  0  0  0  0
   10.1182   -1.5672   23.1165 C   0  0  0  0  0  0  0  0  0  0  0  0
    1.0552   -9.6360   17.0650 C   0  0  0  0  0  0  0  0  0  0  0  0
    3.6519   -9.1783   16.9039 C   0  0  0  0  0  0  0  0  0  0  0  0
    7.8675   -7.0096   15.9415 C   0  0  0  0  0  0  0  0  0  0  0  0
    5.9733   -9.6553   17.3832 N   0  0  0  0  0  0  0  0  0  0  0  0
   10.2411   -2.9363   23.4301 C   0  0  0  0  0  0  0  0  0  0  0  0
   10.7288   -3.8197   19.9525 C   0  0  0  0  0  0  0  0  0  0  0  0
   10.1189   -5.0054   19.6987 C   0  0  0  0  0  0  0  0  0  0  0  0
  1  3  4  0
  1  7  4  0
  2 21  4  0
  2 27  4  0
  3  9  4  0
  3 10  4  0
  4  8  4  0
  4 18  4  0
  4 25  1  0
  5  9  4  0
  5 12  4  0
  6 13  1  0
  6 27  1  0
  7 28  4  0
  8 11  4  0
  9 29  4  0
 10 12  4  0
 11 24  1  0
 11 26  4  0
 12 25  1  0
 13 28  1  0
 14 20  4  0
 14 23  4  0
 15 17  4  0
 15 21  4  0
 16 19  4  0
 16 23  4  0
 17 22  4  0
 18 26  4  0
 19 24  4  0
 20 24  4  0
 22 27  4  0
 28 29  4  0
M  END
$$$$

 Created by Python create_sdf_string function

 29 33  0  0  0  0  0  0  0  0999 V2000
   10.7215   -3.3326   17.6437 C   0  0  0  0  0  0  0  0  0  0  0  0
    9.9489   -3.4675   24.6487 N   0  0  0  0  0  0  0  0  0  0  0  0
   10.0172   -4.4740   17.4101 C   0  0  0  0  0  0  0  0  0  0  0  0
    6.9051   -7.9575   16.4222 C   0  0  0  0  0  0  0  0  0  0  0  0
    8.9969   -6.3552   17.9668 N   0  0  0  0  0  0  0  0  0  0  0  0
   10.6702   -3.9051   22.4070 C   0  0  0  0  0  0  0  0  0  0  0  0
   11.0625   -3.0028   18.8894 C   0  0  0  0  0  0  0  0  0  0  0  0
    5.6180   -7.9194   16.1754 O   0  0  0  0  0  0  0  0  0  0  0  0
    9.7259   -5.3080   18.4485 C   0  0  0  0  0  0  0  0  0  0  0  0
    9.4578   -5.0200   16.3036 N   0  0  0  0  0  0  0  0  0  0  0  0
    5.0287   -8.9365   16.8223 C   0  0  0  0  0  0  0  0  0  0  0  0
    8.7742   -6.1498   16.6764 C   0  0  0  0  0  0  0  0  0  0  0  0
   10.9418   -3.4032   21.2053 O   0  0  0  0  0  0  0  0  0  0  0  0
    1.4797   -8.6258   16.2950 C   0  0  0  0  0  0  0  0  0  0  0  0
    9.2861   -1.2743   25.3585 C   0  0  0  0  0  0  0  0  0  0  0  0
    1.8892  -10.3985   17.7511 N   0  0  0  0  0  0  0  0  0  0  0  0
    9.6210   -0.6952   24.0976 C   0  0  0  0  0  0  0  0  0  0  0  0
    7.0792   -9.0217   17.1429 C   0  0  0  0  0  0  0  0  0  0  0  0
    3.1713  -10.1816   17.6634 C   0  0  0  0  0  0  0  0  0  0  0  0
    2.7878   -8.3822   16.2137 C   0  0  0  0  0  0  0  0  0  0  0  0
    9.4601   -2.6590   25.6528 C   0  0  0  0  0  0  0  0  0  0  0  0
   10.1182   -1.5672   23.1165 C   0  0  0  0  0  0  0  0  0  0  0  0
    1.0552   -9.6360   17.0650 C   0  0  0  0  0  0  0  0  0  0  0  0
    3.6519   -9.1783   16.9039 C   0  0  0  0  0  0  0  0  0  0  0  0
    7.8675   -7.0096   15.9415 C   0  0  0  0  0  0  0  0  0  0  0  0
    5.9733   -9.6553   17.3832 N   0  0  0  0  0  0  0  0  0  0  0  0
   10.2411   -2.9363   23.4301 C   0  0  0  0  0  0  0  0  0  0  0  0
   10.7288   -3.8197   19.9525 C   0  0  0  0  0  0  0  0  0  0  0  0
   10.1189   -5.0054   19.6987 C   0  0  0  0  0  0  0  0  0  0  0  0
  1  3  4  0
  1  7  4  0
  2 21  4  0
  2 27  4  0
  3  9  4  0
  3 10  4  0
  4  8  4  0
  4 18  4  0
  4 25  1  0
  5  9  4  0
  5 12  4  0
  6 13  1  0
  6 27  1  0
  7 28  4  0
  8 11  4  0
  9 29  4  0
 10 12  4  0
 11 24  1  0
 11 26  4  0
 12 25  1  0
 13 28  1  0
 14 20  4  0
 14 23  4  0
 15 17  4  0
 15 21  4  0
 16 19  4  0
 16 23  4  0
 17 22  4  0
 18 26  4  0
 19 24  4  0
 20 24  4  0
 22 27  4  0
 28 29  4  0
M  END
$$$$

 Created by Python create_sdf_string function

 29 33  0  0  0  0  0  0  0  0999 V2000
   10.7215   -3.3326   17.6437 C   0  0  0  0  0  0  0  0  0  0  0  0
    9.9489   -3.4675   24.6487 N   0  0  0  0  0  0  0  0  0  0  0  0
   10.0172   -4.4740   17.4101 C   0  0  0  0  0  0  0  0  0  0  0  0
    6.9051   -7.9575   16.4222 C   0  0  0  0  0  0  0  0  0  0  0  0
    8.9969   -6.3552   17.9668 N   0  0  0  0  0  0  0  0  0  0  0  0
   10.6702   -3.9051   22.4070 C   0  0  0  0  0  0  0  0  0  0  0  0
   11.0625   -3.0028   18.8894 C   0  0  0  0  0  0  0  0  0  0  0  0
    5.6180   -7.9194   16.1754 O   0  0  0  0  0  0  0  0  0  0  0  0
    9.7259   -5.3080   18.4485 C   0  0  0  0  0  0  0  0  0  0  0  0
    9.4578   -5.0200   16.3036 N   0  0  0  0  0  0  0  0  0  0  0  0
    5.0287   -8.9365   16.8223 C   0  0  0  0  0  0  0  0  0  0  0  0
    8.7742   -6.1498   16.6764 C   0  0  0  0  0  0  0  0  0  0  0  0
   10.9418   -3.4032   21.2053 O   0  0  0  0  0  0  0  0  0  0  0  0
    1.4797   -8.6258   16.2950 C   0  0  0  0  0  0  0  0  0  0  0  0
    9.2861   -1.2743   25.3585 C   0  0  0  0  0  0  0  0  0  0  0  0
    1.8892  -10.3985   17.7511 N   0  0  0  0  0  0  0  0  0  0  0  0
    9.6210   -0.6952   24.0976 C   0  0  0  0  0  0  0  0  0  0  0  0
    7.0792   -9.0217   17.1429 C   0  0  0  0  0  0  0  0  0  0  0  0
    3.1713  -10.1816   17.6634 C   0  0  0  0  0  0  0  0  0  0  0  0
    2.7878   -8.3822   16.2137 C   0  0  0  0  0  0  0  0  0  0  0  0
    9.4601   -2.6590   25.6528 C   0  0  0  0  0  0  0  0  0  0  0  0
   10.1182   -1.5672   23.1165 C   0  0  0  0  0  0  0  0  0  0  0  0
    1.0552   -9.6360   17.0650 C   0  0  0  0  0  0  0  0  0  0  0  0
    3.6519   -9.1783   16.9039 C   0  0  0  0  0  0  0  0  0  0  0  0
    7.8675   -7.0096   15.9415 C   0  0  0  0  0  0  0  0  0  0  0  0
    5.9733   -9.6553   17.3832 N   0  0  0  0  0  0  0  0  0  0  0  0
   10.2411   -2.9363   23.4301 C   0  0  0  0  0  0  0  0  0  0  0  0
   10.7288   -3.8197   19.9525 C   0  0  0  0  0  0  0  0  0  0  0  0
   10.1189   -5.0054   19.6987 C   0  0  0  0  0  0  0  0  0  0  0  0
  1  3  4  0
  1  7  4  0
  2 21  4  0
  2 27  4  0
  3  9  4  0
  3 10  4  0
  4  8  4  0
  4 18  4  0
  4 25  1  0
  5  9  4  0
  5 12  4  0
  6 13  1  0
  6 27  1  0
  7 28  4  0
  8 11  4  0
  9 29  4  0
 10 12  4  0
 11 24  1  0
 11 26  4  0
 12 25  1  0
 13 28  1  0
 14 20  4  0
 14 23  4  0
 15 17  4  0
 15 21  4  0
 16 19  4  0
 16 23  4  0
 17 22  4  0
 18 26  4  0
 19 24  4  0
 20 24  4  0
 22 27  4  0
 28 29  4  0
M  END
$$$$

 Created by Python create_sdf_string function

 29 33  0  0  0  0  0  0  0  0999 V2000
   10.7215   -3.3326   17.6437 C   0  0  0  0  0  0  0  0  0  0  0  0
    9.9489   -3.4675   24.6487 N   0  0  0  0  0  0  0  0  0  0  0  0
   10.0172   -4.4740   17.4101 C   0  0  0  0  0  0  0  0  0  0  0  0
    6.9051   -7.9575   16.4222 C   0  0  0  0  0  0  0  0  0  0  0  0
    8.9969   -6.3552   17.9668 N   0  0  0  0  0  0  0  0  0  0  0  0
   10.6702   -3.9051   22.4070 C   0  0  0  0  0  0  0  0  0  0  0  0
   11.0625   -3.0028   18.8894 C   0  0  0  0  0  0  0  0  0  0  0  0
    5.6180   -7.9194   16.1754 O   0  0  0  0  0  0  0  0  0  0  0  0
    9.7259   -5.3080   18.4485 C   0  0  0  0  0  0  0  0  0  0  0  0
    9.4578   -5.0200   16.3036 N   0  0  0  0  0  0  0  0  0  0  0  0
    5.0287   -8.9365   16.8223 C   0  0  0  0  0  0  0  0  0  0  0  0
    8.7742   -6.1498   16.6764 C   0  0  0  0  0  0  0  0  0  0  0  0
   10.9418   -3.4032   21.2053 O   0  0  0  0  0  0  0  0  0  0  0  0
    1.4797   -8.6258   16.2950 C   0  0  0  0  0  0  0  0  0  0  0  0
    9.2861   -1.2743   25.3585 C   0  0  0  0  0  0  0  0  0  0  0  0
    1.8892  -10.3985   17.7511 N   0  0  0  0  0  0  0  0  0  0  0  0
    9.6210   -0.6952   24.0976 C   0  0  0  0  0  0  0  0  0  0  0  0
    7.0792   -9.0217   17.1429 C   0  0  0  0  0  0  0  0  0  0  0  0
    3.1713  -10.1816   17.6634 C   0  0  0  0  0  0  0  0  0  0  0  0
    2.7878   -8.3822   16.2137 C   0  0  0  0  0  0  0  0  0  0  0  0
    9.4601   -2.6590   25.6528 C   0  0  0  0  0  0  0  0  0  0  0  0
   10.1182   -1.5672   23.1165 C   0  0  0  0  0  0  0  0  0  0  0  0
    1.0552   -9.6360   17.0650 C   0  0  0  0  0  0  0  0  0  0  0  0
    3.6519   -9.1783   16.9039 C   0  0  0  0  0  0  0  0  0  0  0  0
    7.8675   -7.0096   15.9415 C   0  0  0  0  0  0  0  0  0  0  0  0
    5.9733   -9.6553   17.3832 N   0  0  0  0  0  0  0  0  0  0  0  0
   10.2411   -2.9363   23.4301 C   0  0  0  0  0  0  0  0  0  0  0  0
   10.7288   -3.8197   19.9525 C   0  0  0  0  0  0  0  0  0  0  0  0
   10.1189   -5.0054   19.6987 C   0  0  0  0  0  0  0  0  0  0  0  0
  1  3  4  0
  1  7  4  0
  2 21  4  0
  2 27  4  0
  3  9  4  0
  3 10  4  0
  4  8  4  0
  4 18  4  0
  4 25  1  0
  5  9  4  0
  5 12  4  0
  6 13  1  0
  6 27  1  0
  7 28  4  0
  8 11  4  0
  9 29  4  0
 10 12  4  0
 11 24  1  0
 11 26  4  0
 12 25  1  0
 13 28  1  0
 14 20  4  0
 14 23  4  0
 15 17  4  0
 15 21  4  0
 16 19  4  0
 16 23  4  0
 17 22  4  0
 18 26  4  0
 19 24  4  0
 20 24  4  0
 22 27  4  0
 28 29  4  0
M  END
$$$$

 Created by Python create_sdf_string function

 29 33  0  0  0  0  0  0  0  0999 V2000
   10.7215   -3.3326   17.6437 C   0  0  0  0  0  0  0  0  0  0  0  0
    9.9489   -3.4675   24.6487 N   0  0  0  0  0  0  0  0  0  0  0  0
   10.0172   -4.4740   17.4101 C   0  0  0  0  0  0  0  0  0  0  0  0
    6.9051   -7.9575   16.4222 C   0  0  0  0  0  0  0  0  0  0  0  0
    8.9969   -6.3552   17.9668 N   0  0  0  0  0  0  0  0  0  0  0  0
   10.6702   -3.9051   22.4070 C   0  0  0  0  0  0  0  0  0  0  0  0
   11.0625   -3.0028   18.8894 C   0  0  0  0  0  0  0  0  0  0  0  0
    5.6180   -7.9194   16.1754 O   0  0  0  0  0  0  0  0  0  0  0  0
    9.7259   -5.3080   18.4485 C   0  0  0  0  0  0  0  0  0  0  0  0
    9.4578   -5.0200   16.3036 N   0  0  0  0  0  0  0  0  0  0  0  0
    5.0287   -8.9365   16.8223 C   0  0  0  0  0  0  0  0  0  0  0  0
    8.7742   -6.1498   16.6764 C   0  0  0  0  0  0  0  0  0  0  0  0
   10.9418   -3.4032   21.2053 O   0  0  0  0  0  0  0  0  0  0  0  0
    1.4797   -8.6258   16.2950 C   0  0  0  0  0  0  0  0  0  0  0  0
    9.2861   -1.2743   25.3585 C   0  0  0  0  0  0  0  0  0  0  0  0
    1.8892  -10.3985   17.7511 N   0  0  0  0  0  0  0  0  0  0  0  0
    9.6210   -0.6952   24.0976 C   0  0  0  0  0  0  0  0  0  0  0  0
    7.0792   -9.0217   17.1429 C   0  0  0  0  0  0  0  0  0  0  0  0
    3.1713  -10.1816   17.6634 C   0  0  0  0  0  0  0  0  0  0  0  0
    2.7878   -8.3822   16.2137 C   0  0  0  0  0  0  0  0  0  0  0  0
    9.4601   -2.6590   25.6528 C   0  0  0  0  0  0  0  0  0  0  0  0
   10.1182   -1.5672   23.1165 C   0  0  0  0  0  0  0  0  0  0  0  0
    1.0552   -9.6360   17.0650 C   0  0  0  0  0  0  0  0  0  0  0  0
    3.6519   -9.1783   16.9039 C   0  0  0  0  0  0  0  0  0  0  0  0
    7.8675   -7.0096   15.9415 C   0  0  0  0  0  0  0  0  0  0  0  0
    5.9733   -9.6553   17.3832 N   0  0  0  0  0  0  0  0  0  0  0  0
   10.2411   -2.9363   23.4301 C   0  0  0  0  0  0  0  0  0  0  0  0
   10.7288   -3.8197   19.9525 C   0  0  0  0  0  0  0  0  0  0  0  0
   10.1189   -5.0054   19.6987 C   0  0  0  0  0  0  0  0  0  0  0  0
  1  3  4  0
  1  7  4  0
  2 21  4  0
  2 27  4  0
  3  9  4  0
  3 10  4  0
  4  8  4  0
  4 18  4  0
  4 25  1  0
  5  9  4  0
  5 12  4  0
  6 13  1  0
  6 27  1  0
  7 28  4  0
  8 11  4  0
  9 29  4  0
 10 12  4  0
 11 24  1  0
 11 26  4  0
 12 25  1  0
 13 28  1  0
 14 20  4  0
 14 23  4  0
 15 17  4  0
 15 21  4  0
 16 19  4  0
 16 23  4  0
 17 22  4  0
 18 26  4  0
 19 24  4  0
 20 24  4  0
 22 27  4  0
 28 29  4  0
M  END
$$$$

 Created by Python create_sdf_string function

 29 33  0  0  0  0  0  0  0  0999 V2000
   10.7215   -3.3326   17.6437 C   0  0  0  0  0  0  0  0  0  0  0  0
    9.9489   -3.4675   24.6487 N   0  0  0  0  0  0  0  0  0  0  0  0
   10.0172   -4.4740   17.4101 C   0  0  0  0  0  0  0  0  0  0  0  0
    6.9051   -7.9575   16.4222 C   0  0  0  0  0  0  0  0  0  0  0  0
    8.9969   -6.3552   17.9668 N   0  0  0  0  0  0  0  0  0  0  0  0
   10.6702   -3.9051   22.4070 C   0  0  0  0  0  0  0  0  0  0  0  0
   11.0625   -3.0028   18.8894 C   0  0  0  0  0  0  0  0  0  0  0  0
    5.6180   -7.9194   16.1754 O   0  0  0  0  0  0  0  0  0  0  0  0
    9.7259   -5.3080   18.4485 C   0  0  0  0  0  0  0  0  0  0  0  0
    9.4578   -5.0200   16.3036 N   0  0  0  0  0  0  0  0  0  0  0  0
    5.0287   -8.9365   16.8223 C   0  0  0  0  0  0  0  0  0  0  0  0
    8.7742   -6.1498   16.6764 C   0  0  0  0  0  0  0  0  0  0  0  0
   10.9418   -3.4032   21.2053 O   0  0  0  0  0  0  0  0  0  0  0  0
    1.4797   -8.6258   16.2950 C   0  0  0  0  0  0  0  0  0  0  0  0
    9.2861   -1.2743   25.3585 C   0  0  0  0  0  0  0  0  0  0  0  0
    1.8892  -10.3985   17.7511 N   0  0  0  0  0  0  0  0  0  0  0  0
    9.6210   -0.6952   24.0976 C   0  0  0  0  0  0  0  0  0  0  0  0
    7.0792   -9.0217   17.1429 C   0  0  0  0  0  0  0  0  0  0  0  0
    3.1713  -10.1816   17.6634 C   0  0  0  0  0  0  0  0  0  0  0  0
    2.7878   -8.3822   16.2137 C   0  0  0  0  0  0  0  0  0  0  0  0
    9.4601   -2.6590   25.6528 C   0  0  0  0  0  0  0  0  0  0  0  0
   10.1182   -1.5672   23.1165 C   0  0  0  0  0  0  0  0  0  0  0  0
    1.0552   -9.6360   17.0650 C   0  0  0  0  0  0  0  0  0  0  0  0
    3.6519   -9.1783   16.9039 C   0  0  0  0  0  0  0  0  0  0  0  0
    7.8675   -7.0096   15.9415 C   0  0  0  0  0  0  0  0  0  0  0  0
    5.9733   -9.6553   17.3832 N   0  0  0  0  0  0  0  0  0  0  0  0
   10.2411   -2.9363   23.4301 C   0  0  0  0  0  0  0  0  0  0  0  0
   10.7288   -3.8197   19.9525 C   0  0  0  0  0  0  0  0  0  0  0  0
   10.1189   -5.0054   19.6987 C   0  0  0  0  0  0  0  0  0  0  0  0
  1  3  4  0
  1  7  4  0
  2 21  4  0
  2 27  4  0
  3  9  4  0
  3 10  4  0
  4  8  4  0
  4 18  4  0
  4 25  1  0
  5  9  4  0
  5 12  4  0
  6 13  1  0
  6 27  1  0
  7 28  4  0
  8 11  4  0
  9 29  4  0
 10 12  4  0
 11 24  1  0
 11 26  4  0
 12 25  1  0
 13 28  1  0
 14 20  4  0
 14 23  4  0
 15 17  4  0
 15 21  4  0
 16 19  4  0
 16 23  4  0
 17 22  4  0
 18 26  4  0
 19 24  4  0
 20 24  4  0
 22 27  4  0
 28 29  4  0
M  END
$$$$

 Created by Python create_sdf_string function

 29 33  0  0  0  0  0  0  0  0999 V2000
   10.7215   -3.3326   17.6437 C   0  0  0  0  0  0  0  0  0  0  0  0
    9.9489   -3.4675   24.6487 N   0  0  0  0  0  0  0  0  0  0  0  0
   10.0172   -4.4740   17.4101 C   0  0  0  0  0  0  0  0  0  0  0  0
    6.9051   -7.9575   16.4222 C   0  0  0  0  0  0  0  0  0  0  0  0
    8.9969   -6.3552   17.9668 N   0  0  0  0  0  0  0  0  0  0  0  0
   10.6702   -3.9051   22.4070 C   0  0  0  0  0  0  0  0  0  0  0  0
   11.0625   -3.0028   18.8894 C   0  0  0  0  0  0  0  0  0  0  0  0
    5.6180   -7.9194   16.1754 O   0  0  0  0  0  0  0  0  0  0  0  0
    9.7259   -5.3080   18.4485 C   0  0  0  0  0  0  0  0  0  0  0  0
    9.4578   -5.0200   16.3036 N   0  0  0  0  0  0  0  0  0  0  0  0
    5.0287   -8.9365   16.8223 C   0  0  0  0  0  0  0  0  0  0  0  0
    8.7742   -6.1498   16.6764 C   0  0  0  0  0  0  0  0  0  0  0  0
   10.9418   -3.4032   21.2053 O   0  0  0  0  0  0  0  0  0  0  0  0
    1.4797   -8.6258   16.2950 C   0  0  0  0  0  0  0  0  0  0  0  0
    9.2861   -1.2743   25.3585 C   0  0  0  0  0  0  0  0  0  0  0  0
    1.8892  -10.3985   17.7511 N   0  0  0  0  0  0  0  0  0  0  0  0
    9.6210   -0.6952   24.0976 C   0  0  0  0  0  0  0  0  0  0  0  0
    7.0792   -9.0217   17.1429 C   0  0  0  0  0  0  0  0  0  0  0  0
    3.1713  -10.1816   17.6634 C   0  0  0  0  0  0  0  0  0  0  0  0
    2.7878   -8.3822   16.2137 C   0  0  0  0  0  0  0  0  0  0  0  0
    9.4601   -2.6590   25.6528 C   0  0  0  0  0  0  0  0  0  0  0  0
   10.1182   -1.5672   23.1165 C   0  0  0  0  0  0  0  0  0  0  0  0
    1.0552   -9.6360   17.0650 C   0  0  0  0  0  0  0  0  0  0  0  0
    3.6519   -9.1783   16.9039 C   0  0  0  0  0  0  0  0  0  0  0  0
    7.8675   -7.0096   15.9415 C   0  0  0  0  0  0  0  0  0  0  0  0
    5.9733   -9.6553   17.3832 N   0  0  0  0  0  0  0  0  0  0  0  0
   10.2411   -2.9363   23.4301 C   0  0  0  0  0  0  0  0  0  0  0  0
   10.7288   -3.8197   19.9525 C   0  0  0  0  0  0  0  0  0  0  0  0
   10.1189   -5.0054   19.6987 C   0  0  0  0  0  0  0  0  0  0  0  0
  1  3  4  0
  1  7  4  0
  2 21  4  0
  2 27  4  0
  3  9  4  0
  3 10  4  0
  4  8  4  0
  4 18  4  0
  4 25  1  0
  5  9  4  0
  5 12  4  0
  6 13  1  0
  6 27  1  0
  7 28  4  0
  8 11  4  0
  9 29  4  0
 10 12  4  0
 11 24  1  0
 11 26  4  0
 12 25  1  0
 13 28  1  0
 14 20  4  0
 14 23  4  0
 15 17  4  0
 15 21  4  0
 16 19  4  0
 16 23  4  0
 17 22  4  0
 18 26  4  0
 19 24  4  0
 20 24  4  0
 22 27  4  0
 28 29  4  0
M  END
$$$$

 Created by Python create_sdf_string function

 29 33  0  0  0  0  0  0  0  0999 V2000
   10.7215   -3.3326   17.6437 C   0  0  0  0  0  0  0  0  0  0  0  0
    9.9489   -3.4675   24.6487 N   0  0  0  0  0  0  0  0  0  0  0  0
   10.0172   -4.4740   17.4101 C   0  0  0  0  0  0  0  0  0  0  0  0
    6.9051   -7.9575   16.4222 C   0  0  0  0  0  0  0  0  0  0  0  0
    8.9969   -6.3552   17.9668 N   0  0  0  0  0  0  0  0  0  0  0  0
   10.6702   -3.9051   22.4070 C   0  0  0  0  0  0  0  0  0  0  0  0
   11.0625   -3.0028   18.8894 C   0  0  0  0  0  0  0  0  0  0  0  0
    5.6180   -7.9194   16.1754 O   0  0  0  0  0  0  0  0  0  0  0  0
    9.7259   -5.3080   18.4485 C   0  0  0  0  0  0  0  0  0  0  0  0
    9.4578   -5.0200   16.3036 N   0  0  0  0  0  0  0  0  0  0  0  0
    5.0287   -8.9365   16.8223 C   0  0  0  0  0  0  0  0  0  0  0  0
    8.7742   -6.1498   16.6764 C   0  0  0  0  0  0  0  0  0  0  0  0
   10.9418   -3.4032   21.2053 O   0  0  0  0  0  0  0  0  0  0  0  0
    1.4797   -8.6258   16.2950 C   0  0  0  0  0  0  0  0  0  0  0  0
    9.2861   -1.2743   25.3585 C   0  0  0  0  0  0  0  0  0  0  0  0
    1.8892  -10.3985   17.7511 N   0  0  0  0  0  0  0  0  0  0  0  0
    9.6210   -0.6952   24.0976 C   0  0  0  0  0  0  0  0  0  0  0  0
    7.0792   -9.0217   17.1429 C   0  0  0  0  0  0  0  0  0  0  0  0
    3.1713  -10.1816   17.6634 C   0  0  0  0  0  0  0  0  0  0  0  0
    2.7878   -8.3822   16.2137 C   0  0  0  0  0  0  0  0  0  0  0  0
    9.4601   -2.6590   25.6528 C   0  0  0  0  0  0  0  0  0  0  0  0
   10.1182   -1.5672   23.1165 C   0  0  0  0  0  0  0  0  0  0  0  0
    1.0552   -9.6360   17.0650 C   0  0  0  0  0  0  0  0  0  0  0  0
    3.6519   -9.1783   16.9039 C   0  0  0  0  0  0  0  0  0  0  0  0
    7.8675   -7.0096   15.9415 C   0  0  0  0  0  0  0  0  0  0  0  0
    5.9733   -9.6553   17.3832 N   0  0  0  0  0  0  0  0  0  0  0  0
   10.2411   -2.9363   23.4301 C   0  0  0  0  0  0  0  0  0  0  0  0
   10.7288   -3.8197   19.9525 C   0  0  0  0  0  0  0  0  0  0  0  0
   10.1189   -5.0054   19.6987 C   0  0  0  0  0  0  0  0  0  0  0  0
  1  3  4  0
  1  7  4  0
  2 21  4  0
  2 27  4  0
  3  9  4  0
  3 10  4  0
  4  8  4  0
  4 18  4  0
  4 25  1  0
  5  9  4  0
  5 12  4  0
  6 13  1  0
  6 27  1  0
  7 28  4  0
  8 11  4  0
  9 29  4  0
 10 12  4  0
 11 24  1  0
 11 26  4  0
 12 25  1  0
 13 28  1  0
 14 20  4  0
 14 23  4  0
 15 17  4  0
 15 21  4  0
 16 19  4  0
 16 23  4  0
 17 22  4  0
 18 26  4  0
 19 24  4  0
 20 24  4  0
 22 27  4  0
 28 29  4  0
M  END
$$$$

 Created by Python create_sdf_string function

 29 33  0  0  0  0  0  0  0  0999 V2000
   10.7215   -3.3326   17.6437 C   0  0  0  0  0  0  0  0  0  0  0  0
    9.9489   -3.4675   24.6487 N   0  0  0  0  0  0  0  0  0  0  0  0
   10.0172   -4.4740   17.4101 C   0  0  0  0  0  0  0  0  0  0  0  0
    6.9051   -7.9575   16.4222 C   0  0  0  0  0  0  0  0  0  0  0  0
    8.9969   -6.3552   17.9668 N   0  0  0  0  0  0  0  0  0  0  0  0
   10.6702   -3.9051   22.4070 C   0  0  0  0  0  0  0  0  0  0  0  0
   11.0625   -3.0028   18.8894 C   0  0  0  0  0  0  0  0  0  0  0  0
    5.6180   -7.9194   16.1754 O   0  0  0  0  0  0  0  0  0  0  0  0
    9.7259   -5.3080   18.4485 C   0  0  0  0  0  0  0  0  0  0  0  0
    9.4578   -5.0200   16.3036 N   0  0  0  0  0  0  0  0  0  0  0  0
    5.0287   -8.9365   16.8223 C   0  0  0  0  0  0  0  0  0  0  0  0
    8.7742   -6.1498   16.6764 C   0  0  0  0  0  0  0  0  0  0  0  0
   10.9418   -3.4032   21.2053 O   0  0  0  0  0  0  0  0  0  0  0  0
    1.4797   -8.6258   16.2950 C   0  0  0  0  0  0  0  0  0  0  0  0
    9.2861   -1.2743   25.3585 C   0  0  0  0  0  0  0  0  0  0  0  0
    1.8892  -10.3985   17.7511 N   0  0  0  0  0  0  0  0  0  0  0  0
    9.6210   -0.6952   24.0976 C   0  0  0  0  0  0  0  0  0  0  0  0
    7.0792   -9.0217   17.1429 C   0  0  0  0  0  0  0  0  0  0  0  0
    3.1713  -10.1816   17.6634 C   0  0  0  0  0  0  0  0  0  0  0  0
    2.7878   -8.3822   16.2137 C   0  0  0  0  0  0  0  0  0  0  0  0
    9.4601   -2.6590   25.6528 C   0  0  0  0  0  0  0  0  0  0  0  0
   10.1182   -1.5672   23.1165 C   0  0  0  0  0  0  0  0  0  0  0  0
    1.0552   -9.6360   17.0650 C   0  0  0  0  0  0  0  0  0  0  0  0
    3.6519   -9.1783   16.9039 C   0  0  0  0  0  0  0  0  0  0  0  0
    7.8675   -7.0096   15.9415 C   0  0  0  0  0  0  0  0  0  0  0  0
    5.9733   -9.6553   17.3832 N   0  0  0  0  0  0  0  0  0  0  0  0
   10.2411   -2.9363   23.4301 C   0  0  0  0  0  0  0  0  0  0  0  0
   10.7288   -3.8197   19.9525 C   0  0  0  0  0  0  0  0  0  0  0  0
   10.1189   -5.0054   19.6987 C   0  0  0  0  0  0  0  0  0  0  0  0
  1  3  4  0
  1  7  4  0
  2 21  4  0
  2 27  4  0
  3  9  4  0
  3 10  4  0
  4  8  4  0
  4 18  4  0
  4 25  1  0
  5  9  4  0
  5 12  4  0
  6 13  1  0
  6 27  1  0
  7 28  4  0
  8 11  4  0
  9 29  4  0
 10 12  4  0
 11 24  1  0
 11 26  4  0
 12 25  1  0
 13 28  1  0
 14 20  4  0
 14 23  4  0
 15 17  4  0
 15 21  4  0
 16 19  4  0
 16 23  4  0
 17 22  4  0
 18 26  4  0
 19 24  4  0
 20 24  4  0
 22 27  4  0
 28 29  4  0
M  END
$$$$

 Created by Python create_sdf_string function

 29 33  0  0  0  0  0  0  0  0999 V2000
   10.7215   -3.3326   17.6437 C   0  0  0  0  0  0  0  0  0  0  0  0
    9.9489   -3.4675   24.6487 N   0  0  0  0  0  0  0  0  0  0  0  0
   10.0172   -4.4740   17.4101 C   0  0  0  0  0  0  0  0  0  0  0  0
    6.9051   -7.9575   16.4222 C   0  0  0  0  0  0  0  0  0  0  0  0
    8.9969   -6.3552   17.9668 N   0  0  0  0  0  0  0  0  0  0  0  0
   10.6702   -3.9051   22.4070 C   0  0  0  0  0  0  0  0  0  0  0  0
   11.0625   -3.0028   18.8894 C   0  0  0  0  0  0  0  0  0  0  0  0
    5.6180   -7.9194   16.1754 O   0  0  0  0  0  0  0  0  0  0  0  0
    9.7259   -5.3080   18.4485 C   0  0  0  0  0  0  0  0  0  0  0  0
    9.4578   -5.0200   16.3036 N   0  0  0  0  0  0  0  0  0  0  0  0
    5.0287   -8.9365   16.8223 C   0  0  0  0  0  0  0  0  0  0  0  0
    8.7742   -6.1498   16.6764 C   0  0  0  0  0  0  0  0  0  0  0  0
   10.9418   -3.4032   21.2053 O   0  0  0  0  0  0  0  0  0  0  0  0
    1.4797   -8.6258   16.2950 C   0  0  0  0  0  0  0  0  0  0  0  0
    9.2861   -1.2743   25.3585 C   0  0  0  0  0  0  0  0  0  0  0  0
    1.8892  -10.3985   17.7511 N   0  0  0  0  0  0  0  0  0  0  0  0
    9.6210   -0.6952   24.0976 C   0  0  0  0  0  0  0  0  0  0  0  0
    7.0792   -9.0217   17.1429 C   0  0  0  0  0  0  0  0  0  0  0  0
    3.1713  -10.1816   17.6634 C   0  0  0  0  0  0  0  0  0  0  0  0
    2.7878   -8.3822   16.2137 C   0  0  0  0  0  0  0  0  0  0  0  0
    9.4601   -2.6590   25.6528 C   0  0  0  0  0  0  0  0  0  0  0  0
   10.1182   -1.5672   23.1165 C   0  0  0  0  0  0  0  0  0  0  0  0
    1.0552   -9.6360   17.0650 C   0  0  0  0  0  0  0  0  0  0  0  0
    3.6519   -9.1783   16.9039 C   0  0  0  0  0  0  0  0  0  0  0  0
    7.8675   -7.0096   15.9415 C   0  0  0  0  0  0  0  0  0  0  0  0
    5.9733   -9.6553   17.3832 N   0  0  0  0  0  0  0  0  0  0  0  0
   10.2411   -2.9363   23.4301 C   0  0  0  0  0  0  0  0  0  0  0  0
   10.7288   -3.8197   19.9525 C   0  0  0  0  0  0  0  0  0  0  0  0
   10.1189   -5.0054   19.6987 C   0  0  0  0  0  0  0  0  0  0  0  0
  1  3  4  0
  1  7  4  0
  2 21  4  0
  2 27  4  0
  3  9  4  0
  3 10  4  0
  4  8  4  0
  4 18  4  0
  4 25  1  0
  5  9  4  0
  5 12  4  0
  6 13  1  0
  6 27  1  0
  7 28  4  0
  8 11  4  0
  9 29  4  0
 10 12  4  0
 11 24  1  0
 11 26  4  0
 12 25  1  0
 13 28  1  0
 14 20  4  0
 14 23  4  0
 15 17  4  0
 15 21  4  0
 16 19  4  0
 16 23  4  0
 17 22  4  0
 18 26  4  0
 19 24  4  0
 20 24  4  0
 22 27  4  0
 28 29  4  0
M  END
$$$$

 Created by Python create_sdf_string function

 29 33  0  0  0  0  0  0  0  0999 V2000
   10.7215   -3.3326   17.6437 C   0  0  0  0  0  0  0  0  0  0  0  0
    9.9489   -3.4675   24.6487 N   0  0  0  0  0  0  0  0  0  0  0  0
   10.0172   -4.4740   17.4101 C   0  0  0  0  0  0  0  0  0  0  0  0
    6.9051   -7.9575   16.4222 C   0  0  0  0  0  0  0  0  0  0  0  0
    8.9969   -6.3552   17.9668 N   0  0  0  0  0  0  0  0  0  0  0  0
   10.6702   -3.9051   22.4070 C   0  0  0  0  0  0  0  0  0  0  0  0
   11.0625   -3.0028   18.8894 C   0  0  0  0  0  0  0  0  0  0  0  0
    5.6180   -7.9194   16.1754 O   0  0  0  0  0  0  0  0  0  0  0  0
    9.7259   -5.3080   18.4485 C   0  0  0  0  0  0  0  0  0  0  0  0
    9.4578   -5.0200   16.3036 N   0  0  0  0  0  0  0  0  0  0  0  0
    5.0287   -8.9365   16.8223 C   0  0  0  0  0  0  0  0  0  0  0  0
    8.7742   -6.1498   16.6764 C   0  0  0  0  0  0  0  0  0  0  0  0
   10.9418   -3.4032   21.2053 O   0  0  0  0  0  0  0  0  0  0  0  0
    1.4797   -8.6258   16.2950 C   0  0  0  0  0  0  0  0  0  0  0  0
    9.2861   -1.2743   25.3585 C   0  0  0  0  0  0  0  0  0  0  0  0
    1.8892  -10.3985   17.7511 N   0  0  0  0  0  0  0  0  0  0  0  0
    9.6210   -0.6952   24.0976 C   0  0  0  0  0  0  0  0  0  0  0  0
    7.0792   -9.0217   17.1429 C   0  0  0  0  0  0  0  0  0  0  0  0
    3.1713  -10.1816   17.6634 C   0  0  0  0  0  0  0  0  0  0  0  0
    2.7878   -8.3822   16.2137 C   0  0  0  0  0  0  0  0  0  0  0  0
    9.4601   -2.6590   25.6528 C   0  0  0  0  0  0  0  0  0  0  0  0
   10.1182   -1.5672   23.1165 C   0  0  0  0  0  0  0  0  0  0  0  0
    1.0552   -9.6360   17.0650 C   0  0  0  0  0  0  0  0  0  0  0  0
    3.6519   -9.1783   16.9039 C   0  0  0  0  0  0  0  0  0  0  0  0
    7.8675   -7.0096   15.9415 C   0  0  0  0  0  0  0  0  0  0  0  0
    5.9733   -9.6553   17.3832 N   0  0  0  0  0  0  0  0  0  0  0  0
   10.2411   -2.9363   23.4301 C   0  0  0  0  0  0  0  0  0  0  0  0
   10.7288   -3.8197   19.9525 C   0  0  0  0  0  0  0  0  0  0  0  0
   10.1189   -5.0054   19.6987 C   0  0  0  0  0  0  0  0  0  0  0  0
  1  3  4  0
  1  7  4  0
  2 21  4  0
  2 27  4  0
  3  9  4  0
  3 10  4  0
  4  8  4  0
  4 18  4  0
  4 25  1  0
  5  9  4  0
  5 12  4  0
  6 13  1  0
  6 27  1  0
  7 28  4  0
  8 11  4  0
  9 29  4  0
 10 12  4  0
 11 24  1  0
 11 26  4  0
 12 25  1  0
 13 28  1  0
 14 20  4  0
 14 23  4  0
 15 17  4  0
 15 21  4  0
 16 19  4  0
 16 23  4  0
 17 22  4  0
 18 26  4  0
 19 24  4  0
 20 24  4  0
 22 27  4  0
 28 29  4  0
M  END
$$$$

 Created by Python create_sdf_string function

 29 33  0  0  0  0  0  0  0  0999 V2000
   10.7215   -3.3326   17.6437 C   0  0  0  0  0  0  0  0  0  0  0  0
    9.9489   -3.4675   24.6487 N   0  0  0  0  0  0  0  0  0  0  0  0
   10.0172   -4.4740   17.4101 C   0  0  0  0  0  0  0  0  0  0  0  0
    6.9051   -7.9575   16.4222 C   0  0  0  0  0  0  0  0  0  0  0  0
    8.9969   -6.3552   17.9668 N   0  0  0  0  0  0  0  0  0  0  0  0
   10.6702   -3.9051   22.4070 C   0  0  0  0  0  0  0  0  0  0  0  0
   11.0625   -3.0028   18.8894 C   0  0  0  0  0  0  0  0  0  0  0  0
    5.6180   -7.9194   16.1754 O   0  0  0  0  0  0  0  0  0  0  0  0
    9.7259   -5.3080   18.4485 C   0  0  0  0  0  0  0  0  0  0  0  0
    9.4578   -5.0200   16.3036 N   0  0  0  0  0  0  0  0  0  0  0  0
    5.0287   -8.9365   16.8223 C   0  0  0  0  0  0  0  0  0  0  0  0
    8.7742   -6.1498   16.6764 C   0  0  0  0  0  0  0  0  0  0  0  0
   10.9418   -3.4032   21.2053 O   0  0  0  0  0  0  0  0  0  0  0  0
    1.4797   -8.6258   16.2950 C   0  0  0  0  0  0  0  0  0  0  0  0
    9.2861   -1.2743   25.3585 C   0  0  0  0  0  0  0  0  0  0  0  0
    1.8892  -10.3985   17.7511 N   0  0  0  0  0  0  0  0  0  0  0  0
    9.6210   -0.6952   24.0976 C   0  0  0  0  0  0  0  0  0  0  0  0
    7.0792   -9.0217   17.1429 C   0  0  0  0  0  0  0  0  0  0  0  0
    3.1713  -10.1816   17.6634 C   0  0  0  0  0  0  0  0  0  0  0  0
    2.7878   -8.3822   16.2137 C   0  0  0  0  0  0  0  0  0  0  0  0
    9.4601   -2.6590   25.6528 C   0  0  0  0  0  0  0  0  0  0  0  0
   10.1182   -1.5672   23.1165 C   0  0  0  0  0  0  0  0  0  0  0  0
    1.0552   -9.6360   17.0650 C   0  0  0  0  0  0  0  0  0  0  0  0
    3.6519   -9.1783   16.9039 C   0  0  0  0  0  0  0  0  0  0  0  0
    7.8675   -7.0096   15.9415 C   0  0  0  0  0  0  0  0  0  0  0  0
    5.9733   -9.6553   17.3832 N   0  0  0  0  0  0  0  0  0  0  0  0
   10.2411   -2.9363   23.4301 C   0  0  0  0  0  0  0  0  0  0  0  0
   10.7288   -3.8197   19.9525 C   0  0  0  0  0  0  0  0  0  0  0  0
   10.1189   -5.0054   19.6987 C   0  0  0  0  0  0  0  0  0  0  0  0
  1  3  4  0
  1  7  4  0
  2 21  4  0
  2 27  4  0
  3  9  4  0
  3 10  4  0
  4  8  4  0
  4 18  4  0
  4 25  1  0
  5  9  4  0
  5 12  4  0
  6 13  1  0
  6 27  1  0
  7 28  4  0
  8 11  4  0
  9 29  4  0
 10 12  4  0
 11 24  1  0
 11 26  4  0
 12 25  1  0
 13 28  1  0
 14 20  4  0
 14 23  4  0
 15 17  4  0
 15 21  4  0
 16 19  4  0
 16 23  4  0
 17 22  4  0
 18 26  4  0
 19 24  4  0
 20 24  4  0
 22 27  4  0
 28 29  4  0
M  END
$$$$

 Created by Python create_sdf_string function

 29 33  0  0  0  0  0  0  0  0999 V2000
   10.7215   -3.3326   17.6437 C   0  0  0  0  0  0  0  0  0  0  0  0
    9.9489   -3.4675   24.6487 N   0  0  0  0  0  0  0  0  0  0  0  0
   10.0172   -4.4740   17.4101 C   0  0  0  0  0  0  0  0  0  0  0  0
    6.9051   -7.9575   16.4222 C   0  0  0  0  0  0  0  0  0  0  0  0
    8.9969   -6.3552   17.9668 N   0  0  0  0  0  0  0  0  0  0  0  0
   10.6702   -3.9051   22.4070 C   0  0  0  0  0  0  0  0  0  0  0  0
   11.0625   -3.0028   18.8894 C   0  0  0  0  0  0  0  0  0  0  0  0
    5.6180   -7.9194   16.1754 O   0  0  0  0  0  0  0  0  0  0  0  0
    9.7259   -5.3080   18.4485 C   0  0  0  0  0  0  0  0  0  0  0  0
    9.4578   -5.0200   16.3036 N   0  0  0  0  0  0  0  0  0  0  0  0
    5.0287   -8.9365   16.8223 C   0  0  0  0  0  0  0  0  0  0  0  0
    8.7742   -6.1498   16.6764 C   0  0  0  0  0  0  0  0  0  0  0  0
   10.9418   -3.4032   21.2053 O   0  0  0  0  0  0  0  0  0  0  0  0
    1.4797   -8.6258   16.2950 C   0  0  0  0  0  0  0  0  0  0  0  0
    9.2861   -1.2743   25.3585 C   0  0  0  0  0  0  0  0  0  0  0  0
    1.8892  -10.3985   17.7511 N   0  0  0  0  0  0  0  0  0  0  0  0
    9.6210   -0.6952   24.0976 C   0  0  0  0  0  0  0  0  0  0  0  0
    7.0792   -9.0217   17.1429 C   0  0  0  0  0  0  0  0  0  0  0  0
    3.1713  -10.1816   17.6634 C   0  0  0  0  0  0  0  0  0  0  0  0
    2.7878   -8.3822   16.2137 C   0  0  0  0  0  0  0  0  0  0  0  0
    9.4601   -2.6590   25.6528 C   0  0  0  0  0  0  0  0  0  0  0  0
   10.1182   -1.5672   23.1165 C   0  0  0  0  0  0  0  0  0  0  0  0
    1.0552   -9.6360   17.0650 C   0  0  0  0  0  0  0  0  0  0  0  0
    3.6519   -9.1783   16.9039 C   0  0  0  0  0  0  0  0  0  0  0  0
    7.8675   -7.0096   15.9415 C   0  0  0  0  0  0  0  0  0  0  0  0
    5.9733   -9.6553   17.3832 N   0  0  0  0  0  0  0  0  0  0  0  0
   10.2411   -2.9363   23.4301 C   0  0  0  0  0  0  0  0  0  0  0  0
   10.7288   -3.8197   19.9525 C   0  0  0  0  0  0  0  0  0  0  0  0
   10.1189   -5.0054   19.6987 C   0  0  0  0  0  0  0  0  0  0  0  0
  1  3  4  0
  1  7  4  0
  2 21  4  0
  2 27  4  0
  3  9  4  0
  3 10  4  0
  4  8  4  0
  4 18  4  0
  4 25  1  0
  5  9  4  0
  5 12  4  0
  6 13  1  0
  6 27  1  0
  7 28  4  0
  8 11  4  0
  9 29  4  0
 10 12  4  0
 11 24  1  0
 11 26  4  0
 12 25  1  0
 13 28  1  0
 14 20  4  0
 14 23  4  0
 15 17  4  0
 15 21  4  0
 16 19  4  0
 16 23  4  0
 17 22  4  0
 18 26  4  0
 19 24  4  0
 20 24  4  0
 22 27  4  0
 28 29  4  0
M  END
$$$$

 Created by Python create_sdf_string function

 29 33  0  0  0  0  0  0  0  0999 V2000
   10.7215   -3.3326   17.6437 C   0  0  0  0  0  0  0  0  0  0  0  0
    9.9489   -3.4675   24.6487 N   0  0  0  0  0  0  0  0  0  0  0  0
   10.0172   -4.4740   17.4101 C   0  0  0  0  0  0  0  0  0  0  0  0
    6.9051   -7.9575   16.4222 C   0  0  0  0  0  0  0  0  0  0  0  0
    8.9969   -6.3552   17.9668 N   0  0  0  0  0  0  0  0  0  0  0  0
   10.6702   -3.9051   22.4070 C   0  0  0  0  0  0  0  0  0  0  0  0
   11.0625   -3.0028   18.8894 C   0  0  0  0  0  0  0  0  0  0  0  0
    5.6180   -7.9194   16.1754 O   0  0  0  0  0  0  0  0  0  0  0  0
    9.7259   -5.3080   18.4485 C   0  0  0  0  0  0  0  0  0  0  0  0
    9.4578   -5.0200   16.3036 N   0  0  0  0  0  0  0  0  0  0  0  0
    5.0287   -8.9365   16.8223 C   0  0  0  0  0  0  0  0  0  0  0  0
    8.7742   -6.1498   16.6764 C   0  0  0  0  0  0  0  0  0  0  0  0
   10.9418   -3.4032   21.2053 O   0  0  0  0  0  0  0  0  0  0  0  0
    1.4797   -8.6258   16.2950 C   0  0  0  0  0  0  0  0  0  0  0  0
    9.2861   -1.2743   25.3585 C   0  0  0  0  0  0  0  0  0  0  0  0
    1.8892  -10.3985   17.7511 N   0  0  0  0  0  0  0  0  0  0  0  0
    9.6210   -0.6952   24.0976 C   0  0  0  0  0  0  0  0  0  0  0  0
    7.0792   -9.0217   17.1429 C   0  0  0  0  0  0  0  0  0  0  0  0
    3.1713  -10.1816   17.6634 C   0  0  0  0  0  0  0  0  0  0  0  0
    2.7878   -8.3822   16.2137 C   0  0  0  0  0  0  0  0  0  0  0  0
    9.4601   -2.6590   25.6528 C   0  0  0  0  0  0  0  0  0  0  0  0
   10.1182   -1.5672   23.1165 C   0  0  0  0  0  0  0  0  0  0  0  0
    1.0552   -9.6360   17.0650 C   0  0  0  0  0  0  0  0  0  0  0  0
    3.6519   -9.1783   16.9039 C   0  0  0  0  0  0  0  0  0  0  0  0
    7.8675   -7.0096   15.9415 C   0  0  0  0  0  0  0  0  0  0  0  0
    5.9733   -9.6553   17.3832 N   0  0  0  0  0  0  0  0  0  0  0  0
   10.2411   -2.9363   23.4301 C   0  0  0  0  0  0  0  0  0  0  0  0
   10.7288   -3.8197   19.9525 C   0  0  0  0  0  0  0  0  0  0  0  0
   10.1189   -5.0054   19.6987 C   0  0  0  0  0  0  0  0  0  0  0  0
  1  3  4  0
  1  7  4  0
  2 21  4  0
  2 27  4  0
  3  9  4  0
  3 10  4  0
  4  8  4  0
  4 18  4  0
  4 25  1  0
  5  9  4  0
  5 12  4  0
  6 13  1  0
  6 27  1  0
  7 28  4  0
  8 11  4  0
  9 29  4  0
 10 12  4  0
 11 24  1  0
 11 26  4  0
 12 25  1  0
 13 28  1  0
 14 20  4  0
 14 23  4  0
 15 17  4  0
 15 21  4  0
 16 19  4  0
 16 23  4  0
 17 22  4  0
 18 26  4  0
 19 24  4  0
 20 24  4  0
 22 27  4  0
 28 29  4  0
M  END
$$$$

 Created by Python create_sdf_string function

 29 33  0  0  0  0  0  0  0  0999 V2000
   10.7215   -3.3326   17.6437 C   0  0  0  0  0  0  0  0  0  0  0  0
    9.9489   -3.4675   24.6487 N   0  0  0  0  0  0  0  0  0  0  0  0
   10.0172   -4.4740   17.4101 C   0  0  0  0  0  0  0  0  0  0  0  0
    6.9051   -7.9575   16.4222 C   0  0  0  0  0  0  0  0  0  0  0  0
    8.9969   -6.3552   17.9668 N   0  0  0  0  0  0  0  0  0  0  0  0
   10.6702   -3.9051   22.4070 C   0  0  0  0  0  0  0  0  0  0  0  0
   11.0625   -3.0028   18.8894 C   0  0  0  0  0  0  0  0  0  0  0  0
    5.6180   -7.9194   16.1754 O   0  0  0  0  0  0  0  0  0  0  0  0
    9.7259   -5.3080   18.4485 C   0  0  0  0  0  0  0  0  0  0  0  0
    9.4578   -5.0200   16.3036 N   0  0  0  0  0  0  0  0  0  0  0  0
    5.0287   -8.9365   16.8223 C   0  0  0  0  0  0  0  0  0  0  0  0
    8.7742   -6.1498   16.6764 C   0  0  0  0  0  0  0  0  0  0  0  0
   10.9418   -3.4032   21.2053 O   0  0  0  0  0  0  0  0  0  0  0  0
    1.4797   -8.6258   16.2950 C   0  0  0  0  0  0  0  0  0  0  0  0
    9.2861   -1.2743   25.3585 C   0  0  0  0  0  0  0  0  0  0  0  0
    1.8892  -10.3985   17.7511 N   0  0  0  0  0  0  0  0  0  0  0  0
    9.6210   -0.6952   24.0976 C   0  0  0  0  0  0  0  0  0  0  0  0
    7.0792   -9.0217   17.1429 C   0  0  0  0  0  0  0  0  0  0  0  0
    3.1713  -10.1816   17.6634 C   0  0  0  0  0  0  0  0  0  0  0  0
    2.7878   -8.3822   16.2137 C   0  0  0  0  0  0  0  0  0  0  0  0
    9.4601   -2.6590   25.6528 C   0  0  0  0  0  0  0  0  0  0  0  0
   10.1182   -1.5672   23.1165 C   0  0  0  0  0  0  0  0  0  0  0  0
    1.0552   -9.6360   17.0650 C   0  0  0  0  0  0  0  0  0  0  0  0
    3.6519   -9.1783   16.9039 C   0  0  0  0  0  0  0  0  0  0  0  0
    7.8675   -7.0096   15.9415 C   0  0  0  0  0  0  0  0  0  0  0  0
    5.9733   -9.6553   17.3832 N   0  0  0  0  0  0  0  0  0  0  0  0
   10.2411   -2.9363   23.4301 C   0  0  0  0  0  0  0  0  0  0  0  0
   10.7288   -3.8197   19.9525 C   0  0  0  0  0  0  0  0  0  0  0  0
   10.1189   -5.0054   19.6987 C   0  0  0  0  0  0  0  0  0  0  0  0
  1  3  4  0
  1  7  4  0
  2 21  4  0
  2 27  4  0
  3  9  4  0
  3 10  4  0
  4  8  4  0
  4 18  4  0
  4 25  1  0
  5  9  4  0
  5 12  4  0
  6 13  1  0
  6 27  1  0
  7 28  4  0
  8 11  4  0
  9 29  4  0
 10 12  4  0
 11 24  1  0
 11 26  4  0
 12 25  1  0
 13 28  1  0
 14 20  4  0
 14 23  4  0
 15 17  4  0
 15 21  4  0
 16 19  4  0
 16 23  4  0
 17 22  4  0
 18 26  4  0
 19 24  4  0
 20 24  4  0
 22 27  4  0
 28 29  4  0
M  END
$$$$

 Created by Python create_sdf_string function

 29 33  0  0  0  0  0  0  0  0999 V2000
   10.7215   -3.3326   17.6437 C   0  0  0  0  0  0  0  0  0  0  0  0
    9.9489   -3.4675   24.6487 N   0  0  0  0  0  0  0  0  0  0  0  0
   10.0172   -4.4740   17.4101 C   0  0  0  0  0  0  0  0  0  0  0  0
    6.9051   -7.9575   16.4222 C   0  0  0  0  0  0  0  0  0  0  0  0
    8.9969   -6.3552   17.9668 N   0  0  0  0  0  0  0  0  0  0  0  0
   10.6702   -3.9051   22.4070 C   0  0  0  0  0  0  0  0  0  0  0  0
   11.0625   -3.0028   18.8894 C   0  0  0  0  0  0  0  0  0  0  0  0
    5.6180   -7.9194   16.1754 O   0  0  0  0  0  0  0  0  0  0  0  0
    9.7259   -5.3080   18.4485 C   0  0  0  0  0  0  0  0  0  0  0  0
    9.4578   -5.0200   16.3036 N   0  0  0  0  0  0  0  0  0  0  0  0
    5.0287   -8.9365   16.8223 C   0  0  0  0  0  0  0  0  0  0  0  0
    8.7742   -6.1498   16.6764 C   0  0  0  0  0  0  0  0  0  0  0  0
   10.9418   -3.4032   21.2053 O   0  0  0  0  0  0  0  0  0  0  0  0
    1.4797   -8.6258   16.2950 C   0  0  0  0  0  0  0  0  0  0  0  0
    9.2861   -1.2743   25.3585 C   0  0  0  0  0  0  0  0  0  0  0  0
    1.8892  -10.3985   17.7511 N   0  0  0  0  0  0  0  0  0  0  0  0
    9.6210   -0.6952   24.0976 C   0  0  0  0  0  0  0  0  0  0  0  0
    7.0792   -9.0217   17.1429 C   0  0  0  0  0  0  0  0  0  0  0  0
    3.1713  -10.1816   17.6634 C   0  0  0  0  0  0  0  0  0  0  0  0
    2.7878   -8.3822   16.2137 C   0  0  0  0  0  0  0  0  0  0  0  0
    9.4601   -2.6590   25.6528 C   0  0  0  0  0  0  0  0  0  0  0  0
   10.1182   -1.5672   23.1165 C   0  0  0  0  0  0  0  0  0  0  0  0
    1.0552   -9.6360   17.0650 C   0  0  0  0  0  0  0  0  0  0  0  0
    3.6519   -9.1783   16.9039 C   0  0  0  0  0  0  0  0  0  0  0  0
    7.8675   -7.0096   15.9415 C   0  0  0  0  0  0  0  0  0  0  0  0
    5.9733   -9.6553   17.3832 N   0  0  0  0  0  0  0  0  0  0  0  0
   10.2411   -2.9363   23.4301 C   0  0  0  0  0  0  0  0  0  0  0  0
   10.7288   -3.8197   19.9525 C   0  0  0  0  0  0  0  0  0  0  0  0
   10.1189   -5.0054   19.6987 C   0  0  0  0  0  0  0  0  0  0  0  0
  1  3  4  0
  1  7  4  0
  2 21  4  0
  2 27  4  0
  3  9  4  0
  3 10  4  0
  4  8  4  0
  4 18  4  0
  4 25  1  0
  5  9  4  0
  5 12  4  0
  6 13  1  0
  6 27  1  0
  7 28  4  0
  8 11  4  0
  9 29  4  0
 10 12  4  0
 11 24  1  0
 11 26  4  0
 12 25  1  0
 13 28  1  0
 14 20  4  0
 14 23  4  0
 15 17  4  0
 15 21  4  0
 16 19  4  0
 16 23  4  0
 17 22  4  0
 18 26  4  0
 19 24  4  0
 20 24  4  0
 22 27  4  0
 28 29  4  0
M  END
$$$$

 Created by Python create_sdf_string function

 29 33  0  0  0  0  0  0  0  0999 V2000
   10.7215   -3.3326   17.6437 C   0  0  0  0  0  0  0  0  0  0  0  0
    9.9489   -3.4675   24.6487 N   0  0  0  0  0  0  0  0  0  0  0  0
   10.0172   -4.4740   17.4101 C   0  0  0  0  0  0  0  0  0  0  0  0
    6.9051   -7.9575   16.4222 C   0  0  0  0  0  0  0  0  0  0  0  0
    8.9969   -6.3552   17.9668 N   0  0  0  0  0  0  0  0  0  0  0  0
   10.6702   -3.9051   22.4070 C   0  0  0  0  0  0  0  0  0  0  0  0
   11.0625   -3.0028   18.8894 C   0  0  0  0  0  0  0  0  0  0  0  0
    5.6180   -7.9194   16.1754 O   0  0  0  0  0  0  0  0  0  0  0  0
    9.7259   -5.3080   18.4485 C   0  0  0  0  0  0  0  0  0  0  0  0
    9.4578   -5.0200   16.3036 N   0  0  0  0  0  0  0  0  0  0  0  0
    5.0287   -8.9365   16.8223 C   0  0  0  0  0  0  0  0  0  0  0  0
    8.7742   -6.1498   16.6764 C   0  0  0  0  0  0  0  0  0  0  0  0
   10.9418   -3.4032   21.2053 O   0  0  0  0  0  0  0  0  0  0  0  0
    1.4797   -8.6258   16.2950 C   0  0  0  0  0  0  0  0  0  0  0  0
    9.2861   -1.2743   25.3585 C   0  0  0  0  0  0  0  0  0  0  0  0
    1.8892  -10.3985   17.7511 N   0  0  0  0  0  0  0  0  0  0  0  0
    9.6210   -0.6952   24.0976 C   0  0  0  0  0  0  0  0  0  0  0  0
    7.0792   -9.0217   17.1429 C   0  0  0  0  0  0  0  0  0  0  0  0
    3.1713  -10.1816   17.6634 C   0  0  0  0  0  0  0  0  0  0  0  0
    2.7878   -8.3822   16.2137 C   0  0  0  0  0  0  0  0  0  0  0  0
    9.4601   -2.6590   25.6528 C   0  0  0  0  0  0  0  0  0  0  0  0
   10.1182   -1.5672   23.1165 C   0  0  0  0  0  0  0  0  0  0  0  0
    1.0552   -9.6360   17.0650 C   0  0  0  0  0  0  0  0  0  0  0  0
    3.6519   -9.1783   16.9039 C   0  0  0  0  0  0  0  0  0  0  0  0
    7.8675   -7.0096   15.9415 C   0  0  0  0  0  0  0  0  0  0  0  0
    5.9733   -9.6553   17.3832 N   0  0  0  0  0  0  0  0  0  0  0  0
   10.2411   -2.9363   23.4301 C   0  0  0  0  0  0  0  0  0  0  0  0
   10.7288   -3.8197   19.9525 C   0  0  0  0  0  0  0  0  0  0  0  0
   10.1189   -5.0054   19.6987 C   0  0  0  0  0  0  0  0  0  0  0  0
  1  3  4  0
  1  7  4  0
  2 21  4  0
  2 27  4  0
  3  9  4  0
  3 10  4  0
  4  8  4  0
  4 18  4  0
  4 25  1  0
  5  9  4  0
  5 12  4  0
  6 13  1  0
  6 27  1  0
  7 28  4  0
  8 11  4  0
  9 29  4  0
 10 12  4  0
 11 24  1  0
 11 26  4  0
 12 25  1  0
 13 28  1  0
 14 20  4  0
 14 23  4  0
 15 17  4  0
 15 21  4  0
 16 19  4  0
 16 23  4  0
 17 22  4  0
 18 26  4  0
 19 24  4  0
 20 24  4  0
 22 27  4  0
 28 29  4  0
M  END
$$$$

 Created by Python create_sdf_string function

 29 33  0  0  0  0  0  0  0  0999 V2000
   10.7215   -3.3326   17.6437 C   0  0  0  0  0  0  0  0  0  0  0  0
    9.9489   -3.4675   24.6487 N   0  0  0  0  0  0  0  0  0  0  0  0
   10.0172   -4.4740   17.4101 C   0  0  0  0  0  0  0  0  0  0  0  0
    6.9051   -7.9575   16.4222 C   0  0  0  0  0  0  0  0  0  0  0  0
    8.9969   -6.3552   17.9668 N   0  0  0  0  0  0  0  0  0  0  0  0
   10.6702   -3.9051   22.4070 C   0  0  0  0  0  0  0  0  0  0  0  0
   11.0625   -3.0028   18.8894 C   0  0  0  0  0  0  0  0  0  0  0  0
    5.6180   -7.9194   16.1754 O   0  0  0  0  0  0  0  0  0  0  0  0
    9.7259   -5.3080   18.4485 C   0  0  0  0  0  0  0  0  0  0  0  0
    9.4578   -5.0200   16.3036 N   0  0  0  0  0  0  0  0  0  0  0  0
    5.0287   -8.9365   16.8223 C   0  0  0  0  0  0  0  0  0  0  0  0
    8.7742   -6.1498   16.6764 C   0  0  0  0  0  0  0  0  0  0  0  0
   10.9418   -3.4032   21.2053 O   0  0  0  0  0  0  0  0  0  0  0  0
    1.4797   -8.6258   16.2950 C   0  0  0  0  0  0  0  0  0  0  0  0
    9.2861   -1.2743   25.3585 C   0  0  0  0  0  0  0  0  0  0  0  0
    1.8892  -10.3985   17.7511 N   0  0  0  0  0  0  0  0  0  0  0  0
    9.6210   -0.6952   24.0976 C   0  0  0  0  0  0  0  0  0  0  0  0
    7.0792   -9.0217   17.1429 C   0  0  0  0  0  0  0  0  0  0  0  0
    3.1713  -10.1816   17.6634 C   0  0  0  0  0  0  0  0  0  0  0  0
    2.7878   -8.3822   16.2137 C   0  0  0  0  0  0  0  0  0  0  0  0
    9.4601   -2.6590   25.6528 C   0  0  0  0  0  0  0  0  0  0  0  0
   10.1182   -1.5672   23.1165 C   0  0  0  0  0  0  0  0  0  0  0  0
    1.0552   -9.6360   17.0650 C   0  0  0  0  0  0  0  0  0  0  0  0
    3.6519   -9.1783   16.9039 C   0  0  0  0  0  0  0  0  0  0  0  0
    7.8675   -7.0096   15.9415 C   0  0  0  0  0  0  0  0  0  0  0  0
    5.9733   -9.6553   17.3832 N   0  0  0  0  0  0  0  0  0  0  0  0
   10.2411   -2.9363   23.4301 C   0  0  0  0  0  0  0  0  0  0  0  0
   10.7288   -3.8197   19.9525 C   0  0  0  0  0  0  0  0  0  0  0  0
   10.1189   -5.0054   19.6987 C   0  0  0  0  0  0  0  0  0  0  0  0
  1  3  4  0
  1  7  4  0
  2 21  4  0
  2 27  4  0
  3  9  4  0
  3 10  4  0
  4  8  4  0
  4 18  4  0
  4 25  1  0
  5  9  4  0
  5 12  4  0
  6 13  1  0
  6 27  1  0
  7 28  4  0
  8 11  4  0
  9 29  4  0
 10 12  4  0
 11 24  1  0
 11 26  4  0
 12 25  1  0
 13 28  1  0
 14 20  4  0
 14 23  4  0
 15 17  4  0
 15 21  4  0
 16 19  4  0
 16 23  4  0
 17 22  4  0
 18 26  4  0
 19 24  4  0
 20 24  4  0
 22 27  4  0
 28 29  4  0
M  END
$$$$

 Created by Python create_sdf_string function

 29 33  0  0  0  0  0  0  0  0999 V2000
   10.7215   -3.3326   17.6437 C   0  0  0  0  0  0  0  0  0  0  0  0
    9.9489   -3.4675   24.6487 N   0  0  0  0  0  0  0  0  0  0  0  0
   10.0172   -4.4740   17.4101 C   0  0  0  0  0  0  0  0  0  0  0  0
    6.9051   -7.9575   16.4222 C   0  0  0  0  0  0  0  0  0  0  0  0
    8.9969   -6.3552   17.9668 N   0  0  0  0  0  0  0  0  0  0  0  0
   10.6702   -3.9051   22.4070 C   0  0  0  0  0  0  0  0  0  0  0  0
   11.0625   -3.0028   18.8894 C   0  0  0  0  0  0  0  0  0  0  0  0
    5.6180   -7.9194   16.1754 O   0  0  0  0  0  0  0  0  0  0  0  0
    9.7259   -5.3080   18.4485 C   0  0  0  0  0  0  0  0  0  0  0  0
    9.4578   -5.0200   16.3036 N   0  0  0  0  0  0  0  0  0  0  0  0
    5.0287   -8.9365   16.8223 C   0  0  0  0  0  0  0  0  0  0  0  0
    8.7742   -6.1498   16.6764 C   0  0  0  0  0  0  0  0  0  0  0  0
   10.9418   -3.4032   21.2053 O   0  0  0  0  0  0  0  0  0  0  0  0
    1.4797   -8.6258   16.2950 C   0  0  0  0  0  0  0  0  0  0  0  0
    9.2861   -1.2743   25.3585 C   0  0  0  0  0  0  0  0  0  0  0  0
    1.8892  -10.3985   17.7511 N   0  0  0  0  0  0  0  0  0  0  0  0
    9.6210   -0.6952   24.0976 C   0  0  0  0  0  0  0  0  0  0  0  0
    7.0792   -9.0217   17.1429 C   0  0  0  0  0  0  0  0  0  0  0  0
    3.1713  -10.1816   17.6634 C   0  0  0  0  0  0  0  0  0  0  0  0
    2.7878   -8.3822   16.2137 C   0  0  0  0  0  0  0  0  0  0  0  0
    9.4601   -2.6590   25.6528 C   0  0  0  0  0  0  0  0  0  0  0  0
   10.1182   -1.5672   23.1165 C   0  0  0  0  0  0  0  0  0  0  0  0
    1.0552   -9.6360   17.0650 C   0  0  0  0  0  0  0  0  0  0  0  0
    3.6519   -9.1783   16.9039 C   0  0  0  0  0  0  0  0  0  0  0  0
    7.8675   -7.0096   15.9415 C   0  0  0  0  0  0  0  0  0  0  0  0
    5.9733   -9.6553   17.3832 N   0  0  0  0  0  0  0  0  0  0  0  0
   10.2411   -2.9363   23.4301 C   0  0  0  0  0  0  0  0  0  0  0  0
   10.7288   -3.8197   19.9525 C   0  0  0  0  0  0  0  0  0  0  0  0
   10.1189   -5.0054   19.6987 C   0  0  0  0  0  0  0  0  0  0  0  0
  1  3  4  0
  1  7  4  0
  2 21  4  0
  2 27  4  0
  3  9  4  0
  3 10  4  0
  4  8  4  0
  4 18  4  0
  4 25  1  0
  5  9  4  0
  5 12  4  0
  6 13  1  0
  6 27  1  0
  7 28  4  0
  8 11  4  0
  9 29  4  0
 10 12  4  0
 11 24  1  0
 11 26  4  0
 12 25  1  0
 13 28  1  0
 14 20  4  0
 14 23  4  0
 15 17  4  0
 15 21  4  0
 16 19  4  0
 16 23  4  0
 17 22  4  0
 18 26  4  0
 19 24  4  0
 20 24  4  0
 22 27  4  0
 28 29  4  0
M  END
$$$$

 Created by Python create_sdf_string function

 29 33  0  0  0  0  0  0  0  0999 V2000
   10.7215   -3.3326   17.6437 C   0  0  0  0  0  0  0  0  0  0  0  0
    9.9489   -3.4675   24.6487 N   0  0  0  0  0  0  0  0  0  0  0  0
   10.0172   -4.4740   17.4101 C   0  0  0  0  0  0  0  0  0  0  0  0
    6.9051   -7.9575   16.4222 C   0  0  0  0  0  0  0  0  0  0  0  0
    8.9969   -6.3552   17.9668 N   0  0  0  0  0  0  0  0  0  0  0  0
   10.6702   -3.9051   22.4070 C   0  0  0  0  0  0  0  0  0  0  0  0
   11.0625   -3.0028   18.8894 C   0  0  0  0  0  0  0  0  0  0  0  0
    5.6180   -7.9194   16.1754 O   0  0  0  0  0  0  0  0  0  0  0  0
    9.7259   -5.3080   18.4485 C   0  0  0  0  0  0  0  0  0  0  0  0
    9.4578   -5.0200   16.3036 N   0  0  0  0  0  0  0  0  0  0  0  0
    5.0287   -8.9365   16.8223 C   0  0  0  0  0  0  0  0  0  0  0  0
    8.7742   -6.1498   16.6764 C   0  0  0  0  0  0  0  0  0  0  0  0
   10.9418   -3.4032   21.2053 O   0  0  0  0  0  0  0  0  0  0  0  0
    1.4797   -8.6258   16.2950 C   0  0  0  0  0  0  0  0  0  0  0  0
    9.2861   -1.2743   25.3585 C   0  0  0  0  0  0  0  0  0  0  0  0
    1.8892  -10.3985   17.7511 N   0  0  0  0  0  0  0  0  0  0  0  0
    9.6210   -0.6952   24.0976 C   0  0  0  0  0  0  0  0  0  0  0  0
    7.0792   -9.0217   17.1429 C   0  0  0  0  0  0  0  0  0  0  0  0
    3.1713  -10.1816   17.6634 C   0  0  0  0  0  0  0  0  0  0  0  0
    2.7878   -8.3822   16.2137 C   0  0  0  0  0  0  0  0  0  0  0  0
    9.4601   -2.6590   25.6528 C   0  0  0  0  0  0  0  0  0  0  0  0
   10.1182   -1.5672   23.1165 C   0  0  0  0  0  0  0  0  0  0  0  0
    1.0552   -9.6360   17.0650 C   0  0  0  0  0  0  0  0  0  0  0  0
    3.6519   -9.1783   16.9039 C   0  0  0  0  0  0  0  0  0  0  0  0
    7.8675   -7.0096   15.9415 C   0  0  0  0  0  0  0  0  0  0  0  0
    5.9733   -9.6553   17.3832 N   0  0  0  0  0  0  0  0  0  0  0  0
   10.2411   -2.9363   23.4301 C   0  0  0  0  0  0  0  0  0  0  0  0
   10.7288   -3.8197   19.9525 C   0  0  0  0  0  0  0  0  0  0  0  0
   10.1189   -5.0054   19.6987 C   0  0  0  0  0  0  0  0  0  0  0  0
  1  3  4  0
  1  7  4  0
  2 21  4  0
  2 27  4  0
  3  9  4  0
  3 10  4  0
  4  8  4  0
  4 18  4  0
  4 25  1  0
  5  9  4  0
  5 12  4  0
  6 13  1  0
  6 27  1  0
  7 28  4  0
  8 11  4  0
  9 29  4  0
 10 12  4  0
 11 24  1  0
 11 26  4  0
 12 25  1  0
 13 28  1  0
 14 20  4  0
 14 23  4  0
 15 17  4  0
 15 21  4  0
 16 19  4  0
 16 23  4  0
 17 22  4  0
 18 26  4  0
 19 24  4  0
 20 24  4  0
 22 27  4  0
 28 29  4  0
M  END
$$$$

 Created by Python create_sdf_string function

 29 33  0  0  0  0  0  0  0  0999 V2000
   10.7215   -3.3326   17.6437 C   0  0  0  0  0  0  0  0  0  0  0  0
    9.9489   -3.4675   24.6487 N   0  0  0  0  0  0  0  0  0  0  0  0
   10.0172   -4.4740   17.4101 C   0  0  0  0  0  0  0  0  0  0  0  0
    6.9051   -7.9575   16.4222 C   0  0  0  0  0  0  0  0  0  0  0  0
    8.9969   -6.3552   17.9668 N   0  0  0  0  0  0  0  0  0  0  0  0
   10.6702   -3.9051   22.4070 C   0  0  0  0  0  0  0  0  0  0  0  0
   11.0625   -3.0028   18.8894 C   0  0  0  0  0  0  0  0  0  0  0  0
    5.6180   -7.9194   16.1754 O   0  0  0  0  0  0  0  0  0  0  0  0
    9.7259   -5.3080   18.4485 C   0  0  0  0  0  0  0  0  0  0  0  0
    9.4578   -5.0200   16.3036 N   0  0  0  0  0  0  0  0  0  0  0  0
    5.0287   -8.9365   16.8223 C   0  0  0  0  0  0  0  0  0  0  0  0
    8.7742   -6.1498   16.6764 C   0  0  0  0  0  0  0  0  0  0  0  0
   10.9418   -3.4032   21.2053 O   0  0  0  0  0  0  0  0  0  0  0  0
    1.4797   -8.6258   16.2950 C   0  0  0  0  0  0  0  0  0  0  0  0
    9.2861   -1.2743   25.3585 C   0  0  0  0  0  0  0  0  0  0  0  0
    1.8892  -10.3985   17.7511 N   0  0  0  0  0  0  0  0  0  0  0  0
    9.6210   -0.6952   24.0976 C   0  0  0  0  0  0  0  0  0  0  0  0
    7.0792   -9.0217   17.1429 C   0  0  0  0  0  0  0  0  0  0  0  0
    3.1713  -10.1816   17.6634 C   0  0  0  0  0  0  0  0  0  0  0  0
    2.7878   -8.3822   16.2137 C   0  0  0  0  0  0  0  0  0  0  0  0
    9.4601   -2.6590   25.6528 C   0  0  0  0  0  0  0  0  0  0  0  0
   10.1182   -1.5672   23.1165 C   0  0  0  0  0  0  0  0  0  0  0  0
    1.0552   -9.6360   17.0650 C   0  0  0  0  0  0  0  0  0  0  0  0
    3.6519   -9.1783   16.9039 C   0  0  0  0  0  0  0  0  0  0  0  0
    7.8675   -7.0096   15.9415 C   0  0  0  0  0  0  0  0  0  0  0  0
    5.9733   -9.6553   17.3832 N   0  0  0  0  0  0  0  0  0  0  0  0
   10.2411   -2.9363   23.4301 C   0  0  0  0  0  0  0  0  0  0  0  0
   10.7288   -3.8197   19.9525 C   0  0  0  0  0  0  0  0  0  0  0  0
   10.1189   -5.0054   19.6987 C   0  0  0  0  0  0  0  0  0  0  0  0
  1  3  4  0
  1  7  4  0
  2 21  4  0
  2 27  4  0
  3  9  4  0
  3 10  4  0
  4  8  4  0
  4 18  4  0
  4 25  1  0
  5  9  4  0
  5 12  4  0
  6 13  1  0
  6 27  1  0
  7 28  4  0
  8 11  4  0
  9 29  4  0
 10 12  4  0
 11 24  1  0
 11 26  4  0
 12 25  1  0
 13 28  1  0
 14 20  4  0
 14 23  4  0
 15 17  4  0
 15 21  4  0
 16 19  4  0
 16 23  4  0
 17 22  4  0
 18 26  4  0
 19 24  4  0
 20 24  4  0
 22 27  4  0
 28 29  4  0
M  END
$$$$

 Created by Python create_sdf_string function

 29 33  0  0  0  0  0  0  0  0999 V2000
   10.7215   -3.3326   17.6437 C   0  0  0  0  0  0  0  0  0  0  0  0
    9.9489   -3.4675   24.6487 N   0  0  0  0  0  0  0  0  0  0  0  0
   10.0172   -4.4740   17.4101 C   0  0  0  0  0  0  0  0  0  0  0  0
    6.9051   -7.9575   16.4222 C   0  0  0  0  0  0  0  0  0  0  0  0
    8.9969   -6.3552   17.9668 N   0  0  0  0  0  0  0  0  0  0  0  0
   10.6702   -3.9051   22.4070 C   0  0  0  0  0  0  0  0  0  0  0  0
   11.0625   -3.0028   18.8894 C   0  0  0  0  0  0  0  0  0  0  0  0
    5.6180   -7.9194   16.1754 O   0  0  0  0  0  0  0  0  0  0  0  0
    9.7259   -5.3080   18.4485 C   0  0  0  0  0  0  0  0  0  0  0  0
    9.4578   -5.0200   16.3036 N   0  0  0  0  0  0  0  0  0  0  0  0
    5.0287   -8.9365   16.8223 C   0  0  0  0  0  0  0  0  0  0  0  0
    8.7742   -6.1498   16.6764 C   0  0  0  0  0  0  0  0  0  0  0  0
   10.9418   -3.4032   21.2053 O   0  0  0  0  0  0  0  0  0  0  0  0
    1.4797   -8.6258   16.2950 C   0  0  0  0  0  0  0  0  0  0  0  0
    9.2861   -1.2743   25.3585 C   0  0  0  0  0  0  0  0  0  0  0  0
    1.8892  -10.3985   17.7511 N   0  0  0  0  0  0  0  0  0  0  0  0
    9.6210   -0.6952   24.0976 C   0  0  0  0  0  0  0  0  0  0  0  0
    7.0792   -9.0217   17.1429 C   0  0  0  0  0  0  0  0  0  0  0  0
    3.1713  -10.1816   17.6634 C   0  0  0  0  0  0  0  0  0  0  0  0
    2.7878   -8.3822   16.2137 C   0  0  0  0  0  0  0  0  0  0  0  0
    9.4601   -2.6590   25.6528 C   0  0  0  0  0  0  0  0  0  0  0  0
   10.1182   -1.5672   23.1165 C   0  0  0  0  0  0  0  0  0  0  0  0
    1.0552   -9.6360   17.0650 C   0  0  0  0  0  0  0  0  0  0  0  0
    3.6519   -9.1783   16.9039 C   0  0  0  0  0  0  0  0  0  0  0  0
    7.8675   -7.0096   15.9415 C   0  0  0  0  0  0  0  0  0  0  0  0
    5.9733   -9.6553   17.3832 N   0  0  0  0  0  0  0  0  0  0  0  0
   10.2411   -2.9363   23.4301 C   0  0  0  0  0  0  0  0  0  0  0  0
   10.7288   -3.8197   19.9525 C   0  0  0  0  0  0  0  0  0  0  0  0
   10.1189   -5.0054   19.6987 C   0  0  0  0  0  0  0  0  0  0  0  0
  1  3  4  0
  1  7  4  0
  2 21  4  0
  2 27  4  0
  3  9  4  0
  3 10  4  0
  4  8  4  0
  4 18  4  0
  4 25  1  0
  5  9  4  0
  5 12  4  0
  6 13  1  0
  6 27  1  0
  7 28  4  0
  8 11  4  0
  9 29  4  0
 10 12  4  0
 11 24  1  0
 11 26  4  0
 12 25  1  0
 13 28  1  0
 14 20  4  0
 14 23  4  0
 15 17  4  0
 15 21  4  0
 16 19  4  0
 16 23  4  0
 17 22  4  0
 18 26  4  0
 19 24  4  0
 20 24  4  0
 22 27  4  0
 28 29  4  0
M  END
$$$$

 Created by Python create_sdf_string function

 29 33  0  0  0  0  0  0  0  0999 V2000
   10.7215   -3.3326   17.6437 C   0  0  0  0  0  0  0  0  0  0  0  0
    9.9489   -3.4675   24.6487 N   0  0  0  0  0  0  0  0  0  0  0  0
   10.0172   -4.4740   17.4101 C   0  0  0  0  0  0  0  0  0  0  0  0
    6.9051   -7.9575   16.4222 C   0  0  0  0  0  0  0  0  0  0  0  0
    8.9969   -6.3552   17.9668 N   0  0  0  0  0  0  0  0  0  0  0  0
   10.6702   -3.9051   22.4070 C   0  0  0  0  0  0  0  0  0  0  0  0
   11.0625   -3.0028   18.8894 C   0  0  0  0  0  0  0  0  0  0  0  0
    5.6180   -7.9194   16.1754 O   0  0  0  0  0  0  0  0  0  0  0  0
    9.7259   -5.3080   18.4485 C   0  0  0  0  0  0  0  0  0  0  0  0
    9.4578   -5.0200   16.3036 N   0  0  0  0  0  0  0  0  0  0  0  0
    5.0287   -8.9365   16.8223 C   0  0  0  0  0  0  0  0  0  0  0  0
    8.7742   -6.1498   16.6764 C   0  0  0  0  0  0  0  0  0  0  0  0
   10.9418   -3.4032   21.2053 O   0  0  0  0  0  0  0  0  0  0  0  0
    1.4797   -8.6258   16.2950 C   0  0  0  0  0  0  0  0  0  0  0  0
    9.2861   -1.2743   25.3585 C   0  0  0  0  0  0  0  0  0  0  0  0
    1.8892  -10.3985   17.7511 N   0  0  0  0  0  0  0  0  0  0  0  0
    9.6210   -0.6952   24.0976 C   0  0  0  0  0  0  0  0  0  0  0  0
    7.0792   -9.0217   17.1429 C   0  0  0  0  0  0  0  0  0  0  0  0
    3.1713  -10.1816   17.6634 C   0  0  0  0  0  0  0  0  0  0  0  0
    2.7878   -8.3822   16.2137 C   0  0  0  0  0  0  0  0  0  0  0  0
    9.4601   -2.6590   25.6528 C   0  0  0  0  0  0  0  0  0  0  0  0
   10.1182   -1.5672   23.1165 C   0  0  0  0  0  0  0  0  0  0  0  0
    1.0552   -9.6360   17.0650 C   0  0  0  0  0  0  0  0  0  0  0  0
    3.6519   -9.1783   16.9039 C   0  0  0  0  0  0  0  0  0  0  0  0
    7.8675   -7.0096   15.9415 C   0  0  0  0  0  0  0  0  0  0  0  0
    5.9733   -9.6553   17.3832 N   0  0  0  0  0  0  0  0  0  0  0  0
   10.2411   -2.9363   23.4301 C   0  0  0  0  0  0  0  0  0  0  0  0
   10.7288   -3.8197   19.9525 C   0  0  0  0  0  0  0  0  0  0  0  0
   10.1189   -5.0054   19.6987 C   0  0  0  0  0  0  0  0  0  0  0  0
  1  3  4  0
  1  7  4  0
  2 21  4  0
  2 27  4  0
  3  9  4  0
  3 10  4  0
  4  8  4  0
  4 18  4  0
  4 25  1  0
  5  9  4  0
  5 12  4  0
  6 13  1  0
  6 27  1  0
  7 28  4  0
  8 11  4  0
  9 29  4  0
 10 12  4  0
 11 24  1  0
 11 26  4  0
 12 25  1  0
 13 28  1  0
 14 20  4  0
 14 23  4  0
 15 17  4  0
 15 21  4  0
 16 19  4  0
 16 23  4  0
 17 22  4  0
 18 26  4  0
 19 24  4  0
 20 24  4  0
 22 27  4  0
 28 29  4  0
M  END
$$$$

 Created by Python create_sdf_string function

 29 33  0  0  0  0  0  0  0  0999 V2000
   10.7215   -3.3326   17.6437 C   0  0  0  0  0  0  0  0  0  0  0  0
    9.9489   -3.4675   24.6487 N   0  0  0  0  0  0  0  0  0  0  0  0
   10.0172   -4.4740   17.4101 C   0  0  0  0  0  0  0  0  0  0  0  0
    6.9051   -7.9575   16.4222 C   0  0  0  0  0  0  0  0  0  0  0  0
    8.9969   -6.3552   17.9668 N   0  0  0  0  0  0  0  0  0  0  0  0
   10.6702   -3.9051   22.4070 C   0  0  0  0  0  0  0  0  0  0  0  0
   11.0625   -3.0028   18.8894 C   0  0  0  0  0  0  0  0  0  0  0  0
    5.6180   -7.9194   16.1754 O   0  0  0  0  0  0  0  0  0  0  0  0
    9.7259   -5.3080   18.4485 C   0  0  0  0  0  0  0  0  0  0  0  0
    9.4578   -5.0200   16.3036 N   0  0  0  0  0  0  0  0  0  0  0  0
    5.0287   -8.9365   16.8223 C   0  0  0  0  0  0  0  0  0  0  0  0
    8.7742   -6.1498   16.6764 C   0  0  0  0  0  0  0  0  0  0  0  0
   10.9418   -3.4032   21.2053 O   0  0  0  0  0  0  0  0  0  0  0  0
    1.4797   -8.6258   16.2950 C   0  0  0  0  0  0  0  0  0  0  0  0
    9.2861   -1.2743   25.3585 C   0  0  0  0  0  0  0  0  0  0  0  0
    1.8892  -10.3985   17.7511 N   0  0  0  0  0  0  0  0  0  0  0  0
    9.6210   -0.6952   24.0976 C   0  0  0  0  0  0  0  0  0  0  0  0
    7.0792   -9.0217   17.1429 C   0  0  0  0  0  0  0  0  0  0  0  0
    3.1713  -10.1816   17.6634 C   0  0  0  0  0  0  0  0  0  0  0  0
    2.7878   -8.3822   16.2137 C   0  0  0  0  0  0  0  0  0  0  0  0
    9.4601   -2.6590   25.6528 C   0  0  0  0  0  0  0  0  0  0  0  0
   10.1182   -1.5672   23.1165 C   0  0  0  0  0  0  0  0  0  0  0  0
    1.0552   -9.6360   17.0650 C   0  0  0  0  0  0  0  0  0  0  0  0
    3.6519   -9.1783   16.9039 C   0  0  0  0  0  0  0  0  0  0  0  0
    7.8675   -7.0096   15.9415 C   0  0  0  0  0  0  0  0  0  0  0  0
    5.9733   -9.6553   17.3832 N   0  0  0  0  0  0  0  0  0  0  0  0
   10.2411   -2.9363   23.4301 C   0  0  0  0  0  0  0  0  0  0  0  0
   10.7288   -3.8197   19.9525 C   0  0  0  0  0  0  0  0  0  0  0  0
   10.1189   -5.0054   19.6987 C   0  0  0  0  0  0  0  0  0  0  0  0
  1  3  4  0
  1  7  4  0
  2 21  4  0
  2 27  4  0
  3  9  4  0
  3 10  4  0
  4  8  4  0
  4 18  4  0
  4 25  1  0
  5  9  4  0
  5 12  4  0
  6 13  1  0
  6 27  1  0
  7 28  4  0
  8 11  4  0
  9 29  4  0
 10 12  4  0
 11 24  1  0
 11 26  4  0
 12 25  1  0
 13 28  1  0
 14 20  4  0
 14 23  4  0
 15 17  4  0
 15 21  4  0
 16 19  4  0
 16 23  4  0
 17 22  4  0
 18 26  4  0
 19 24  4  0
 20 24  4  0
 22 27  4  0
 28 29  4  0
M  END
$$$$

 Created by Python create_sdf_string function

 29 33  0  0  0  0  0  0  0  0999 V2000
   10.7215   -3.3326   17.6437 C   0  0  0  0  0  0  0  0  0  0  0  0
    9.9489   -3.4675   24.6487 N   0  0  0  0  0  0  0  0  0  0  0  0
   10.0172   -4.4740   17.4101 C   0  0  0  0  0  0  0  0  0  0  0  0
    6.9051   -7.9575   16.4222 C   0  0  0  0  0  0  0  0  0  0  0  0
    8.9969   -6.3552   17.9668 N   0  0  0  0  0  0  0  0  0  0  0  0
   10.6702   -3.9051   22.4070 C   0  0  0  0  0  0  0  0  0  0  0  0
   11.0625   -3.0028   18.8894 C   0  0  0  0  0  0  0  0  0  0  0  0
    5.6180   -7.9194   16.1754 O   0  0  0  0  0  0  0  0  0  0  0  0
    9.7259   -5.3080   18.4485 C   0  0  0  0  0  0  0  0  0  0  0  0
    9.4578   -5.0200   16.3036 N   0  0  0  0  0  0  0  0  0  0  0  0
    5.0287   -8.9365   16.8223 C   0  0  0  0  0  0  0  0  0  0  0  0
    8.7742   -6.1498   16.6764 C   0  0  0  0  0  0  0  0  0  0  0  0
   10.9418   -3.4032   21.2053 O   0  0  0  0  0  0  0  0  0  0  0  0
    1.4797   -8.6258   16.2950 C   0  0  0  0  0  0  0  0  0  0  0  0
    9.2861   -1.2743   25.3585 C   0  0  0  0  0  0  0  0  0  0  0  0
    1.8892  -10.3985   17.7511 N   0  0  0  0  0  0  0  0  0  0  0  0
    9.6210   -0.6952   24.0976 C   0  0  0  0  0  0  0  0  0  0  0  0
    7.0792   -9.0217   17.1429 C   0  0  0  0  0  0  0  0  0  0  0  0
    3.1713  -10.1816   17.6634 C   0  0  0  0  0  0  0  0  0  0  0  0
    2.7878   -8.3822   16.2137 C   0  0  0  0  0  0  0  0  0  0  0  0
    9.4601   -2.6590   25.6528 C   0  0  0  0  0  0  0  0  0  0  0  0
   10.1182   -1.5672   23.1165 C   0  0  0  0  0  0  0  0  0  0  0  0
    1.0552   -9.6360   17.0650 C   0  0  0  0  0  0  0  0  0  0  0  0
    3.6519   -9.1783   16.9039 C   0  0  0  0  0  0  0  0  0  0  0  0
    7.8675   -7.0096   15.9415 C   0  0  0  0  0  0  0  0  0  0  0  0
    5.9733   -9.6553   17.3832 N   0  0  0  0  0  0  0  0  0  0  0  0
   10.2411   -2.9363   23.4301 C   0  0  0  0  0  0  0  0  0  0  0  0
   10.7288   -3.8197   19.9525 C   0  0  0  0  0  0  0  0  0  0  0  0
   10.1189   -5.0054   19.6987 C   0  0  0  0  0  0  0  0  0  0  0  0
  1  3  4  0
  1  7  4  0
  2 21  4  0
  2 27  4  0
  3  9  4  0
  3 10  4  0
  4  8  4  0
  4 18  4  0
  4 25  1  0
  5  9  4  0
  5 12  4  0
  6 13  1  0
  6 27  1  0
  7 28  4  0
  8 11  4  0
  9 29  4  0
 10 12  4  0
 11 24  1  0
 11 26  4  0
 12 25  1  0
 13 28  1  0
 14 20  4  0
 14 23  4  0
 15 17  4  0
 15 21  4  0
 16 19  4  0
 16 23  4  0
 17 22  4  0
 18 26  4  0
 19 24  4  0
 20 24  4  0
 22 27  4  0
 28 29  4  0
M  END
$$$$

 Created by Python create_sdf_string function

 29 33  0  0  0  0  0  0  0  0999 V2000
   10.7215   -3.3326   17.6437 C   0  0  0  0  0  0  0  0  0  0  0  0
    9.9489   -3.4675   24.6487 N   0  0  0  0  0  0  0  0  0  0  0  0
   10.0172   -4.4740   17.4101 C   0  0  0  0  0  0  0  0  0  0  0  0
    6.9051   -7.9575   16.4222 C   0  0  0  0  0  0  0  0  0  0  0  0
    8.9969   -6.3552   17.9668 N   0  0  0  0  0  0  0  0  0  0  0  0
   10.6702   -3.9051   22.4070 C   0  0  0  0  0  0  0  0  0  0  0  0
   11.0625   -3.0028   18.8894 C   0  0  0  0  0  0  0  0  0  0  0  0
    5.6180   -7.9194   16.1754 O   0  0  0  0  0  0  0  0  0  0  0  0
    9.7259   -5.3080   18.4485 C   0  0  0  0  0  0  0  0  0  0  0  0
    9.4578   -5.0200   16.3036 N   0  0  0  0  0  0  0  0  0  0  0  0
    5.0287   -8.9365   16.8223 C   0  0  0  0  0  0  0  0  0  0  0  0
    8.7742   -6.1498   16.6764 C   0  0  0  0  0  0  0  0  0  0  0  0
   10.9418   -3.4032   21.2053 O   0  0  0  0  0  0  0  0  0  0  0  0
    1.4797   -8.6258   16.2950 C   0  0  0  0  0  0  0  0  0  0  0  0
    9.2861   -1.2743   25.3585 C   0  0  0  0  0  0  0  0  0  0  0  0
    1.8892  -10.3985   17.7511 N   0  0  0  0  0  0  0  0  0  0  0  0
    9.6210   -0.6952   24.0976 C   0  0  0  0  0  0  0  0  0  0  0  0
    7.0792   -9.0217   17.1429 C   0  0  0  0  0  0  0  0  0  0  0  0
    3.1713  -10.1816   17.6634 C   0  0  0  0  0  0  0  0  0  0  0  0
    2.7878   -8.3822   16.2137 C   0  0  0  0  0  0  0  0  0  0  0  0
    9.4601   -2.6590   25.6528 C   0  0  0  0  0  0  0  0  0  0  0  0
   10.1182   -1.5672   23.1165 C   0  0  0  0  0  0  0  0  0  0  0  0
    1.0552   -9.6360   17.0650 C   0  0  0  0  0  0  0  0  0  0  0  0
    3.6519   -9.1783   16.9039 C   0  0  0  0  0  0  0  0  0  0  0  0
    7.8675   -7.0096   15.9415 C   0  0  0  0  0  0  0  0  0  0  0  0
    5.9733   -9.6553   17.3832 N   0  0  0  0  0  0  0  0  0  0  0  0
   10.2411   -2.9363   23.4301 C   0  0  0  0  0  0  0  0  0  0  0  0
   10.7288   -3.8197   19.9525 C   0  0  0  0  0  0  0  0  0  0  0  0
   10.1189   -5.0054   19.6987 C   0  0  0  0  0  0  0  0  0  0  0  0
  1  3  4  0
  1  7  4  0
  2 21  4  0
  2 27  4  0
  3  9  4  0
  3 10  4  0
  4  8  4  0
  4 18  4  0
  4 25  1  0
  5  9  4  0
  5 12  4  0
  6 13  1  0
  6 27  1  0
  7 28  4  0
  8 11  4  0
  9 29  4  0
 10 12  4  0
 11 24  1  0
 11 26  4  0
 12 25  1  0
 13 28  1  0
 14 20  4  0
 14 23  4  0
 15 17  4  0
 15 21  4  0
 16 19  4  0
 16 23  4  0
 17 22  4  0
 18 26  4  0
 19 24  4  0
 20 24  4  0
 22 27  4  0
 28 29  4  0
M  END
$$$$

 Created by Python create_sdf_string function

 29 33  0  0  0  0  0  0  0  0999 V2000
   10.7215   -3.3326   17.6437 C   0  0  0  0  0  0  0  0  0  0  0  0
    9.9489   -3.4675   24.6487 N   0  0  0  0  0  0  0  0  0  0  0  0
   10.0172   -4.4740   17.4101 C   0  0  0  0  0  0  0  0  0  0  0  0
    6.9051   -7.9575   16.4222 C   0  0  0  0  0  0  0  0  0  0  0  0
    8.9969   -6.3552   17.9668 N   0  0  0  0  0  0  0  0  0  0  0  0
   10.6702   -3.9051   22.4070 C   0  0  0  0  0  0  0  0  0  0  0  0
   11.0625   -3.0028   18.8894 C   0  0  0  0  0  0  0  0  0  0  0  0
    5.6180   -7.9194   16.1754 O   0  0  0  0  0  0  0  0  0  0  0  0
    9.7259   -5.3080   18.4485 C   0  0  0  0  0  0  0  0  0  0  0  0
    9.4578   -5.0200   16.3036 N   0  0  0  0  0  0  0  0  0  0  0  0
    5.0287   -8.9365   16.8223 C   0  0  0  0  0  0  0  0  0  0  0  0
    8.7742   -6.1498   16.6764 C   0  0  0  0  0  0  0  0  0  0  0  0
   10.9418   -3.4032   21.2053 O   0  0  0  0  0  0  0  0  0  0  0  0
    1.4797   -8.6258   16.2950 C   0  0  0  0  0  0  0  0  0  0  0  0
    9.2861   -1.2743   25.3585 C   0  0  0  0  0  0  0  0  0  0  0  0
    1.8892  -10.3985   17.7511 N   0  0  0  0  0  0  0  0  0  0  0  0
    9.6210   -0.6952   24.0976 C   0  0  0  0  0  0  0  0  0  0  0  0
    7.0792   -9.0217   17.1429 C   0  0  0  0  0  0  0  0  0  0  0  0
    3.1713  -10.1816   17.6634 C   0  0  0  0  0  0  0  0  0  0  0  0
    2.7878   -8.3822   16.2137 C   0  0  0  0  0  0  0  0  0  0  0  0
    9.4601   -2.6590   25.6528 C   0  0  0  0  0  0  0  0  0  0  0  0
   10.1182   -1.5672   23.1165 C   0  0  0  0  0  0  0  0  0  0  0  0
    1.0552   -9.6360   17.0650 C   0  0  0  0  0  0  0  0  0  0  0  0
    3.6519   -9.1783   16.9039 C   0  0  0  0  0  0  0  0  0  0  0  0
    7.8675   -7.0096   15.9415 C   0  0  0  0  0  0  0  0  0  0  0  0
    5.9733   -9.6553   17.3832 N   0  0  0  0  0  0  0  0  0  0  0  0
   10.2411   -2.9363   23.4301 C   0  0  0  0  0  0  0  0  0  0  0  0
   10.7288   -3.8197   19.9525 C   0  0  0  0  0  0  0  0  0  0  0  0
   10.1189   -5.0054   19.6987 C   0  0  0  0  0  0  0  0  0  0  0  0
  1  3  4  0
  1  7  4  0
  2 21  4  0
  2 27  4  0
  3  9  4  0
  3 10  4  0
  4  8  4  0
  4 18  4  0
  4 25  1  0
  5  9  4  0
  5 12  4  0
  6 13  1  0
  6 27  1  0
  7 28  4  0
  8 11  4  0
  9 29  4  0
 10 12  4  0
 11 24  1  0
 11 26  4  0
 12 25  1  0
 13 28  1  0
 14 20  4  0
 14 23  4  0
 15 17  4  0
 15 21  4  0
 16 19  4  0
 16 23  4  0
 17 22  4  0
 18 26  4  0
 19 24  4  0
 20 24  4  0
 22 27  4  0
 28 29  4  0
M  END
$$$$

 Created by Python create_sdf_string function

 29 33  0  0  0  0  0  0  0  0999 V2000
   10.7215   -3.3326   17.6437 C   0  0  0  0  0  0  0  0  0  0  0  0
    9.9489   -3.4675   24.6487 N   0  0  0  0  0  0  0  0  0  0  0  0
   10.0172   -4.4740   17.4101 C   0  0  0  0  0  0  0  0  0  0  0  0
    6.9051   -7.9575   16.4222 C   0  0  0  0  0  0  0  0  0  0  0  0
    8.9969   -6.3552   17.9668 N   0  0  0  0  0  0  0  0  0  0  0  0
   10.6702   -3.9051   22.4070 C   0  0  0  0  0  0  0  0  0  0  0  0
   11.0625   -3.0028   18.8894 C   0  0  0  0  0  0  0  0  0  0  0  0
    5.6180   -7.9194   16.1754 O   0  0  0  0  0  0  0  0  0  0  0  0
    9.7259   -5.3080   18.4485 C   0  0  0  0  0  0  0  0  0  0  0  0
    9.4578   -5.0200   16.3036 N   0  0  0  0  0  0  0  0  0  0  0  0
    5.0287   -8.9365   16.8223 C   0  0  0  0  0  0  0  0  0  0  0  0
    8.7742   -6.1498   16.6764 C   0  0  0  0  0  0  0  0  0  0  0  0
   10.9418   -3.4032   21.2053 O   0  0  0  0  0  0  0  0  0  0  0  0
    1.4797   -8.6258   16.2950 C   0  0  0  0  0  0  0  0  0  0  0  0
    9.2861   -1.2743   25.3585 C   0  0  0  0  0  0  0  0  0  0  0  0
    1.8892  -10.3985   17.7511 N   0  0  0  0  0  0  0  0  0  0  0  0
    9.6210   -0.6952   24.0976 C   0  0  0  0  0  0  0  0  0  0  0  0
    7.0792   -9.0217   17.1429 C   0  0  0  0  0  0  0  0  0  0  0  0
    3.1713  -10.1816   17.6634 C   0  0  0  0  0  0  0  0  0  0  0  0
    2.7878   -8.3822   16.2137 C   0  0  0  0  0  0  0  0  0  0  0  0
    9.4601   -2.6590   25.6528 C   0  0  0  0  0  0  0  0  0  0  0  0
   10.1182   -1.5672   23.1165 C   0  0  0  0  0  0  0  0  0  0  0  0
    1.0552   -9.6360   17.0650 C   0  0  0  0  0  0  0  0  0  0  0  0
    3.6519   -9.1783   16.9039 C   0  0  0  0  0  0  0  0  0  0  0  0
    7.8675   -7.0096   15.9415 C   0  0  0  0  0  0  0  0  0  0  0  0
    5.9733   -9.6553   17.3832 N   0  0  0  0  0  0  0  0  0  0  0  0
   10.2411   -2.9363   23.4301 C   0  0  0  0  0  0  0  0  0  0  0  0
   10.7288   -3.8197   19.9525 C   0  0  0  0  0  0  0  0  0  0  0  0
   10.1189   -5.0054   19.6987 C   0  0  0  0  0  0  0  0  0  0  0  0
  1  3  4  0
  1  7  4  0
  2 21  4  0
  2 27  4  0
  3  9  4  0
  3 10  4  0
  4  8  4  0
  4 18  4  0
  4 25  1  0
  5  9  4  0
  5 12  4  0
  6 13  1  0
  6 27  1  0
  7 28  4  0
  8 11  4  0
  9 29  4  0
 10 12  4  0
 11 24  1  0
 11 26  4  0
 12 25  1  0
 13 28  1  0
 14 20  4  0
 14 23  4  0
 15 17  4  0
 15 21  4  0
 16 19  4  0
 16 23  4  0
 17 22  4  0
 18 26  4  0
 19 24  4  0
 20 24  4  0
 22 27  4  0
 28 29  4  0
M  END
$$$$

 Created by Python create_sdf_string function

 29 33  0  0  0  0  0  0  0  0999 V2000
   10.7215   -3.3326   17.6437 C   0  0  0  0  0  0  0  0  0  0  0  0
    9.9489   -3.4675   24.6487 N   0  0  0  0  0  0  0  0  0  0  0  0
   10.0172   -4.4740   17.4101 C   0  0  0  0  0  0  0  0  0  0  0  0
    6.9051   -7.9575   16.4222 C   0  0  0  0  0  0  0  0  0  0  0  0
    8.9969   -6.3552   17.9668 N   0  0  0  0  0  0  0  0  0  0  0  0
   10.6702   -3.9051   22.4070 C   0  0  0  0  0  0  0  0  0  0  0  0
   11.0625   -3.0028   18.8894 C   0  0  0  0  0  0  0  0  0  0  0  0
    5.6180   -7.9194   16.1754 O   0  0  0  0  0  0  0  0  0  0  0  0
    9.7259   -5.3080   18.4485 C   0  0  0  0  0  0  0  0  0  0  0  0
    9.4578   -5.0200   16.3036 N   0  0  0  0  0  0  0  0  0  0  0  0
    5.0287   -8.9365   16.8223 C   0  0  0  0  0  0  0  0  0  0  0  0
    8.7742   -6.1498   16.6764 C   0  0  0  0  0  0  0  0  0  0  0  0
   10.9418   -3.4032   21.2053 O   0  0  0  0  0  0  0  0  0  0  0  0
    1.4797   -8.6258   16.2950 C   0  0  0  0  0  0  0  0  0  0  0  0
    9.2861   -1.2743   25.3585 C   0  0  0  0  0  0  0  0  0  0  0  0
    1.8892  -10.3985   17.7511 N   0  0  0  0  0  0  0  0  0  0  0  0
    9.6210   -0.6952   24.0976 C   0  0  0  0  0  0  0  0  0  0  0  0
    7.0792   -9.0217   17.1429 C   0  0  0  0  0  0  0  0  0  0  0  0
    3.1713  -10.1816   17.6634 C   0  0  0  0  0  0  0  0  0  0  0  0
    2.7878   -8.3822   16.2137 C   0  0  0  0  0  0  0  0  0  0  0  0
    9.4601   -2.6590   25.6528 C   0  0  0  0  0  0  0  0  0  0  0  0
   10.1182   -1.5672   23.1165 C   0  0  0  0  0  0  0  0  0  0  0  0
    1.0552   -9.6360   17.0650 C   0  0  0  0  0  0  0  0  0  0  0  0
    3.6519   -9.1783   16.9039 C   0  0  0  0  0  0  0  0  0  0  0  0
    7.8675   -7.0096   15.9415 C   0  0  0  0  0  0  0  0  0  0  0  0
    5.9733   -9.6553   17.3832 N   0  0  0  0  0  0  0  0  0  0  0  0
   10.2411   -2.9363   23.4301 C   0  0  0  0  0  0  0  0  0  0  0  0
   10.7288   -3.8197   19.9525 C   0  0  0  0  0  0  0  0  0  0  0  0
   10.1189   -5.0054   19.6987 C   0  0  0  0  0  0  0  0  0  0  0  0
  1  3  4  0
  1  7  4  0
  2 21  4  0
  2 27  4  0
  3  9  4  0
  3 10  4  0
  4  8  4  0
  4 18  4  0
  4 25  1  0
  5  9  4  0
  5 12  4  0
  6 13  1  0
  6 27  1  0
  7 28  4  0
  8 11  4  0
  9 29  4  0
 10 12  4  0
 11 24  1  0
 11 26  4  0
 12 25  1  0
 13 28  1  0
 14 20  4  0
 14 23  4  0
 15 17  4  0
 15 21  4  0
 16 19  4  0
 16 23  4  0
 17 22  4  0
 18 26  4  0
 19 24  4  0
 20 24  4  0
 22 27  4  0
 28 29  4  0
M  END
$$$$

 Created by Python create_sdf_string function

 29 33  0  0  0  0  0  0  0  0999 V2000
   10.7215   -3.3326   17.6437 C   0  0  0  0  0  0  0  0  0  0  0  0
    9.9489   -3.4675   24.6487 N   0  0  0  0  0  0  0  0  0  0  0  0
   10.0172   -4.4740   17.4101 C   0  0  0  0  0  0  0  0  0  0  0  0
    6.9051   -7.9575   16.4222 C   0  0  0  0  0  0  0  0  0  0  0  0
    8.9969   -6.3552   17.9668 N   0  0  0  0  0  0  0  0  0  0  0  0
   10.6702   -3.9051   22.4070 C   0  0  0  0  0  0  0  0  0  0  0  0
   11.0625   -3.0028   18.8894 C   0  0  0  0  0  0  0  0  0  0  0  0
    5.6180   -7.9194   16.1754 O   0  0  0  0  0  0  0  0  0  0  0  0
    9.7259   -5.3080   18.4485 C   0  0  0  0  0  0  0  0  0  0  0  0
    9.4578   -5.0200   16.3036 N   0  0  0  0  0  0  0  0  0  0  0  0
    5.0287   -8.9365   16.8223 C   0  0  0  0  0  0  0  0  0  0  0  0
    8.7742   -6.1498   16.6764 C   0  0  0  0  0  0  0  0  0  0  0  0
   10.9418   -3.4032   21.2053 O   0  0  0  0  0  0  0  0  0  0  0  0
    1.4797   -8.6258   16.2950 C   0  0  0  0  0  0  0  0  0  0  0  0
    9.2861   -1.2743   25.3585 C   0  0  0  0  0  0  0  0  0  0  0  0
    1.8892  -10.3985   17.7511 N   0  0  0  0  0  0  0  0  0  0  0  0
    9.6210   -0.6952   24.0976 C   0  0  0  0  0  0  0  0  0  0  0  0
    7.0792   -9.0217   17.1429 C   0  0  0  0  0  0  0  0  0  0  0  0
    3.1713  -10.1816   17.6634 C   0  0  0  0  0  0  0  0  0  0  0  0
    2.7878   -8.3822   16.2137 C   0  0  0  0  0  0  0  0  0  0  0  0
    9.4601   -2.6590   25.6528 C   0  0  0  0  0  0  0  0  0  0  0  0
   10.1182   -1.5672   23.1165 C   0  0  0  0  0  0  0  0  0  0  0  0
    1.0552   -9.6360   17.0650 C   0  0  0  0  0  0  0  0  0  0  0  0
    3.6519   -9.1783   16.9039 C   0  0  0  0  0  0  0  0  0  0  0  0
    7.8675   -7.0096   15.9415 C   0  0  0  0  0  0  0  0  0  0  0  0
    5.9733   -9.6553   17.3832 N   0  0  0  0  0  0  0  0  0  0  0  0
   10.2411   -2.9363   23.4301 C   0  0  0  0  0  0  0  0  0  0  0  0
   10.7288   -3.8197   19.9525 C   0  0  0  0  0  0  0  0  0  0  0  0
   10.1189   -5.0054   19.6987 C   0  0  0  0  0  0  0  0  0  0  0  0
  1  3  4  0
  1  7  4  0
  2 21  4  0
  2 27  4  0
  3  9  4  0
  3 10  4  0
  4  8  4  0
  4 18  4  0
  4 25  1  0
  5  9  4  0
  5 12  4  0
  6 13  1  0
  6 27  1  0
  7 28  4  0
  8 11  4  0
  9 29  4  0
 10 12  4  0
 11 24  1  0
 11 26  4  0
 12 25  1  0
 13 28  1  0
 14 20  4  0
 14 23  4  0
 15 17  4  0
 15 21  4  0
 16 19  4  0
 16 23  4  0
 17 22  4  0
 18 26  4  0
 19 24  4  0
 20 24  4  0
 22 27  4  0
 28 29  4  0
M  END
$$$$

 Created by Python create_sdf_string function

 29 33  0  0  0  0  0  0  0  0999 V2000
   10.7215   -3.3326   17.6437 C   0  0  0  0  0  0  0  0  0  0  0  0
    9.9489   -3.4675   24.6487 N   0  0  0  0  0  0  0  0  0  0  0  0
   10.0172   -4.4740   17.4101 C   0  0  0  0  0  0  0  0  0  0  0  0
    6.9051   -7.9575   16.4222 C   0  0  0  0  0  0  0  0  0  0  0  0
    8.9969   -6.3552   17.9668 N   0  0  0  0  0  0  0  0  0  0  0  0
   10.6702   -3.9051   22.4070 C   0  0  0  0  0  0  0  0  0  0  0  0
   11.0625   -3.0028   18.8894 C   0  0  0  0  0  0  0  0  0  0  0  0
    5.6180   -7.9194   16.1754 O   0  0  0  0  0  0  0  0  0  0  0  0
    9.7259   -5.3080   18.4485 C   0  0  0  0  0  0  0  0  0  0  0  0
    9.4578   -5.0200   16.3036 N   0  0  0  0  0  0  0  0  0  0  0  0
    5.0287   -8.9365   16.8223 C   0  0  0  0  0  0  0  0  0  0  0  0
    8.7742   -6.1498   16.6764 C   0  0  0  0  0  0  0  0  0  0  0  0
   10.9418   -3.4032   21.2053 O   0  0  0  0  0  0  0  0  0  0  0  0
    1.4797   -8.6258   16.2950 C   0  0  0  0  0  0  0  0  0  0  0  0
    9.2861   -1.2743   25.3585 C   0  0  0  0  0  0  0  0  0  0  0  0
    1.8892  -10.3985   17.7511 N   0  0  0  0  0  0  0  0  0  0  0  0
    9.6210   -0.6952   24.0976 C   0  0  0  0  0  0  0  0  0  0  0  0
    7.0792   -9.0217   17.1429 C   0  0  0  0  0  0  0  0  0  0  0  0
    3.1713  -10.1816   17.6634 C   0  0  0  0  0  0  0  0  0  0  0  0
    2.7878   -8.3822   16.2137 C   0  0  0  0  0  0  0  0  0  0  0  0
    9.4601   -2.6590   25.6528 C   0  0  0  0  0  0  0  0  0  0  0  0
   10.1182   -1.5672   23.1165 C   0  0  0  0  0  0  0  0  0  0  0  0
    1.0552   -9.6360   17.0650 C   0  0  0  0  0  0  0  0  0  0  0  0
    3.6519   -9.1783   16.9039 C   0  0  0  0  0  0  0  0  0  0  0  0
    7.8675   -7.0096   15.9415 C   0  0  0  0  0  0  0  0  0  0  0  0
    5.9733   -9.6553   17.3832 N   0  0  0  0  0  0  0  0  0  0  0  0
   10.2411   -2.9363   23.4301 C   0  0  0  0  0  0  0  0  0  0  0  0
   10.7288   -3.8197   19.9525 C   0  0  0  0  0  0  0  0  0  0  0  0
   10.1189   -5.0054   19.6987 C   0  0  0  0  0  0  0  0  0  0  0  0
  1  3  4  0
  1  7  4  0
  2 21  4  0
  2 27  4  0
  3  9  4  0
  3 10  4  0
  4  8  4  0
  4 18  4  0
  4 25  1  0
  5  9  4  0
  5 12  4  0
  6 13  1  0
  6 27  1  0
  7 28  4  0
  8 11  4  0
  9 29  4  0
 10 12  4  0
 11 24  1  0
 11 26  4  0
 12 25  1  0
 13 28  1  0
 14 20  4  0
 14 23  4  0
 15 17  4  0
 15 21  4  0
 16 19  4  0
 16 23  4  0
 17 22  4  0
 18 26  4  0
 19 24  4  0
 20 24  4  0
 22 27  4  0
 28 29  4  0
M  END
$$$$

 Created by Python create_sdf_string function

 29 33  0  0  0  0  0  0  0  0999 V2000
   10.7215   -3.3326   17.6437 C   0  0  0  0  0  0  0  0  0  0  0  0
    9.9489   -3.4675   24.6487 N   0  0  0  0  0  0  0  0  0  0  0  0
   10.0172   -4.4740   17.4101 C   0  0  0  0  0  0  0  0  0  0  0  0
    6.9051   -7.9575   16.4222 C   0  0  0  0  0  0  0  0  0  0  0  0
    8.9969   -6.3552   17.9668 N   0  0  0  0  0  0  0  0  0  0  0  0
   10.6702   -3.9051   22.4070 C   0  0  0  0  0  0  0  0  0  0  0  0
   11.0625   -3.0028   18.8894 C   0  0  0  0  0  0  0  0  0  0  0  0
    5.6180   -7.9194   16.1754 O   0  0  0  0  0  0  0  0  0  0  0  0
    9.7259   -5.3080   18.4485 C   0  0  0  0  0  0  0  0  0  0  0  0
    9.4578   -5.0200   16.3036 N   0  0  0  0  0  0  0  0  0  0  0  0
    5.0287   -8.9365   16.8223 C   0  0  0  0  0  0  0  0  0  0  0  0
    8.7742   -6.1498   16.6764 C   0  0  0  0  0  0  0  0  0  0  0  0
   10.9418   -3.4032   21.2053 O   0  0  0  0  0  0  0  0  0  0  0  0
    1.4797   -8.6258   16.2950 C   0  0  0  0  0  0  0  0  0  0  0  0
    9.2861   -1.2743   25.3585 C   0  0  0  0  0  0  0  0  0  0  0  0
    1.8892  -10.3985   17.7511 N   0  0  0  0  0  0  0  0  0  0  0  0
    9.6210   -0.6952   24.0976 C   0  0  0  0  0  0  0  0  0  0  0  0
    7.0792   -9.0217   17.1429 C   0  0  0  0  0  0  0  0  0  0  0  0
    3.1713  -10.1816   17.6634 C   0  0  0  0  0  0  0  0  0  0  0  0
    2.7878   -8.3822   16.2137 C   0  0  0  0  0  0  0  0  0  0  0  0
    9.4601   -2.6590   25.6528 C   0  0  0  0  0  0  0  0  0  0  0  0
   10.1182   -1.5672   23.1165 C   0  0  0  0  0  0  0  0  0  0  0  0
    1.0552   -9.6360   17.0650 C   0  0  0  0  0  0  0  0  0  0  0  0
    3.6519   -9.1783   16.9039 C   0  0  0  0  0  0  0  0  0  0  0  0
    7.8675   -7.0096   15.9415 C   0  0  0  0  0  0  0  0  0  0  0  0
    5.9733   -9.6553   17.3832 N   0  0  0  0  0  0  0  0  0  0  0  0
   10.2411   -2.9363   23.4301 C   0  0  0  0  0  0  0  0  0  0  0  0
   10.7288   -3.8197   19.9525 C   0  0  0  0  0  0  0  0  0  0  0  0
   10.1189   -5.0054   19.6987 C   0  0  0  0  0  0  0  0  0  0  0  0
  1  3  4  0
  1  7  4  0
  2 21  4  0
  2 27  4  0
  3  9  4  0
  3 10  4  0
  4  8  4  0
  4 18  4  0
  4 25  1  0
  5  9  4  0
  5 12  4  0
  6 13  1  0
  6 27  1  0
  7 28  4  0
  8 11  4  0
  9 29  4  0
 10 12  4  0
 11 24  1  0
 11 26  4  0
 12 25  1  0
 13 28  1  0
 14 20  4  0
 14 23  4  0
 15 17  4  0
 15 21  4  0
 16 19  4  0
 16 23  4  0
 17 22  4  0
 18 26  4  0
 19 24  4  0
 20 24  4  0
 22 27  4  0
 28 29  4  0
M  END
$$$$

 Created by Python create_sdf_string function

 29 33  0  0  0  0  0  0  0  0999 V2000
   10.7215   -3.3326   17.6437 C   0  0  0  0  0  0  0  0  0  0  0  0
    9.9489   -3.4675   24.6487 N   0  0  0  0  0  0  0  0  0  0  0  0
   10.0172   -4.4740   17.4101 C   0  0  0  0  0  0  0  0  0  0  0  0
    6.9051   -7.9575   16.4222 C   0  0  0  0  0  0  0  0  0  0  0  0
    8.9969   -6.3552   17.9668 N   0  0  0  0  0  0  0  0  0  0  0  0
   10.6702   -3.9051   22.4070 C   0  0  0  0  0  0  0  0  0  0  0  0
   11.0625   -3.0028   18.8894 C   0  0  0  0  0  0  0  0  0  0  0  0
    5.6180   -7.9194   16.1754 O   0  0  0  0  0  0  0  0  0  0  0  0
    9.7259   -5.3080   18.4485 C   0  0  0  0  0  0  0  0  0  0  0  0
    9.4578   -5.0200   16.3036 N   0  0  0  0  0  0  0  0  0  0  0  0
    5.0287   -8.9365   16.8223 C   0  0  0  0  0  0  0  0  0  0  0  0
    8.7742   -6.1498   16.6764 C   0  0  0  0  0  0  0  0  0  0  0  0
   10.9418   -3.4032   21.2053 O   0  0  0  0  0  0  0  0  0  0  0  0
    1.4797   -8.6258   16.2950 C   0  0  0  0  0  0  0  0  0  0  0  0
    9.2861   -1.2743   25.3585 C   0  0  0  0  0  0  0  0  0  0  0  0
    1.8892  -10.3985   17.7511 N   0  0  0  0  0  0  0  0  0  0  0  0
    9.6210   -0.6952   24.0976 C   0  0  0  0  0  0  0  0  0  0  0  0
    7.0792   -9.0217   17.1429 C   0  0  0  0  0  0  0  0  0  0  0  0
    3.1713  -10.1816   17.6634 C   0  0  0  0  0  0  0  0  0  0  0  0
    2.7878   -8.3822   16.2137 C   0  0  0  0  0  0  0  0  0  0  0  0
    9.4601   -2.6590   25.6528 C   0  0  0  0  0  0  0  0  0  0  0  0
   10.1182   -1.5672   23.1165 C   0  0  0  0  0  0  0  0  0  0  0  0
    1.0552   -9.6360   17.0650 C   0  0  0  0  0  0  0  0  0  0  0  0
    3.6519   -9.1783   16.9039 C   0  0  0  0  0  0  0  0  0  0  0  0
    7.8675   -7.0096   15.9415 C   0  0  0  0  0  0  0  0  0  0  0  0
    5.9733   -9.6553   17.3832 N   0  0  0  0  0  0  0  0  0  0  0  0
   10.2411   -2.9363   23.4301 C   0  0  0  0  0  0  0  0  0  0  0  0
   10.7288   -3.8197   19.9525 C   0  0  0  0  0  0  0  0  0  0  0  0
   10.1189   -5.0054   19.6987 C   0  0  0  0  0  0  0  0  0  0  0  0
  1  3  4  0
  1  7  4  0
  2 21  4  0
  2 27  4  0
  3  9  4  0
  3 10  4  0
  4  8  4  0
  4 18  4  0
  4 25  1  0
  5  9  4  0
  5 12  4  0
  6 13  1  0
  6 27  1  0
  7 28  4  0
  8 11  4  0
  9 29  4  0
 10 12  4  0
 11 24  1  0
 11 26  4  0
 12 25  1  0
 13 28  1  0
 14 20  4  0
 14 23  4  0
 15 17  4  0
 15 21  4  0
 16 19  4  0
 16 23  4  0
 17 22  4  0
 18 26  4  0
 19 24  4  0
 20 24  4  0
 22 27  4  0
 28 29  4  0
M  END
$$$$

 Created by Python create_sdf_string function

 29 33  0  0  0  0  0  0  0  0999 V2000
   10.7215   -3.3326   17.6437 C   0  0  0  0  0  0  0  0  0  0  0  0
    9.9489   -3.4675   24.6487 N   0  0  0  0  0  0  0  0  0  0  0  0
   10.0172   -4.4740   17.4101 C   0  0  0  0  0  0  0  0  0  0  0  0
    6.9051   -7.9575   16.4222 C   0  0  0  0  0  0  0  0  0  0  0  0
    8.9969   -6.3552   17.9668 N   0  0  0  0  0  0  0  0  0  0  0  0
   10.6702   -3.9051   22.4070 C   0  0  0  0  0  0  0  0  0  0  0  0
   11.0625   -3.0028   18.8894 C   0  0  0  0  0  0  0  0  0  0  0  0
    5.6180   -7.9194   16.1754 O   0  0  0  0  0  0  0  0  0  0  0  0
    9.7259   -5.3080   18.4485 C   0  0  0  0  0  0  0  0  0  0  0  0
    9.4578   -5.0200   16.3036 N   0  0  0  0  0  0  0  0  0  0  0  0
    5.0287   -8.9365   16.8223 C   0  0  0  0  0  0  0  0  0  0  0  0
    8.7742   -6.1498   16.6764 C   0  0  0  0  0  0  0  0  0  0  0  0
   10.9418   -3.4032   21.2053 O   0  0  0  0  0  0  0  0  0  0  0  0
    1.4797   -8.6258   16.2950 C   0  0  0  0  0  0  0  0  0  0  0  0
    9.2861   -1.2743   25.3585 C   0  0  0  0  0  0  0  0  0  0  0  0
    1.8892  -10.3985   17.7511 N   0  0  0  0  0  0  0  0  0  0  0  0
    9.6210   -0.6952   24.0976 C   0  0  0  0  0  0  0  0  0  0  0  0
    7.0792   -9.0217   17.1429 C   0  0  0  0  0  0  0  0  0  0  0  0
    3.1713  -10.1816   17.6634 C   0  0  0  0  0  0  0  0  0  0  0  0
    2.7878   -8.3822   16.2137 C   0  0  0  0  0  0  0  0  0  0  0  0
    9.4601   -2.6590   25.6528 C   0  0  0  0  0  0  0  0  0  0  0  0
   10.1182   -1.5672   23.1165 C   0  0  0  0  0  0  0  0  0  0  0  0
    1.0552   -9.6360   17.0650 C   0  0  0  0  0  0  0  0  0  0  0  0
    3.6519   -9.1783   16.9039 C   0  0  0  0  0  0  0  0  0  0  0  0
    7.8675   -7.0096   15.9415 C   0  0  0  0  0  0  0  0  0  0  0  0
    5.9733   -9.6553   17.3832 N   0  0  0  0  0  0  0  0  0  0  0  0
   10.2411   -2.9363   23.4301 C   0  0  0  0  0  0  0  0  0  0  0  0
   10.7288   -3.8197   19.9525 C   0  0  0  0  0  0  0  0  0  0  0  0
   10.1189   -5.0054   19.6987 C   0  0  0  0  0  0  0  0  0  0  0  0
  1  3  4  0
  1  7  4  0
  2 21  4  0
  2 27  4  0
  3  9  4  0
  3 10  4  0
  4  8  4  0
  4 18  4  0
  4 25  1  0
  5  9  4  0
  5 12  4  0
  6 13  1  0
  6 27  1  0
  7 28  4  0
  8 11  4  0
  9 29  4  0
 10 12  4  0
 11 24  1  0
 11 26  4  0
 12 25  1  0
 13 28  1  0
 14 20  4  0
 14 23  4  0
 15 17  4  0
 15 21  4  0
 16 19  4  0
 16 23  4  0
 17 22  4  0
 18 26  4  0
 19 24  4  0
 20 24  4  0
 22 27  4  0
 28 29  4  0
M  END
$$$$

 Created by Python create_sdf_string function

 29 33  0  0  0  0  0  0  0  0999 V2000
   10.7215   -3.3326   17.6437 C   0  0  0  0  0  0  0  0  0  0  0  0
    9.9489   -3.4675   24.6487 N   0  0  0  0  0  0  0  0  0  0  0  0
   10.0172   -4.4740   17.4101 C   0  0  0  0  0  0  0  0  0  0  0  0
    6.9051   -7.9575   16.4222 C   0  0  0  0  0  0  0  0  0  0  0  0
    8.9969   -6.3552   17.9668 N   0  0  0  0  0  0  0  0  0  0  0  0
   10.6702   -3.9051   22.4070 C   0  0  0  0  0  0  0  0  0  0  0  0
   11.0625   -3.0028   18.8894 C   0  0  0  0  0  0  0  0  0  0  0  0
    5.6180   -7.9194   16.1754 O   0  0  0  0  0  0  0  0  0  0  0  0
    9.7259   -5.3080   18.4485 C   0  0  0  0  0  0  0  0  0  0  0  0
    9.4578   -5.0200   16.3036 N   0  0  0  0  0  0  0  0  0  0  0  0
    5.0287   -8.9365   16.8223 C   0  0  0  0  0  0  0  0  0  0  0  0
    8.7742   -6.1498   16.6764 C   0  0  0  0  0  0  0  0  0  0  0  0
   10.9418   -3.4032   21.2053 O   0  0  0  0  0  0  0  0  0  0  0  0
    1.4797   -8.6258   16.2950 C   0  0  0  0  0  0  0  0  0  0  0  0
    9.2861   -1.2743   25.3585 C   0  0  0  0  0  0  0  0  0  0  0  0
    1.8892  -10.3985   17.7511 N   0  0  0  0  0  0  0  0  0  0  0  0
    9.6210   -0.6952   24.0976 C   0  0  0  0  0  0  0  0  0  0  0  0
    7.0792   -9.0217   17.1429 C   0  0  0  0  0  0  0  0  0  0  0  0
    3.1713  -10.1816   17.6634 C   0  0  0  0  0  0  0  0  0  0  0  0
    2.7878   -8.3822   16.2137 C   0  0  0  0  0  0  0  0  0  0  0  0
    9.4601   -2.6590   25.6528 C   0  0  0  0  0  0  0  0  0  0  0  0
   10.1182   -1.5672   23.1165 C   0  0  0  0  0  0  0  0  0  0  0  0
    1.0552   -9.6360   17.0650 C   0  0  0  0  0  0  0  0  0  0  0  0
    3.6519   -9.1783   16.9039 C   0  0  0  0  0  0  0  0  0  0  0  0
    7.8675   -7.0096   15.9415 C   0  0  0  0  0  0  0  0  0  0  0  0
    5.9733   -9.6553   17.3832 N   0  0  0  0  0  0  0  0  0  0  0  0
   10.2411   -2.9363   23.4301 C   0  0  0  0  0  0  0  0  0  0  0  0
   10.7288   -3.8197   19.9525 C   0  0  0  0  0  0  0  0  0  0  0  0
   10.1189   -5.0054   19.6987 C   0  0  0  0  0  0  0  0  0  0  0  0
  1  3  4  0
  1  7  4  0
  2 21  4  0
  2 27  4  0
  3  9  4  0
  3 10  4  0
  4  8  4  0
  4 18  4  0
  4 25  1  0
  5  9  4  0
  5 12  4  0
  6 13  1  0
  6 27  1  0
  7 28  4  0
  8 11  4  0
  9 29  4  0
 10 12  4  0
 11 24  1  0
 11 26  4  0
 12 25  1  0
 13 28  1  0
 14 20  4  0
 14 23  4  0
 15 17  4  0
 15 21  4  0
 16 19  4  0
 16 23  4  0
 17 22  4  0
 18 26  4  0
 19 24  4  0
 20 24  4  0
 22 27  4  0
 28 29  4  0
M  END
$$$$

 Created by Python create_sdf_string function

 29 33  0  0  0  0  0  0  0  0999 V2000
   10.7215   -3.3326   17.6437 C   0  0  0  0  0  0  0  0  0  0  0  0
    9.9489   -3.4675   24.6487 N   0  0  0  0  0  0  0  0  0  0  0  0
   10.0172   -4.4740   17.4101 C   0  0  0  0  0  0  0  0  0  0  0  0
    6.9051   -7.9575   16.4222 C   0  0  0  0  0  0  0  0  0  0  0  0
    8.9969   -6.3552   17.9668 N   0  0  0  0  0  0  0  0  0  0  0  0
   10.6702   -3.9051   22.4070 C   0  0  0  0  0  0  0  0  0  0  0  0
   11.0625   -3.0028   18.8894 C   0  0  0  0  0  0  0  0  0  0  0  0
    5.6180   -7.9194   16.1754 O   0  0  0  0  0  0  0  0  0  0  0  0
    9.7259   -5.3080   18.4485 C   0  0  0  0  0  0  0  0  0  0  0  0
    9.4578   -5.0200   16.3036 N   0  0  0  0  0  0  0  0  0  0  0  0
    5.0287   -8.9365   16.8223 C   0  0  0  0  0  0  0  0  0  0  0  0
    8.7742   -6.1498   16.6764 C   0  0  0  0  0  0  0  0  0  0  0  0
   10.9418   -3.4032   21.2053 O   0  0  0  0  0  0  0  0  0  0  0  0
    1.4797   -8.6258   16.2950 C   0  0  0  0  0  0  0  0  0  0  0  0
    9.2861   -1.2743   25.3585 C   0  0  0  0  0  0  0  0  0  0  0  0
    1.8892  -10.3985   17.7511 N   0  0  0  0  0  0  0  0  0  0  0  0
    9.6210   -0.6952   24.0976 C   0  0  0  0  0  0  0  0  0  0  0  0
    7.0792   -9.0217   17.1429 C   0  0  0  0  0  0  0  0  0  0  0  0
    3.1713  -10.1816   17.6634 C   0  0  0  0  0  0  0  0  0  0  0  0
    2.7878   -8.3822   16.2137 C   0  0  0  0  0  0  0  0  0  0  0  0
    9.4601   -2.6590   25.6528 C   0  0  0  0  0  0  0  0  0  0  0  0
   10.1182   -1.5672   23.1165 C   0  0  0  0  0  0  0  0  0  0  0  0
    1.0552   -9.6360   17.0650 C   0  0  0  0  0  0  0  0  0  0  0  0
    3.6519   -9.1783   16.9039 C   0  0  0  0  0  0  0  0  0  0  0  0
    7.8675   -7.0096   15.9415 C   0  0  0  0  0  0  0  0  0  0  0  0
    5.9733   -9.6553   17.3832 N   0  0  0  0  0  0  0  0  0  0  0  0
   10.2411   -2.9363   23.4301 C   0  0  0  0  0  0  0  0  0  0  0  0
   10.7288   -3.8197   19.9525 C   0  0  0  0  0  0  0  0  0  0  0  0
   10.1189   -5.0054   19.6987 C   0  0  0  0  0  0  0  0  0  0  0  0
  1  3  4  0
  1  7  4  0
  2 21  4  0
  2 27  4  0
  3  9  4  0
  3 10  4  0
  4  8  4  0
  4 18  4  0
  4 25  1  0
  5  9  4  0
  5 12  4  0
  6 13  1  0
  6 27  1  0
  7 28  4  0
  8 11  4  0
  9 29  4  0
 10 12  4  0
 11 24  1  0
 11 26  4  0
 12 25  1  0
 13 28  1  0
 14 20  4  0
 14 23  4  0
 15 17  4  0
 15 21  4  0
 16 19  4  0
 16 23  4  0
 17 22  4  0
 18 26  4  0
 19 24  4  0
 20 24  4  0
 22 27  4  0
 28 29  4  0
M  END
$$$$

 Created by Python create_sdf_string function

 29 33  0  0  0  0  0  0  0  0999 V2000
   10.7215   -3.3326   17.6437 C   0  0  0  0  0  0  0  0  0  0  0  0
    9.9489   -3.4675   24.6487 N   0  0  0  0  0  0  0  0  0  0  0  0
   10.0172   -4.4740   17.4101 C   0  0  0  0  0  0  0  0  0  0  0  0
    6.9051   -7.9575   16.4222 C   0  0  0  0  0  0  0  0  0  0  0  0
    8.9969   -6.3552   17.9668 N   0  0  0  0  0  0  0  0  0  0  0  0
   10.6702   -3.9051   22.4070 C   0  0  0  0  0  0  0  0  0  0  0  0
   11.0625   -3.0028   18.8894 C   0  0  0  0  0  0  0  0  0  0  0  0
    5.6180   -7.9194   16.1754 O   0  0  0  0  0  0  0  0  0  0  0  0
    9.7259   -5.3080   18.4485 C   0  0  0  0  0  0  0  0  0  0  0  0
    9.4578   -5.0200   16.3036 N   0  0  0  0  0  0  0  0  0  0  0  0
    5.0287   -8.9365   16.8223 C   0  0  0  0  0  0  0  0  0  0  0  0
    8.7742   -6.1498   16.6764 C   0  0  0  0  0  0  0  0  0  0  0  0
   10.9418   -3.4032   21.2053 O   0  0  0  0  0  0  0  0  0  0  0  0
    1.4797   -8.6258   16.2950 C   0  0  0  0  0  0  0  0  0  0  0  0
    9.2861   -1.2743   25.3585 C   0  0  0  0  0  0  0  0  0  0  0  0
    1.8892  -10.3985   17.7511 N   0  0  0  0  0  0  0  0  0  0  0  0
    9.6210   -0.6952   24.0976 C   0  0  0  0  0  0  0  0  0  0  0  0
    7.0792   -9.0217   17.1429 C   0  0  0  0  0  0  0  0  0  0  0  0
    3.1713  -10.1816   17.6634 C   0  0  0  0  0  0  0  0  0  0  0  0
    2.7878   -8.3822   16.2137 C   0  0  0  0  0  0  0  0  0  0  0  0
    9.4601   -2.6590   25.6528 C   0  0  0  0  0  0  0  0  0  0  0  0
   10.1182   -1.5672   23.1165 C   0  0  0  0  0  0  0  0  0  0  0  0
    1.0552   -9.6360   17.0650 C   0  0  0  0  0  0  0  0  0  0  0  0
    3.6519   -9.1783   16.9039 C   0  0  0  0  0  0  0  0  0  0  0  0
    7.8675   -7.0096   15.9415 C   0  0  0  0  0  0  0  0  0  0  0  0
    5.9733   -9.6553   17.3832 N   0  0  0  0  0  0  0  0  0  0  0  0
   10.2411   -2.9363   23.4301 C   0  0  0  0  0  0  0  0  0  0  0  0
   10.7288   -3.8197   19.9525 C   0  0  0  0  0  0  0  0  0  0  0  0
   10.1189   -5.0054   19.6987 C   0  0  0  0  0  0  0  0  0  0  0  0
  1  3  4  0
  1  7  4  0
  2 21  4  0
  2 27  4  0
  3  9  4  0
  3 10  4  0
  4  8  4  0
  4 18  4  0
  4 25  1  0
  5  9  4  0
  5 12  4  0
  6 13  1  0
  6 27  1  0
  7 28  4  0
  8 11  4  0
  9 29  4  0
 10 12  4  0
 11 24  1  0
 11 26  4  0
 12 25  1  0
 13 28  1  0
 14 20  4  0
 14 23  4  0
 15 17  4  0
 15 21  4  0
 16 19  4  0
 16 23  4  0
 17 22  4  0
 18 26  4  0
 19 24  4  0
 20 24  4  0
 22 27  4  0
 28 29  4  0
M  END
$$$$

 Created by Python create_sdf_string function

 29 33  0  0  0  0  0  0  0  0999 V2000
   10.7215   -3.3326   17.6437 C   0  0  0  0  0  0  0  0  0  0  0  0
    9.9489   -3.4675   24.6487 N   0  0  0  0  0  0  0  0  0  0  0  0
   10.0172   -4.4740   17.4101 C   0  0  0  0  0  0  0  0  0  0  0  0
    6.9051   -7.9575   16.4222 C   0  0  0  0  0  0  0  0  0  0  0  0
    8.9969   -6.3552   17.9668 N   0  0  0  0  0  0  0  0  0  0  0  0
   10.6702   -3.9051   22.4070 C   0  0  0  0  0  0  0  0  0  0  0  0
   11.0625   -3.0028   18.8894 C   0  0  0  0  0  0  0  0  0  0  0  0
    5.6180   -7.9194   16.1754 O   0  0  0  0  0  0  0  0  0  0  0  0
    9.7259   -5.3080   18.4485 C   0  0  0  0  0  0  0  0  0  0  0  0
    9.4578   -5.0200   16.3036 N   0  0  0  0  0  0  0  0  0  0  0  0
    5.0287   -8.9365   16.8223 C   0  0  0  0  0  0  0  0  0  0  0  0
    8.7742   -6.1498   16.6764 C   0  0  0  0  0  0  0  0  0  0  0  0
   10.9418   -3.4032   21.2053 O   0  0  0  0  0  0  0  0  0  0  0  0
    1.4797   -8.6258   16.2950 C   0  0  0  0  0  0  0  0  0  0  0  0
    9.2861   -1.2743   25.3585 C   0  0  0  0  0  0  0  0  0  0  0  0
    1.8892  -10.3985   17.7511 N   0  0  0  0  0  0  0  0  0  0  0  0
    9.6210   -0.6952   24.0976 C   0  0  0  0  0  0  0  0  0  0  0  0
    7.0792   -9.0217   17.1429 C   0  0  0  0  0  0  0  0  0  0  0  0
    3.1713  -10.1816   17.6634 C   0  0  0  0  0  0  0  0  0  0  0  0
    2.7878   -8.3822   16.2137 C   0  0  0  0  0  0  0  0  0  0  0  0
    9.4601   -2.6590   25.6528 C   0  0  0  0  0  0  0  0  0  0  0  0
   10.1182   -1.5672   23.1165 C   0  0  0  0  0  0  0  0  0  0  0  0
    1.0552   -9.6360   17.0650 C   0  0  0  0  0  0  0  0  0  0  0  0
    3.6519   -9.1783   16.9039 C   0  0  0  0  0  0  0  0  0  0  0  0
    7.8675   -7.0096   15.9415 C   0  0  0  0  0  0  0  0  0  0  0  0
    5.9733   -9.6553   17.3832 N   0  0  0  0  0  0  0  0  0  0  0  0
   10.2411   -2.9363   23.4301 C   0  0  0  0  0  0  0  0  0  0  0  0
   10.7288   -3.8197   19.9525 C   0  0  0  0  0  0  0  0  0  0  0  0
   10.1189   -5.0054   19.6987 C   0  0  0  0  0  0  0  0  0  0  0  0
  1  3  4  0
  1  7  4  0
  2 21  4  0
  2 27  4  0
  3  9  4  0
  3 10  4  0
  4  8  4  0
  4 18  4  0
  4 25  1  0
  5  9  4  0
  5 12  4  0
  6 13  1  0
  6 27  1  0
  7 28  4  0
  8 11  4  0
  9 29  4  0
 10 12  4  0
 11 24  1  0
 11 26  4  0
 12 25  1  0
 13 28  1  0
 14 20  4  0
 14 23  4  0
 15 17  4  0
 15 21  4  0
 16 19  4  0
 16 23  4  0
 17 22  4  0
 18 26  4  0
 19 24  4  0
 20 24  4  0
 22 27  4  0
 28 29  4  0
M  END
$$$$

 Created by Python create_sdf_string function

 29 33  0  0  0  0  0  0  0  0999 V2000
   10.7215   -3.3326   17.6437 C   0  0  0  0  0  0  0  0  0  0  0  0
    9.9489   -3.4675   24.6487 N   0  0  0  0  0  0  0  0  0  0  0  0
   10.0172   -4.4740   17.4101 C   0  0  0  0  0  0  0  0  0  0  0  0
    6.9051   -7.9575   16.4222 C   0  0  0  0  0  0  0  0  0  0  0  0
    8.9969   -6.3552   17.9668 N   0  0  0  0  0  0  0  0  0  0  0  0
   10.6702   -3.9051   22.4070 C   0  0  0  0  0  0  0  0  0  0  0  0
   11.0625   -3.0028   18.8894 C   0  0  0  0  0  0  0  0  0  0  0  0
    5.6180   -7.9194   16.1754 O   0  0  0  0  0  0  0  0  0  0  0  0
    9.7259   -5.3080   18.4485 C   0  0  0  0  0  0  0  0  0  0  0  0
    9.4578   -5.0200   16.3036 N   0  0  0  0  0  0  0  0  0  0  0  0
    5.0287   -8.9365   16.8223 C   0  0  0  0  0  0  0  0  0  0  0  0
    8.7742   -6.1498   16.6764 C   0  0  0  0  0  0  0  0  0  0  0  0
   10.9418   -3.4032   21.2053 O   0  0  0  0  0  0  0  0  0  0  0  0
    1.4797   -8.6258   16.2950 C   0  0  0  0  0  0  0  0  0  0  0  0
    9.2861   -1.2743   25.3585 C   0  0  0  0  0  0  0  0  0  0  0  0
    1.8892  -10.3985   17.7511 N   0  0  0  0  0  0  0  0  0  0  0  0
    9.6210   -0.6952   24.0976 C   0  0  0  0  0  0  0  0  0  0  0  0
    7.0792   -9.0217   17.1429 C   0  0  0  0  0  0  0  0  0  0  0  0
    3.1713  -10.1816   17.6634 C   0  0  0  0  0  0  0  0  0  0  0  0
    2.7878   -8.3822   16.2137 C   0  0  0  0  0  0  0  0  0  0  0  0
    9.4601   -2.6590   25.6528 C   0  0  0  0  0  0  0  0  0  0  0  0
   10.1182   -1.5672   23.1165 C   0  0  0  0  0  0  0  0  0  0  0  0
    1.0552   -9.6360   17.0650 C   0  0  0  0  0  0  0  0  0  0  0  0
    3.6519   -9.1783   16.9039 C   0  0  0  0  0  0  0  0  0  0  0  0
    7.8675   -7.0096   15.9415 C   0  0  0  0  0  0  0  0  0  0  0  0
    5.9733   -9.6553   17.3832 N   0  0  0  0  0  0  0  0  0  0  0  0
   10.2411   -2.9363   23.4301 C   0  0  0  0  0  0  0  0  0  0  0  0
   10.7288   -3.8197   19.9525 C   0  0  0  0  0  0  0  0  0  0  0  0
   10.1189   -5.0054   19.6987 C   0  0  0  0  0  0  0  0  0  0  0  0
  1  3  4  0
  1  7  4  0
  2 21  4  0
  2 27  4  0
  3  9  4  0
  3 10  4  0
  4  8  4  0
  4 18  4  0
  4 25  1  0
  5  9  4  0
  5 12  4  0
  6 13  1  0
  6 27  1  0
  7 28  4  0
  8 11  4  0
  9 29  4  0
 10 12  4  0
 11 24  1  0
 11 26  4  0
 12 25  1  0
 13 28  1  0
 14 20  4  0
 14 23  4  0
 15 17  4  0
 15 21  4  0
 16 19  4  0
 16 23  4  0
 17 22  4  0
 18 26  4  0
 19 24  4  0
 20 24  4  0
 22 27  4  0
 28 29  4  0
M  END
$$$$

 Created by Python create_sdf_string function

 29 33  0  0  0  0  0  0  0  0999 V2000
   10.7215   -3.3326   17.6437 C   0  0  0  0  0  0  0  0  0  0  0  0
    9.9489   -3.4675   24.6487 N   0  0  0  0  0  0  0  0  0  0  0  0
   10.0172   -4.4740   17.4101 C   0  0  0  0  0  0  0  0  0  0  0  0
    6.9051   -7.9575   16.4222 C   0  0  0  0  0  0  0  0  0  0  0  0
    8.9969   -6.3552   17.9668 N   0  0  0  0  0  0  0  0  0  0  0  0
   10.6702   -3.9051   22.4070 C   0  0  0  0  0  0  0  0  0  0  0  0
   11.0625   -3.0028   18.8894 C   0  0  0  0  0  0  0  0  0  0  0  0
    5.6180   -7.9194   16.1754 O   0  0  0  0  0  0  0  0  0  0  0  0
    9.7259   -5.3080   18.4485 C   0  0  0  0  0  0  0  0  0  0  0  0
    9.4578   -5.0200   16.3036 N   0  0  0  0  0  0  0  0  0  0  0  0
    5.0287   -8.9365   16.8223 C   0  0  0  0  0  0  0  0  0  0  0  0
    8.7742   -6.1498   16.6764 C   0  0  0  0  0  0  0  0  0  0  0  0
   10.9418   -3.4032   21.2053 O   0  0  0  0  0  0  0  0  0  0  0  0
    1.4797   -8.6258   16.2950 C   0  0  0  0  0  0  0  0  0  0  0  0
    9.2861   -1.2743   25.3585 C   0  0  0  0  0  0  0  0  0  0  0  0
    1.8892  -10.3985   17.7511 N   0  0  0  0  0  0  0  0  0  0  0  0
    9.6210   -0.6952   24.0976 C   0  0  0  0  0  0  0  0  0  0  0  0
    7.0792   -9.0217   17.1429 C   0  0  0  0  0  0  0  0  0  0  0  0
    3.1713  -10.1816   17.6634 C   0  0  0  0  0  0  0  0  0  0  0  0
    2.7878   -8.3822   16.2137 C   0  0  0  0  0  0  0  0  0  0  0  0
    9.4601   -2.6590   25.6528 C   0  0  0  0  0  0  0  0  0  0  0  0
   10.1182   -1.5672   23.1165 C   0  0  0  0  0  0  0  0  0  0  0  0
    1.0552   -9.6360   17.0650 C   0  0  0  0  0  0  0  0  0  0  0  0
    3.6519   -9.1783   16.9039 C   0  0  0  0  0  0  0  0  0  0  0  0
    7.8675   -7.0096   15.9415 C   0  0  0  0  0  0  0  0  0  0  0  0
    5.9733   -9.6553   17.3832 N   0  0  0  0  0  0  0  0  0  0  0  0
   10.2411   -2.9363   23.4301 C   0  0  0  0  0  0  0  0  0  0  0  0
   10.7288   -3.8197   19.9525 C   0  0  0  0  0  0  0  0  0  0  0  0
   10.1189   -5.0054   19.6987 C   0  0  0  0  0  0  0  0  0  0  0  0
  1  3  4  0
  1  7  4  0
  2 21  4  0
  2 27  4  0
  3  9  4  0
  3 10  4  0
  4  8  4  0
  4 18  4  0
  4 25  1  0
  5  9  4  0
  5 12  4  0
  6 13  1  0
  6 27  1  0
  7 28  4  0
  8 11  4  0
  9 29  4  0
 10 12  4  0
 11 24  1  0
 11 26  4  0
 12 25  1  0
 13 28  1  0
 14 20  4  0
 14 23  4  0
 15 17  4  0
 15 21  4  0
 16 19  4  0
 16 23  4  0
 17 22  4  0
 18 26  4  0
 19 24  4  0
 20 24  4  0
 22 27  4  0
 28 29  4  0
M  END
$$$$

 Created by Python create_sdf_string function

 29 33  0  0  0  0  0  0  0  0999 V2000
   10.7215   -3.3326   17.6437 C   0  0  0  0  0  0  0  0  0  0  0  0
    9.9489   -3.4675   24.6487 N   0  0  0  0  0  0  0  0  0  0  0  0
   10.0172   -4.4740   17.4101 C   0  0  0  0  0  0  0  0  0  0  0  0
    6.9051   -7.9575   16.4222 C   0  0  0  0  0  0  0  0  0  0  0  0
    8.9969   -6.3552   17.9668 N   0  0  0  0  0  0  0  0  0  0  0  0
   10.6702   -3.9051   22.4070 C   0  0  0  0  0  0  0  0  0  0  0  0
   11.0625   -3.0028   18.8894 C   0  0  0  0  0  0  0  0  0  0  0  0
    5.6180   -7.9194   16.1754 O   0  0  0  0  0  0  0  0  0  0  0  0
    9.7259   -5.3080   18.4485 C   0  0  0  0  0  0  0  0  0  0  0  0
    9.4578   -5.0200   16.3036 N   0  0  0  0  0  0  0  0  0  0  0  0
    5.0287   -8.9365   16.8223 C   0  0  0  0  0  0  0  0  0  0  0  0
    8.7742   -6.1498   16.6764 C   0  0  0  0  0  0  0  0  0  0  0  0
   10.9418   -3.4032   21.2053 O   0  0  0  0  0  0  0  0  0  0  0  0
    1.4797   -8.6258   16.2950 C   0  0  0  0  0  0  0  0  0  0  0  0
    9.2861   -1.2743   25.3585 C   0  0  0  0  0  0  0  0  0  0  0  0
    1.8892  -10.3985   17.7511 N   0  0  0  0  0  0  0  0  0  0  0  0
    9.6210   -0.6952   24.0976 C   0  0  0  0  0  0  0  0  0  0  0  0
    7.0792   -9.0217   17.1429 C   0  0  0  0  0  0  0  0  0  0  0  0
    3.1713  -10.1816   17.6634 C   0  0  0  0  0  0  0  0  0  0  0  0
    2.7878   -8.3822   16.2137 C   0  0  0  0  0  0  0  0  0  0  0  0
    9.4601   -2.6590   25.6528 C   0  0  0  0  0  0  0  0  0  0  0  0
   10.1182   -1.5672   23.1165 C   0  0  0  0  0  0  0  0  0  0  0  0
    1.0552   -9.6360   17.0650 C   0  0  0  0  0  0  0  0  0  0  0  0
    3.6519   -9.1783   16.9039 C   0  0  0  0  0  0  0  0  0  0  0  0
    7.8675   -7.0096   15.9415 C   0  0  0  0  0  0  0  0  0  0  0  0
    5.9733   -9.6553   17.3832 N   0  0  0  0  0  0  0  0  0  0  0  0
   10.2411   -2.9363   23.4301 C   0  0  0  0  0  0  0  0  0  0  0  0
   10.7288   -3.8197   19.9525 C   0  0  0  0  0  0  0  0  0  0  0  0
   10.1189   -5.0054   19.6987 C   0  0  0  0  0  0  0  0  0  0  0  0
  1  3  4  0
  1  7  4  0
  2 21  4  0
  2 27  4  0
  3  9  4  0
  3 10  4  0
  4  8  4  0
  4 18  4  0
  4 25  1  0
  5  9  4  0
  5 12  4  0
  6 13  1  0
  6 27  1  0
  7 28  4  0
  8 11  4  0
  9 29  4  0
 10 12  4  0
 11 24  1  0
 11 26  4  0
 12 25  1  0
 13 28  1  0
 14 20  4  0
 14 23  4  0
 15 17  4  0
 15 21  4  0
 16 19  4  0
 16 23  4  0
 17 22  4  0
 18 26  4  0
 19 24  4  0
 20 24  4  0
 22 27  4  0
 28 29  4  0
M  END
$$$$

 Created by Python create_sdf_string function

 29 33  0  0  0  0  0  0  0  0999 V2000
   10.7215   -3.3326   17.6437 C   0  0  0  0  0  0  0  0  0  0  0  0
    9.9489   -3.4675   24.6487 N   0  0  0  0  0  0  0  0  0  0  0  0
   10.0172   -4.4740   17.4101 C   0  0  0  0  0  0  0  0  0  0  0  0
    6.9051   -7.9575   16.4222 C   0  0  0  0  0  0  0  0  0  0  0  0
    8.9969   -6.3552   17.9668 N   0  0  0  0  0  0  0  0  0  0  0  0
   10.6702   -3.9051   22.4070 C   0  0  0  0  0  0  0  0  0  0  0  0
   11.0625   -3.0028   18.8894 C   0  0  0  0  0  0  0  0  0  0  0  0
    5.6180   -7.9194   16.1754 O   0  0  0  0  0  0  0  0  0  0  0  0
    9.7259   -5.3080   18.4485 C   0  0  0  0  0  0  0  0  0  0  0  0
    9.4578   -5.0200   16.3036 N   0  0  0  0  0  0  0  0  0  0  0  0
    5.0287   -8.9365   16.8223 C   0  0  0  0  0  0  0  0  0  0  0  0
    8.7742   -6.1498   16.6764 C   0  0  0  0  0  0  0  0  0  0  0  0
   10.9418   -3.4032   21.2053 O   0  0  0  0  0  0  0  0  0  0  0  0
    1.4797   -8.6258   16.2950 C   0  0  0  0  0  0  0  0  0  0  0  0
    9.2861   -1.2743   25.3585 C   0  0  0  0  0  0  0  0  0  0  0  0
    1.8892  -10.3985   17.7511 N   0  0  0  0  0  0  0  0  0  0  0  0
    9.6210   -0.6952   24.0976 C   0  0  0  0  0  0  0  0  0  0  0  0
    7.0792   -9.0217   17.1429 C   0  0  0  0  0  0  0  0  0  0  0  0
    3.1713  -10.1816   17.6634 C   0  0  0  0  0  0  0  0  0  0  0  0
    2.7878   -8.3822   16.2137 C   0  0  0  0  0  0  0  0  0  0  0  0
    9.4601   -2.6590   25.6528 C   0  0  0  0  0  0  0  0  0  0  0  0
   10.1182   -1.5672   23.1165 C   0  0  0  0  0  0  0  0  0  0  0  0
    1.0552   -9.6360   17.0650 C   0  0  0  0  0  0  0  0  0  0  0  0
    3.6519   -9.1783   16.9039 C   0  0  0  0  0  0  0  0  0  0  0  0
    7.8675   -7.0096   15.9415 C   0  0  0  0  0  0  0  0  0  0  0  0
    5.9733   -9.6553   17.3832 N   0  0  0  0  0  0  0  0  0  0  0  0
   10.2411   -2.9363   23.4301 C   0  0  0  0  0  0  0  0  0  0  0  0
   10.7288   -3.8197   19.9525 C   0  0  0  0  0  0  0  0  0  0  0  0
   10.1189   -5.0054   19.6987 C   0  0  0  0  0  0  0  0  0  0  0  0
  1  3  4  0
  1  7  4  0
  2 21  4  0
  2 27  4  0
  3  9  4  0
  3 10  4  0
  4  8  4  0
  4 18  4  0
  4 25  1  0
  5  9  4  0
  5 12  4  0
  6 13  1  0
  6 27  1  0
  7 28  4  0
  8 11  4  0
  9 29  4  0
 10 12  4  0
 11 24  1  0
 11 26  4  0
 12 25  1  0
 13 28  1  0
 14 20  4  0
 14 23  4  0
 15 17  4  0
 15 21  4  0
 16 19  4  0
 16 23  4  0
 17 22  4  0
 18 26  4  0
 19 24  4  0
 20 24  4  0
 22 27  4  0
 28 29  4  0
M  END
$$$$

 Created by Python create_sdf_string function

 29 33  0  0  0  0  0  0  0  0999 V2000
   10.7215   -3.3326   17.6437 C   0  0  0  0  0  0  0  0  0  0  0  0
    9.9489   -3.4675   24.6487 N   0  0  0  0  0  0  0  0  0  0  0  0
   10.0172   -4.4740   17.4101 C   0  0  0  0  0  0  0  0  0  0  0  0
    6.9051   -7.9575   16.4222 C   0  0  0  0  0  0  0  0  0  0  0  0
    8.9969   -6.3552   17.9668 N   0  0  0  0  0  0  0  0  0  0  0  0
   10.6702   -3.9051   22.4070 C   0  0  0  0  0  0  0  0  0  0  0  0
   11.0625   -3.0028   18.8894 C   0  0  0  0  0  0  0  0  0  0  0  0
    5.6180   -7.9194   16.1754 O   0  0  0  0  0  0  0  0  0  0  0  0
    9.7259   -5.3080   18.4485 C   0  0  0  0  0  0  0  0  0  0  0  0
    9.4578   -5.0200   16.3036 N   0  0  0  0  0  0  0  0  0  0  0  0
    5.0287   -8.9365   16.8223 C   0  0  0  0  0  0  0  0  0  0  0  0
    8.7742   -6.1498   16.6764 C   0  0  0  0  0  0  0  0  0  0  0  0
   10.9418   -3.4032   21.2053 O   0  0  0  0  0  0  0  0  0  0  0  0
    1.4797   -8.6258   16.2950 C   0  0  0  0  0  0  0  0  0  0  0  0
    9.2861   -1.2743   25.3585 C   0  0  0  0  0  0  0  0  0  0  0  0
    1.8892  -10.3985   17.7511 N   0  0  0  0  0  0  0  0  0  0  0  0
    9.6210   -0.6952   24.0976 C   0  0  0  0  0  0  0  0  0  0  0  0
    7.0792   -9.0217   17.1429 C   0  0  0  0  0  0  0  0  0  0  0  0
    3.1713  -10.1816   17.6634 C   0  0  0  0  0  0  0  0  0  0  0  0
    2.7878   -8.3822   16.2137 C   0  0  0  0  0  0  0  0  0  0  0  0
    9.4601   -2.6590   25.6528 C   0  0  0  0  0  0  0  0  0  0  0  0
   10.1182   -1.5672   23.1165 C   0  0  0  0  0  0  0  0  0  0  0  0
    1.0552   -9.6360   17.0650 C   0  0  0  0  0  0  0  0  0  0  0  0
    3.6519   -9.1783   16.9039 C   0  0  0  0  0  0  0  0  0  0  0  0
    7.8675   -7.0096   15.9415 C   0  0  0  0  0  0  0  0  0  0  0  0
    5.9733   -9.6553   17.3832 N   0  0  0  0  0  0  0  0  0  0  0  0
   10.2411   -2.9363   23.4301 C   0  0  0  0  0  0  0  0  0  0  0  0
   10.7288   -3.8197   19.9525 C   0  0  0  0  0  0  0  0  0  0  0  0
   10.1189   -5.0054   19.6987 C   0  0  0  0  0  0  0  0  0  0  0  0
  1  3  4  0
  1  7  4  0
  2 21  4  0
  2 27  4  0
  3  9  4  0
  3 10  4  0
  4  8  4  0
  4 18  4  0
  4 25  1  0
  5  9  4  0
  5 12  4  0
  6 13  1  0
  6 27  1  0
  7 28  4  0
  8 11  4  0
  9 29  4  0
 10 12  4  0
 11 24  1  0
 11 26  4  0
 12 25  1  0
 13 28  1  0
 14 20  4  0
 14 23  4  0
 15 17  4  0
 15 21  4  0
 16 19  4  0
 16 23  4  0
 17 22  4  0
 18 26  4  0
 19 24  4  0
 20 24  4  0
 22 27  4  0
 28 29  4  0
M  END
$$$$

 Created by Python create_sdf_string function

 29 33  0  0  0  0  0  0  0  0999 V2000
   10.7215   -3.3326   17.6437 C   0  0  0  0  0  0  0  0  0  0  0  0
    9.9489   -3.4675   24.6487 N   0  0  0  0  0  0  0  0  0  0  0  0
   10.0172   -4.4740   17.4101 C   0  0  0  0  0  0  0  0  0  0  0  0
    6.9051   -7.9575   16.4222 C   0  0  0  0  0  0  0  0  0  0  0  0
    8.9969   -6.3552   17.9668 N   0  0  0  0  0  0  0  0  0  0  0  0
   10.6702   -3.9051   22.4070 C   0  0  0  0  0  0  0  0  0  0  0  0
   11.0625   -3.0028   18.8894 C   0  0  0  0  0  0  0  0  0  0  0  0
    5.6180   -7.9194   16.1754 O   0  0  0  0  0  0  0  0  0  0  0  0
    9.7259   -5.3080   18.4485 C   0  0  0  0  0  0  0  0  0  0  0  0
    9.4578   -5.0200   16.3036 N   0  0  0  0  0  0  0  0  0  0  0  0
    5.0287   -8.9365   16.8223 C   0  0  0  0  0  0  0  0  0  0  0  0
    8.7742   -6.1498   16.6764 C   0  0  0  0  0  0  0  0  0  0  0  0
   10.9418   -3.4032   21.2053 O   0  0  0  0  0  0  0  0  0  0  0  0
    1.4797   -8.6258   16.2950 C   0  0  0  0  0  0  0  0  0  0  0  0
    9.2861   -1.2743   25.3585 C   0  0  0  0  0  0  0  0  0  0  0  0
    1.8892  -10.3985   17.7511 N   0  0  0  0  0  0  0  0  0  0  0  0
    9.6210   -0.6952   24.0976 C   0  0  0  0  0  0  0  0  0  0  0  0
    7.0792   -9.0217   17.1429 C   0  0  0  0  0  0  0  0  0  0  0  0
    3.1713  -10.1816   17.6634 C   0  0  0  0  0  0  0  0  0  0  0  0
    2.7878   -8.3822   16.2137 C   0  0  0  0  0  0  0  0  0  0  0  0
    9.4601   -2.6590   25.6528 C   0  0  0  0  0  0  0  0  0  0  0  0
   10.1182   -1.5672   23.1165 C   0  0  0  0  0  0  0  0  0  0  0  0
    1.0552   -9.6360   17.0650 C   0  0  0  0  0  0  0  0  0  0  0  0
    3.6519   -9.1783   16.9039 C   0  0  0  0  0  0  0  0  0  0  0  0
    7.8675   -7.0096   15.9415 C   0  0  0  0  0  0  0  0  0  0  0  0
    5.9733   -9.6553   17.3832 N   0  0  0  0  0  0  0  0  0  0  0  0
   10.2411   -2.9363   23.4301 C   0  0  0  0  0  0  0  0  0  0  0  0
   10.7288   -3.8197   19.9525 C   0  0  0  0  0  0  0  0  0  0  0  0
   10.1189   -5.0054   19.6987 C   0  0  0  0  0  0  0  0  0  0  0  0
  1  3  4  0
  1  7  4  0
  2 21  4  0
  2 27  4  0
  3  9  4  0
  3 10  4  0
  4  8  4  0
  4 18  4  0
  4 25  1  0
  5  9  4  0
  5 12  4  0
  6 13  1  0
  6 27  1  0
  7 28  4  0
  8 11  4  0
  9 29  4  0
 10 12  4  0
 11 24  1  0
 11 26  4  0
 12 25  1  0
 13 28  1  0
 14 20  4  0
 14 23  4  0
 15 17  4  0
 15 21  4  0
 16 19  4  0
 16 23  4  0
 17 22  4  0
 18 26  4  0
 19 24  4  0
 20 24  4  0
 22 27  4  0
 28 29  4  0
M  END
$$$$

 Created by Python create_sdf_string function

 29 33  0  0  0  0  0  0  0  0999 V2000
   10.7215   -3.3326   17.6437 C   0  0  0  0  0  0  0  0  0  0  0  0
    9.9489   -3.4675   24.6487 N   0  0  0  0  0  0  0  0  0  0  0  0
   10.0172   -4.4740   17.4101 C   0  0  0  0  0  0  0  0  0  0  0  0
    6.9051   -7.9575   16.4222 C   0  0  0  0  0  0  0  0  0  0  0  0
    8.9969   -6.3552   17.9668 N   0  0  0  0  0  0  0  0  0  0  0  0
   10.6702   -3.9051   22.4070 C   0  0  0  0  0  0  0  0  0  0  0  0
   11.0625   -3.0028   18.8894 C   0  0  0  0  0  0  0  0  0  0  0  0
    5.6180   -7.9194   16.1754 O   0  0  0  0  0  0  0  0  0  0  0  0
    9.7259   -5.3080   18.4485 C   0  0  0  0  0  0  0  0  0  0  0  0
    9.4578   -5.0200   16.3036 N   0  0  0  0  0  0  0  0  0  0  0  0
    5.0287   -8.9365   16.8223 C   0  0  0  0  0  0  0  0  0  0  0  0
    8.7742   -6.1498   16.6764 C   0  0  0  0  0  0  0  0  0  0  0  0
   10.9418   -3.4032   21.2053 O   0  0  0  0  0  0  0  0  0  0  0  0
    1.4797   -8.6258   16.2950 C   0  0  0  0  0  0  0  0  0  0  0  0
    9.2861   -1.2743   25.3585 C   0  0  0  0  0  0  0  0  0  0  0  0
    1.8892  -10.3985   17.7511 N   0  0  0  0  0  0  0  0  0  0  0  0
    9.6210   -0.6952   24.0976 C   0  0  0  0  0  0  0  0  0  0  0  0
    7.0792   -9.0217   17.1429 C   0  0  0  0  0  0  0  0  0  0  0  0
    3.1713  -10.1816   17.6634 C   0  0  0  0  0  0  0  0  0  0  0  0
    2.7878   -8.3822   16.2137 C   0  0  0  0  0  0  0  0  0  0  0  0
    9.4601   -2.6590   25.6528 C   0  0  0  0  0  0  0  0  0  0  0  0
   10.1182   -1.5672   23.1165 C   0  0  0  0  0  0  0  0  0  0  0  0
    1.0552   -9.6360   17.0650 C   0  0  0  0  0  0  0  0  0  0  0  0
    3.6519   -9.1783   16.9039 C   0  0  0  0  0  0  0  0  0  0  0  0
    7.8675   -7.0096   15.9415 C   0  0  0  0  0  0  0  0  0  0  0  0
    5.9733   -9.6553   17.3832 N   0  0  0  0  0  0  0  0  0  0  0  0
   10.2411   -2.9363   23.4301 C   0  0  0  0  0  0  0  0  0  0  0  0
   10.7288   -3.8197   19.9525 C   0  0  0  0  0  0  0  0  0  0  0  0
   10.1189   -5.0054   19.6987 C   0  0  0  0  0  0  0  0  0  0  0  0
  1  3  4  0
  1  7  4  0
  2 21  4  0
  2 27  4  0
  3  9  4  0
  3 10  4  0
  4  8  4  0
  4 18  4  0
  4 25  1  0
  5  9  4  0
  5 12  4  0
  6 13  1  0
  6 27  1  0
  7 28  4  0
  8 11  4  0
  9 29  4  0
 10 12  4  0
 11 24  1  0
 11 26  4  0
 12 25  1  0
 13 28  1  0
 14 20  4  0
 14 23  4  0
 15 17  4  0
 15 21  4  0
 16 19  4  0
 16 23  4  0
 17 22  4  0
 18 26  4  0
 19 24  4  0
 20 24  4  0
 22 27  4  0
 28 29  4  0
M  END
$$$$

 Created by Python create_sdf_string function

 29 33  0  0  0  0  0  0  0  0999 V2000
   10.7215   -3.3326   17.6437 C   0  0  0  0  0  0  0  0  0  0  0  0
    9.9489   -3.4675   24.6487 N   0  0  0  0  0  0  0  0  0  0  0  0
   10.0172   -4.4740   17.4101 C   0  0  0  0  0  0  0  0  0  0  0  0
    6.9051   -7.9575   16.4222 C   0  0  0  0  0  0  0  0  0  0  0  0
    8.9969   -6.3552   17.9668 N   0  0  0  0  0  0  0  0  0  0  0  0
   10.6702   -3.9051   22.4070 C   0  0  0  0  0  0  0  0  0  0  0  0
   11.0625   -3.0028   18.8894 C   0  0  0  0  0  0  0  0  0  0  0  0
    5.6180   -7.9194   16.1754 O   0  0  0  0  0  0  0  0  0  0  0  0
    9.7259   -5.3080   18.4485 C   0  0  0  0  0  0  0  0  0  0  0  0
    9.4578   -5.0200   16.3036 N   0  0  0  0  0  0  0  0  0  0  0  0
    5.0287   -8.9365   16.8223 C   0  0  0  0  0  0  0  0  0  0  0  0
    8.7742   -6.1498   16.6764 C   0  0  0  0  0  0  0  0  0  0  0  0
   10.9418   -3.4032   21.2053 O   0  0  0  0  0  0  0  0  0  0  0  0
    1.4797   -8.6258   16.2950 C   0  0  0  0  0  0  0  0  0  0  0  0
    9.2861   -1.2743   25.3585 C   0  0  0  0  0  0  0  0  0  0  0  0
    1.8892  -10.3985   17.7511 N   0  0  0  0  0  0  0  0  0  0  0  0
    9.6210   -0.6952   24.0976 C   0  0  0  0  0  0  0  0  0  0  0  0
    7.0792   -9.0217   17.1429 C   0  0  0  0  0  0  0  0  0  0  0  0
    3.1713  -10.1816   17.6634 C   0  0  0  0  0  0  0  0  0  0  0  0
    2.7878   -8.3822   16.2137 C   0  0  0  0  0  0  0  0  0  0  0  0
    9.4601   -2.6590   25.6528 C   0  0  0  0  0  0  0  0  0  0  0  0
   10.1182   -1.5672   23.1165 C   0  0  0  0  0  0  0  0  0  0  0  0
    1.0552   -9.6360   17.0650 C   0  0  0  0  0  0  0  0  0  0  0  0
    3.6519   -9.1783   16.9039 C   0  0  0  0  0  0  0  0  0  0  0  0
    7.8675   -7.0096   15.9415 C   0  0  0  0  0  0  0  0  0  0  0  0
    5.9733   -9.6553   17.3832 N   0  0  0  0  0  0  0  0  0  0  0  0
   10.2411   -2.9363   23.4301 C   0  0  0  0  0  0  0  0  0  0  0  0
   10.7288   -3.8197   19.9525 C   0  0  0  0  0  0  0  0  0  0  0  0
   10.1189   -5.0054   19.6987 C   0  0  0  0  0  0  0  0  0  0  0  0
  1  3  4  0
  1  7  4  0
  2 21  4  0
  2 27  4  0
  3  9  4  0
  3 10  4  0
  4  8  4  0
  4 18  4  0
  4 25  1  0
  5  9  4  0
  5 12  4  0
  6 13  1  0
  6 27  1  0
  7 28  4  0
  8 11  4  0
  9 29  4  0
 10 12  4  0
 11 24  1  0
 11 26  4  0
 12 25  1  0
 13 28  1  0
 14 20  4  0
 14 23  4  0
 15 17  4  0
 15 21  4  0
 16 19  4  0
 16 23  4  0
 17 22  4  0
 18 26  4  0
 19 24  4  0
 20 24  4  0
 22 27  4  0
 28 29  4  0
M  END
$$$$

 Created by Python create_sdf_string function

 29 33  0  0  0  0  0  0  0  0999 V2000
   10.7215   -3.3326   17.6437 C   0  0  0  0  0  0  0  0  0  0  0  0
    9.9489   -3.4675   24.6487 N   0  0  0  0  0  0  0  0  0  0  0  0
   10.0172   -4.4740   17.4101 C   0  0  0  0  0  0  0  0  0  0  0  0
    6.9051   -7.9575   16.4222 C   0  0  0  0  0  0  0  0  0  0  0  0
    8.9969   -6.3552   17.9668 N   0  0  0  0  0  0  0  0  0  0  0  0
   10.6702   -3.9051   22.4070 C   0  0  0  0  0  0  0  0  0  0  0  0
   11.0625   -3.0028   18.8894 C   0  0  0  0  0  0  0  0  0  0  0  0
    5.6180   -7.9194   16.1754 O   0  0  0  0  0  0  0  0  0  0  0  0
    9.7259   -5.3080   18.4485 C   0  0  0  0  0  0  0  0  0  0  0  0
    9.4578   -5.0200   16.3036 N   0  0  0  0  0  0  0  0  0  0  0  0
    5.0287   -8.9365   16.8223 C   0  0  0  0  0  0  0  0  0  0  0  0
    8.7742   -6.1498   16.6764 C   0  0  0  0  0  0  0  0  0  0  0  0
   10.9418   -3.4032   21.2053 O   0  0  0  0  0  0  0  0  0  0  0  0
    1.4797   -8.6258   16.2950 C   0  0  0  0  0  0  0  0  0  0  0  0
    9.2861   -1.2743   25.3585 C   0  0  0  0  0  0  0  0  0  0  0  0
    1.8892  -10.3985   17.7511 N   0  0  0  0  0  0  0  0  0  0  0  0
    9.6210   -0.6952   24.0976 C   0  0  0  0  0  0  0  0  0  0  0  0
    7.0792   -9.0217   17.1429 C   0  0  0  0  0  0  0  0  0  0  0  0
    3.1713  -10.1816   17.6634 C   0  0  0  0  0  0  0  0  0  0  0  0
    2.7878   -8.3822   16.2137 C   0  0  0  0  0  0  0  0  0  0  0  0
    9.4601   -2.6590   25.6528 C   0  0  0  0  0  0  0  0  0  0  0  0
   10.1182   -1.5672   23.1165 C   0  0  0  0  0  0  0  0  0  0  0  0
    1.0552   -9.6360   17.0650 C   0  0  0  0  0  0  0  0  0  0  0  0
    3.6519   -9.1783   16.9039 C   0  0  0  0  0  0  0  0  0  0  0  0
    7.8675   -7.0096   15.9415 C   0  0  0  0  0  0  0  0  0  0  0  0
    5.9733   -9.6553   17.3832 N   0  0  0  0  0  0  0  0  0  0  0  0
   10.2411   -2.9363   23.4301 C   0  0  0  0  0  0  0  0  0  0  0  0
   10.7288   -3.8197   19.9525 C   0  0  0  0  0  0  0  0  0  0  0  0
   10.1189   -5.0054   19.6987 C   0  0  0  0  0  0  0  0  0  0  0  0
  1  3  4  0
  1  7  4  0
  2 21  4  0
  2 27  4  0
  3  9  4  0
  3 10  4  0
  4  8  4  0
  4 18  4  0
  4 25  1  0
  5  9  4  0
  5 12  4  0
  6 13  1  0
  6 27  1  0
  7 28  4  0
  8 11  4  0
  9 29  4  0
 10 12  4  0
 11 24  1  0
 11 26  4  0
 12 25  1  0
 13 28  1  0
 14 20  4  0
 14 23  4  0
 15 17  4  0
 15 21  4  0
 16 19  4  0
 16 23  4  0
 17 22  4  0
 18 26  4  0
 19 24  4  0
 20 24  4  0
 22 27  4  0
 28 29  4  0
M  END
$$$$

 Created by Python create_sdf_string function

 29 33  0  0  0  0  0  0  0  0999 V2000
   10.7215   -3.3326   17.6437 C   0  0  0  0  0  0  0  0  0  0  0  0
    9.9489   -3.4675   24.6487 N   0  0  0  0  0  0  0  0  0  0  0  0
   10.0172   -4.4740   17.4101 C   0  0  0  0  0  0  0  0  0  0  0  0
    6.9051   -7.9575   16.4222 C   0  0  0  0  0  0  0  0  0  0  0  0
    8.9969   -6.3552   17.9668 N   0  0  0  0  0  0  0  0  0  0  0  0
   10.6702   -3.9051   22.4070 C   0  0  0  0  0  0  0  0  0  0  0  0
   11.0625   -3.0028   18.8894 C   0  0  0  0  0  0  0  0  0  0  0  0
    5.6180   -7.9194   16.1754 O   0  0  0  0  0  0  0  0  0  0  0  0
    9.7259   -5.3080   18.4485 C   0  0  0  0  0  0  0  0  0  0  0  0
    9.4578   -5.0200   16.3036 N   0  0  0  0  0  0  0  0  0  0  0  0
    5.0287   -8.9365   16.8223 C   0  0  0  0  0  0  0  0  0  0  0  0
    8.7742   -6.1498   16.6764 C   0  0  0  0  0  0  0  0  0  0  0  0
   10.9418   -3.4032   21.2053 O   0  0  0  0  0  0  0  0  0  0  0  0
    1.4797   -8.6258   16.2950 C   0  0  0  0  0  0  0  0  0  0  0  0
    9.2861   -1.2743   25.3585 C   0  0  0  0  0  0  0  0  0  0  0  0
    1.8892  -10.3985   17.7511 N   0  0  0  0  0  0  0  0  0  0  0  0
    9.6210   -0.6952   24.0976 C   0  0  0  0  0  0  0  0  0  0  0  0
    7.0792   -9.0217   17.1429 C   0  0  0  0  0  0  0  0  0  0  0  0
    3.1713  -10.1816   17.6634 C   0  0  0  0  0  0  0  0  0  0  0  0
    2.7878   -8.3822   16.2137 C   0  0  0  0  0  0  0  0  0  0  0  0
    9.4601   -2.6590   25.6528 C   0  0  0  0  0  0  0  0  0  0  0  0
   10.1182   -1.5672   23.1165 C   0  0  0  0  0  0  0  0  0  0  0  0
    1.0552   -9.6360   17.0650 C   0  0  0  0  0  0  0  0  0  0  0  0
    3.6519   -9.1783   16.9039 C   0  0  0  0  0  0  0  0  0  0  0  0
    7.8675   -7.0096   15.9415 C   0  0  0  0  0  0  0  0  0  0  0  0
    5.9733   -9.6553   17.3832 N   0  0  0  0  0  0  0  0  0  0  0  0
   10.2411   -2.9363   23.4301 C   0  0  0  0  0  0  0  0  0  0  0  0
   10.7288   -3.8197   19.9525 C   0  0  0  0  0  0  0  0  0  0  0  0
   10.1189   -5.0054   19.6987 C   0  0  0  0  0  0  0  0  0  0  0  0
  1  3  4  0
  1  7  4  0
  2 21  4  0
  2 27  4  0
  3  9  4  0
  3 10  4  0
  4  8  4  0
  4 18  4  0
  4 25  1  0
  5  9  4  0
  5 12  4  0
  6 13  1  0
  6 27  1  0
  7 28  4  0
  8 11  4  0
  9 29  4  0
 10 12  4  0
 11 24  1  0
 11 26  4  0
 12 25  1  0
 13 28  1  0
 14 20  4  0
 14 23  4  0
 15 17  4  0
 15 21  4  0
 16 19  4  0
 16 23  4  0
 17 22  4  0
 18 26  4  0
 19 24  4  0
 20 24  4  0
 22 27  4  0
 28 29  4  0
M  END
$$$$

 Created by Python create_sdf_string function

 29 33  0  0  0  0  0  0  0  0999 V2000
   10.7215   -3.3326   17.6437 C   0  0  0  0  0  0  0  0  0  0  0  0
    9.9489   -3.4675   24.6487 N   0  0  0  0  0  0  0  0  0  0  0  0
   10.0172   -4.4740   17.4101 C   0  0  0  0  0  0  0  0  0  0  0  0
    6.9051   -7.9575   16.4222 C   0  0  0  0  0  0  0  0  0  0  0  0
    8.9969   -6.3552   17.9668 N   0  0  0  0  0  0  0  0  0  0  0  0
   10.6702   -3.9051   22.4070 C   0  0  0  0  0  0  0  0  0  0  0  0
   11.0625   -3.0028   18.8894 C   0  0  0  0  0  0  0  0  0  0  0  0
    5.6180   -7.9194   16.1754 O   0  0  0  0  0  0  0  0  0  0  0  0
    9.7259   -5.3080   18.4485 C   0  0  0  0  0  0  0  0  0  0  0  0
    9.4578   -5.0200   16.3036 N   0  0  0  0  0  0  0  0  0  0  0  0
    5.0287   -8.9365   16.8223 C   0  0  0  0  0  0  0  0  0  0  0  0
    8.7742   -6.1498   16.6764 C   0  0  0  0  0  0  0  0  0  0  0  0
   10.9418   -3.4032   21.2053 O   0  0  0  0  0  0  0  0  0  0  0  0
    1.4797   -8.6258   16.2950 C   0  0  0  0  0  0  0  0  0  0  0  0
    9.2861   -1.2743   25.3585 C   0  0  0  0  0  0  0  0  0  0  0  0
    1.8892  -10.3985   17.7511 N   0  0  0  0  0  0  0  0  0  0  0  0
    9.6210   -0.6952   24.0976 C   0  0  0  0  0  0  0  0  0  0  0  0
    7.0792   -9.0217   17.1429 C   0  0  0  0  0  0  0  0  0  0  0  0
    3.1713  -10.1816   17.6634 C   0  0  0  0  0  0  0  0  0  0  0  0
    2.7878   -8.3822   16.2137 C   0  0  0  0  0  0  0  0  0  0  0  0
    9.4601   -2.6590   25.6528 C   0  0  0  0  0  0  0  0  0  0  0  0
   10.1182   -1.5672   23.1165 C   0  0  0  0  0  0  0  0  0  0  0  0
    1.0552   -9.6360   17.0650 C   0  0  0  0  0  0  0  0  0  0  0  0
    3.6519   -9.1783   16.9039 C   0  0  0  0  0  0  0  0  0  0  0  0
    7.8675   -7.0096   15.9415 C   0  0  0  0  0  0  0  0  0  0  0  0
    5.9733   -9.6553   17.3832 N   0  0  0  0  0  0  0  0  0  0  0  0
   10.2411   -2.9363   23.4301 C   0  0  0  0  0  0  0  0  0  0  0  0
   10.7288   -3.8197   19.9525 C   0  0  0  0  0  0  0  0  0  0  0  0
   10.1189   -5.0054   19.6987 C   0  0  0  0  0  0  0  0  0  0  0  0
  1  3  4  0
  1  7  4  0
  2 21  4  0
  2 27  4  0
  3  9  4  0
  3 10  4  0
  4  8  4  0
  4 18  4  0
  4 25  1  0
  5  9  4  0
  5 12  4  0
  6 13  1  0
  6 27  1  0
  7 28  4  0
  8 11  4  0
  9 29  4  0
 10 12  4  0
 11 24  1  0
 11 26  4  0
 12 25  1  0
 13 28  1  0
 14 20  4  0
 14 23  4  0
 15 17  4  0
 15 21  4  0
 16 19  4  0
 16 23  4  0
 17 22  4  0
 18 26  4  0
 19 24  4  0
 20 24  4  0
 22 27  4  0
 28 29  4  0
M  END
$$$$

 Created by Python create_sdf_string function

 29 33  0  0  0  0  0  0  0  0999 V2000
   10.7215   -3.3326   17.6437 C   0  0  0  0  0  0  0  0  0  0  0  0
    9.9489   -3.4675   24.6487 N   0  0  0  0  0  0  0  0  0  0  0  0
   10.0172   -4.4740   17.4101 C   0  0  0  0  0  0  0  0  0  0  0  0
    6.9051   -7.9575   16.4222 C   0  0  0  0  0  0  0  0  0  0  0  0
    8.9969   -6.3552   17.9668 N   0  0  0  0  0  0  0  0  0  0  0  0
   10.6702   -3.9051   22.4070 C   0  0  0  0  0  0  0  0  0  0  0  0
   11.0625   -3.0028   18.8894 C   0  0  0  0  0  0  0  0  0  0  0  0
    5.6180   -7.9194   16.1754 O   0  0  0  0  0  0  0  0  0  0  0  0
    9.7259   -5.3080   18.4485 C   0  0  0  0  0  0  0  0  0  0  0  0
    9.4578   -5.0200   16.3036 N   0  0  0  0  0  0  0  0  0  0  0  0
    5.0287   -8.9365   16.8223 C   0  0  0  0  0  0  0  0  0  0  0  0
    8.7742   -6.1498   16.6764 C   0  0  0  0  0  0  0  0  0  0  0  0
   10.9418   -3.4032   21.2053 O   0  0  0  0  0  0  0  0  0  0  0  0
    1.4797   -8.6258   16.2950 C   0  0  0  0  0  0  0  0  0  0  0  0
    9.2861   -1.2743   25.3585 C   0  0  0  0  0  0  0  0  0  0  0  0
    1.8892  -10.3985   17.7511 N   0  0  0  0  0  0  0  0  0  0  0  0
    9.6210   -0.6952   24.0976 C   0  0  0  0  0  0  0  0  0  0  0  0
    7.0792   -9.0217   17.1429 C   0  0  0  0  0  0  0  0  0  0  0  0
    3.1713  -10.1816   17.6634 C   0  0  0  0  0  0  0  0  0  0  0  0
    2.7878   -8.3822   16.2137 C   0  0  0  0  0  0  0  0  0  0  0  0
    9.4601   -2.6590   25.6528 C   0  0  0  0  0  0  0  0  0  0  0  0
   10.1182   -1.5672   23.1165 C   0  0  0  0  0  0  0  0  0  0  0  0
    1.0552   -9.6360   17.0650 C   0  0  0  0  0  0  0  0  0  0  0  0
    3.6519   -9.1783   16.9039 C   0  0  0  0  0  0  0  0  0  0  0  0
    7.8675   -7.0096   15.9415 C   0  0  0  0  0  0  0  0  0  0  0  0
    5.9733   -9.6553   17.3832 N   0  0  0  0  0  0  0  0  0  0  0  0
   10.2411   -2.9363   23.4301 C   0  0  0  0  0  0  0  0  0  0  0  0
   10.7288   -3.8197   19.9525 C   0  0  0  0  0  0  0  0  0  0  0  0
   10.1189   -5.0054   19.6987 C   0  0  0  0  0  0  0  0  0  0  0  0
  1  3  4  0
  1  7  4  0
  2 21  4  0
  2 27  4  0
  3  9  4  0
  3 10  4  0
  4  8  4  0
  4 18  4  0
  4 25  1  0
  5  9  4  0
  5 12  4  0
  6 13  1  0
  6 27  1  0
  7 28  4  0
  8 11  4  0
  9 29  4  0
 10 12  4  0
 11 24  1  0
 11 26  4  0
 12 25  1  0
 13 28  1  0
 14 20  4  0
 14 23  4  0
 15 17  4  0
 15 21  4  0
 16 19  4  0
 16 23  4  0
 17 22  4  0
 18 26  4  0
 19 24  4  0
 20 24  4  0
 22 27  4  0
 28 29  4  0
M  END
$$$$

 Created by Python create_sdf_string function

 29 33  0  0  0  0  0  0  0  0999 V2000
   10.7215   -3.3326   17.6437 C   0  0  0  0  0  0  0  0  0  0  0  0
    9.9489   -3.4675   24.6487 N   0  0  0  0  0  0  0  0  0  0  0  0
   10.0172   -4.4740   17.4101 C   0  0  0  0  0  0  0  0  0  0  0  0
    6.9051   -7.9575   16.4222 C   0  0  0  0  0  0  0  0  0  0  0  0
    8.9969   -6.3552   17.9668 N   0  0  0  0  0  0  0  0  0  0  0  0
   10.6702   -3.9051   22.4070 C   0  0  0  0  0  0  0  0  0  0  0  0
   11.0625   -3.0028   18.8894 C   0  0  0  0  0  0  0  0  0  0  0  0
    5.6180   -7.9194   16.1754 O   0  0  0  0  0  0  0  0  0  0  0  0
    9.7259   -5.3080   18.4485 C   0  0  0  0  0  0  0  0  0  0  0  0
    9.4578   -5.0200   16.3036 N   0  0  0  0  0  0  0  0  0  0  0  0
    5.0287   -8.9365   16.8223 C   0  0  0  0  0  0  0  0  0  0  0  0
    8.7742   -6.1498   16.6764 C   0  0  0  0  0  0  0  0  0  0  0  0
   10.9418   -3.4032   21.2053 O   0  0  0  0  0  0  0  0  0  0  0  0
    1.4797   -8.6258   16.2950 C   0  0  0  0  0  0  0  0  0  0  0  0
    9.2861   -1.2743   25.3585 C   0  0  0  0  0  0  0  0  0  0  0  0
    1.8892  -10.3985   17.7511 N   0  0  0  0  0  0  0  0  0  0  0  0
    9.6210   -0.6952   24.0976 C   0  0  0  0  0  0  0  0  0  0  0  0
    7.0792   -9.0217   17.1429 C   0  0  0  0  0  0  0  0  0  0  0  0
    3.1713  -10.1816   17.6634 C   0  0  0  0  0  0  0  0  0  0  0  0
    2.7878   -8.3822   16.2137 C   0  0  0  0  0  0  0  0  0  0  0  0
    9.4601   -2.6590   25.6528 C   0  0  0  0  0  0  0  0  0  0  0  0
   10.1182   -1.5672   23.1165 C   0  0  0  0  0  0  0  0  0  0  0  0
    1.0552   -9.6360   17.0650 C   0  0  0  0  0  0  0  0  0  0  0  0
    3.6519   -9.1783   16.9039 C   0  0  0  0  0  0  0  0  0  0  0  0
    7.8675   -7.0096   15.9415 C   0  0  0  0  0  0  0  0  0  0  0  0
    5.9733   -9.6553   17.3832 N   0  0  0  0  0  0  0  0  0  0  0  0
   10.2411   -2.9363   23.4301 C   0  0  0  0  0  0  0  0  0  0  0  0
   10.7288   -3.8197   19.9525 C   0  0  0  0  0  0  0  0  0  0  0  0
   10.1189   -5.0054   19.6987 C   0  0  0  0  0  0  0  0  0  0  0  0
  1  3  4  0
  1  7  4  0
  2 21  4  0
  2 27  4  0
  3  9  4  0
  3 10  4  0
  4  8  4  0
  4 18  4  0
  4 25  1  0
  5  9  4  0
  5 12  4  0
  6 13  1  0
  6 27  1  0
  7 28  4  0
  8 11  4  0
  9 29  4  0
 10 12  4  0
 11 24  1  0
 11 26  4  0
 12 25  1  0
 13 28  1  0
 14 20  4  0
 14 23  4  0
 15 17  4  0
 15 21  4  0
 16 19  4  0
 16 23  4  0
 17 22  4  0
 18 26  4  0
 19 24  4  0
 20 24  4  0
 22 27  4  0
 28 29  4  0
M  END
$$$$

 Created by Python create_sdf_string function

 29 33  0  0  0  0  0  0  0  0999 V2000
   10.7215   -3.3326   17.6437 C   0  0  0  0  0  0  0  0  0  0  0  0
    9.9489   -3.4675   24.6487 N   0  0  0  0  0  0  0  0  0  0  0  0
   10.0172   -4.4740   17.4101 C   0  0  0  0  0  0  0  0  0  0  0  0
    6.9051   -7.9575   16.4222 C   0  0  0  0  0  0  0  0  0  0  0  0
    8.9969   -6.3552   17.9668 N   0  0  0  0  0  0  0  0  0  0  0  0
   10.6702   -3.9051   22.4070 C   0  0  0  0  0  0  0  0  0  0  0  0
   11.0625   -3.0028   18.8894 C   0  0  0  0  0  0  0  0  0  0  0  0
    5.6180   -7.9194   16.1754 O   0  0  0  0  0  0  0  0  0  0  0  0
    9.7259   -5.3080   18.4485 C   0  0  0  0  0  0  0  0  0  0  0  0
    9.4578   -5.0200   16.3036 N   0  0  0  0  0  0  0  0  0  0  0  0
    5.0287   -8.9365   16.8223 C   0  0  0  0  0  0  0  0  0  0  0  0
    8.7742   -6.1498   16.6764 C   0  0  0  0  0  0  0  0  0  0  0  0
   10.9418   -3.4032   21.2053 O   0  0  0  0  0  0  0  0  0  0  0  0
    1.4797   -8.6258   16.2950 C   0  0  0  0  0  0  0  0  0  0  0  0
    9.2861   -1.2743   25.3585 C   0  0  0  0  0  0  0  0  0  0  0  0
    1.8892  -10.3985   17.7511 N   0  0  0  0  0  0  0  0  0  0  0  0
    9.6210   -0.6952   24.0976 C   0  0  0  0  0  0  0  0  0  0  0  0
    7.0792   -9.0217   17.1429 C   0  0  0  0  0  0  0  0  0  0  0  0
    3.1713  -10.1816   17.6634 C   0  0  0  0  0  0  0  0  0  0  0  0
    2.7878   -8.3822   16.2137 C   0  0  0  0  0  0  0  0  0  0  0  0
    9.4601   -2.6590   25.6528 C   0  0  0  0  0  0  0  0  0  0  0  0
   10.1182   -1.5672   23.1165 C   0  0  0  0  0  0  0  0  0  0  0  0
    1.0552   -9.6360   17.0650 C   0  0  0  0  0  0  0  0  0  0  0  0
    3.6519   -9.1783   16.9039 C   0  0  0  0  0  0  0  0  0  0  0  0
    7.8675   -7.0096   15.9415 C   0  0  0  0  0  0  0  0  0  0  0  0
    5.9733   -9.6553   17.3832 N   0  0  0  0  0  0  0  0  0  0  0  0
   10.2411   -2.9363   23.4301 C   0  0  0  0  0  0  0  0  0  0  0  0
   10.7288   -3.8197   19.9525 C   0  0  0  0  0  0  0  0  0  0  0  0
   10.1189   -5.0054   19.6987 C   0  0  0  0  0  0  0  0  0  0  0  0
  1  3  4  0
  1  7  4  0
  2 21  4  0
  2 27  4  0
  3  9  4  0
  3 10  4  0
  4  8  4  0
  4 18  4  0
  4 25  1  0
  5  9  4  0
  5 12  4  0
  6 13  1  0
  6 27  1  0
  7 28  4  0
  8 11  4  0
  9 29  4  0
 10 12  4  0
 11 24  1  0
 11 26  4  0
 12 25  1  0
 13 28  1  0
 14 20  4  0
 14 23  4  0
 15 17  4  0
 15 21  4  0
 16 19  4  0
 16 23  4  0
 17 22  4  0
 18 26  4  0
 19 24  4  0
 20 24  4  0
 22 27  4  0
 28 29  4  0
M  END
$$$$

 Created by Python create_sdf_string function

 29 33  0  0  0  0  0  0  0  0999 V2000
   10.7215   -3.3326   17.6437 C   0  0  0  0  0  0  0  0  0  0  0  0
    9.9489   -3.4675   24.6487 N   0  0  0  0  0  0  0  0  0  0  0  0
   10.0172   -4.4740   17.4101 C   0  0  0  0  0  0  0  0  0  0  0  0
    6.9051   -7.9575   16.4222 C   0  0  0  0  0  0  0  0  0  0  0  0
    8.9969   -6.3552   17.9668 N   0  0  0  0  0  0  0  0  0  0  0  0
   10.6702   -3.9051   22.4070 C   0  0  0  0  0  0  0  0  0  0  0  0
   11.0625   -3.0028   18.8894 C   0  0  0  0  0  0  0  0  0  0  0  0
    5.6180   -7.9194   16.1754 O   0  0  0  0  0  0  0  0  0  0  0  0
    9.7259   -5.3080   18.4485 C   0  0  0  0  0  0  0  0  0  0  0  0
    9.4578   -5.0200   16.3036 N   0  0  0  0  0  0  0  0  0  0  0  0
    5.0287   -8.9365   16.8223 C   0  0  0  0  0  0  0  0  0  0  0  0
    8.7742   -6.1498   16.6764 C   0  0  0  0  0  0  0  0  0  0  0  0
   10.9418   -3.4032   21.2053 O   0  0  0  0  0  0  0  0  0  0  0  0
    1.4797   -8.6258   16.2950 C   0  0  0  0  0  0  0  0  0  0  0  0
    9.2861   -1.2743   25.3585 C   0  0  0  0  0  0  0  0  0  0  0  0
    1.8892  -10.3985   17.7511 N   0  0  0  0  0  0  0  0  0  0  0  0
    9.6210   -0.6952   24.0976 C   0  0  0  0  0  0  0  0  0  0  0  0
    7.0792   -9.0217   17.1429 C   0  0  0  0  0  0  0  0  0  0  0  0
    3.1713  -10.1816   17.6634 C   0  0  0  0  0  0  0  0  0  0  0  0
    2.7878   -8.3822   16.2137 C   0  0  0  0  0  0  0  0  0  0  0  0
    9.4601   -2.6590   25.6528 C   0  0  0  0  0  0  0  0  0  0  0  0
   10.1182   -1.5672   23.1165 C   0  0  0  0  0  0  0  0  0  0  0  0
    1.0552   -9.6360   17.0650 C   0  0  0  0  0  0  0  0  0  0  0  0
    3.6519   -9.1783   16.9039 C   0  0  0  0  0  0  0  0  0  0  0  0
    7.8675   -7.0096   15.9415 C   0  0  0  0  0  0  0  0  0  0  0  0
    5.9733   -9.6553   17.3832 N   0  0  0  0  0  0  0  0  0  0  0  0
   10.2411   -2.9363   23.4301 C   0  0  0  0  0  0  0  0  0  0  0  0
   10.7288   -3.8197   19.9525 C   0  0  0  0  0  0  0  0  0  0  0  0
   10.1189   -5.0054   19.6987 C   0  0  0  0  0  0  0  0  0  0  0  0
  1  3  4  0
  1  7  4  0
  2 21  4  0
  2 27  4  0
  3  9  4  0
  3 10  4  0
  4  8  4  0
  4 18  4  0
  4 25  1  0
  5  9  4  0
  5 12  4  0
  6 13  1  0
  6 27  1  0
  7 28  4  0
  8 11  4  0
  9 29  4  0
 10 12  4  0
 11 24  1  0
 11 26  4  0
 12 25  1  0
 13 28  1  0
 14 20  4  0
 14 23  4  0
 15 17  4  0
 15 21  4  0
 16 19  4  0
 16 23  4  0
 17 22  4  0
 18 26  4  0
 19 24  4  0
 20 24  4  0
 22 27  4  0
 28 29  4  0
M  END
$$$$

 Created by Python create_sdf_string function

 29 33  0  0  0  0  0  0  0  0999 V2000
   10.7215   -3.3326   17.6437 C   0  0  0  0  0  0  0  0  0  0  0  0
    9.9489   -3.4675   24.6487 N   0  0  0  0  0  0  0  0  0  0  0  0
   10.0172   -4.4740   17.4101 C   0  0  0  0  0  0  0  0  0  0  0  0
    6.9051   -7.9575   16.4222 C   0  0  0  0  0  0  0  0  0  0  0  0
    8.9969   -6.3552   17.9668 N   0  0  0  0  0  0  0  0  0  0  0  0
   10.6702   -3.9051   22.4070 C   0  0  0  0  0  0  0  0  0  0  0  0
   11.0625   -3.0028   18.8894 C   0  0  0  0  0  0  0  0  0  0  0  0
    5.6180   -7.9194   16.1754 O   0  0  0  0  0  0  0  0  0  0  0  0
    9.7259   -5.3080   18.4485 C   0  0  0  0  0  0  0  0  0  0  0  0
    9.4578   -5.0200   16.3036 N   0  0  0  0  0  0  0  0  0  0  0  0
    5.0287   -8.9365   16.8223 C   0  0  0  0  0  0  0  0  0  0  0  0
    8.7742   -6.1498   16.6764 C   0  0  0  0  0  0  0  0  0  0  0  0
   10.9418   -3.4032   21.2053 O   0  0  0  0  0  0  0  0  0  0  0  0
    1.4797   -8.6258   16.2950 C   0  0  0  0  0  0  0  0  0  0  0  0
    9.2861   -1.2743   25.3585 C   0  0  0  0  0  0  0  0  0  0  0  0
    1.8892  -10.3985   17.7511 N   0  0  0  0  0  0  0  0  0  0  0  0
    9.6210   -0.6952   24.0976 C   0  0  0  0  0  0  0  0  0  0  0  0
    7.0792   -9.0217   17.1429 C   0  0  0  0  0  0  0  0  0  0  0  0
    3.1713  -10.1816   17.6634 C   0  0  0  0  0  0  0  0  0  0  0  0
    2.7878   -8.3822   16.2137 C   0  0  0  0  0  0  0  0  0  0  0  0
    9.4601   -2.6590   25.6528 C   0  0  0  0  0  0  0  0  0  0  0  0
   10.1182   -1.5672   23.1165 C   0  0  0  0  0  0  0  0  0  0  0  0
    1.0552   -9.6360   17.0650 C   0  0  0  0  0  0  0  0  0  0  0  0
    3.6519   -9.1783   16.9039 C   0  0  0  0  0  0  0  0  0  0  0  0
    7.8675   -7.0096   15.9415 C   0  0  0  0  0  0  0  0  0  0  0  0
    5.9733   -9.6553   17.3832 N   0  0  0  0  0  0  0  0  0  0  0  0
   10.2411   -2.9363   23.4301 C   0  0  0  0  0  0  0  0  0  0  0  0
   10.7288   -3.8197   19.9525 C   0  0  0  0  0  0  0  0  0  0  0  0
   10.1189   -5.0054   19.6987 C   0  0  0  0  0  0  0  0  0  0  0  0
  1  3  4  0
  1  7  4  0
  2 21  4  0
  2 27  4  0
  3  9  4  0
  3 10  4  0
  4  8  4  0
  4 18  4  0
  4 25  1  0
  5  9  4  0
  5 12  4  0
  6 13  1  0
  6 27  1  0
  7 28  4  0
  8 11  4  0
  9 29  4  0
 10 12  4  0
 11 24  1  0
 11 26  4  0
 12 25  1  0
 13 28  1  0
 14 20  4  0
 14 23  4  0
 15 17  4  0
 15 21  4  0
 16 19  4  0
 16 23  4  0
 17 22  4  0
 18 26  4  0
 19 24  4  0
 20 24  4  0
 22 27  4  0
 28 29  4  0
M  END
$$$$

 Created by Python create_sdf_string function

 29 33  0  0  0  0  0  0  0  0999 V2000
   10.7215   -3.3326   17.6437 C   0  0  0  0  0  0  0  0  0  0  0  0
    9.9489   -3.4675   24.6487 N   0  0  0  0  0  0  0  0  0  0  0  0
   10.0172   -4.4740   17.4101 C   0  0  0  0  0  0  0  0  0  0  0  0
    6.9051   -7.9575   16.4222 C   0  0  0  0  0  0  0  0  0  0  0  0
    8.9969   -6.3552   17.9668 N   0  0  0  0  0  0  0  0  0  0  0  0
   10.6702   -3.9051   22.4070 C   0  0  0  0  0  0  0  0  0  0  0  0
   11.0625   -3.0028   18.8894 C   0  0  0  0  0  0  0  0  0  0  0  0
    5.6180   -7.9194   16.1754 O   0  0  0  0  0  0  0  0  0  0  0  0
    9.7259   -5.3080   18.4485 C   0  0  0  0  0  0  0  0  0  0  0  0
    9.4578   -5.0200   16.3036 N   0  0  0  0  0  0  0  0  0  0  0  0
    5.0287   -8.9365   16.8223 C   0  0  0  0  0  0  0  0  0  0  0  0
    8.7742   -6.1498   16.6764 C   0  0  0  0  0  0  0  0  0  0  0  0
   10.9418   -3.4032   21.2053 O   0  0  0  0  0  0  0  0  0  0  0  0
    1.4797   -8.6258   16.2950 C   0  0  0  0  0  0  0  0  0  0  0  0
    9.2861   -1.2743   25.3585 C   0  0  0  0  0  0  0  0  0  0  0  0
    1.8892  -10.3985   17.7511 N   0  0  0  0  0  0  0  0  0  0  0  0
    9.6210   -0.6952   24.0976 C   0  0  0  0  0  0  0  0  0  0  0  0
    7.0792   -9.0217   17.1429 C   0  0  0  0  0  0  0  0  0  0  0  0
    3.1713  -10.1816   17.6634 C   0  0  0  0  0  0  0  0  0  0  0  0
    2.7878   -8.3822   16.2137 C   0  0  0  0  0  0  0  0  0  0  0  0
    9.4601   -2.6590   25.6528 C   0  0  0  0  0  0  0  0  0  0  0  0
   10.1182   -1.5672   23.1165 C   0  0  0  0  0  0  0  0  0  0  0  0
    1.0552   -9.6360   17.0650 C   0  0  0  0  0  0  0  0  0  0  0  0
    3.6519   -9.1783   16.9039 C   0  0  0  0  0  0  0  0  0  0  0  0
    7.8675   -7.0096   15.9415 C   0  0  0  0  0  0  0  0  0  0  0  0
    5.9733   -9.6553   17.3832 N   0  0  0  0  0  0  0  0  0  0  0  0
   10.2411   -2.9363   23.4301 C   0  0  0  0  0  0  0  0  0  0  0  0
   10.7288   -3.8197   19.9525 C   0  0  0  0  0  0  0  0  0  0  0  0
   10.1189   -5.0054   19.6987 C   0  0  0  0  0  0  0  0  0  0  0  0
  1  3  4  0
  1  7  4  0
  2 21  4  0
  2 27  4  0
  3  9  4  0
  3 10  4  0
  4  8  4  0
  4 18  4  0
  4 25  1  0
  5  9  4  0
  5 12  4  0
  6 13  1  0
  6 27  1  0
  7 28  4  0
  8 11  4  0
  9 29  4  0
 10 12  4  0
 11 24  1  0
 11 26  4  0
 12 25  1  0
 13 28  1  0
 14 20  4  0
 14 23  4  0
 15 17  4  0
 15 21  4  0
 16 19  4  0
 16 23  4  0
 17 22  4  0
 18 26  4  0
 19 24  4  0
 20 24  4  0
 22 27  4  0
 28 29  4  0
M  END
$$$$

 Created by Python create_sdf_string function

 29 33  0  0  0  0  0  0  0  0999 V2000
   10.7215   -3.3326   17.6437 C   0  0  0  0  0  0  0  0  0  0  0  0
    9.9489   -3.4675   24.6487 N   0  0  0  0  0  0  0  0  0  0  0  0
   10.0172   -4.4740   17.4101 C   0  0  0  0  0  0  0  0  0  0  0  0
    6.9051   -7.9575   16.4222 C   0  0  0  0  0  0  0  0  0  0  0  0
    8.9969   -6.3552   17.9668 N   0  0  0  0  0  0  0  0  0  0  0  0
   10.6702   -3.9051   22.4070 C   0  0  0  0  0  0  0  0  0  0  0  0
   11.0625   -3.0028   18.8894 C   0  0  0  0  0  0  0  0  0  0  0  0
    5.6180   -7.9194   16.1754 O   0  0  0  0  0  0  0  0  0  0  0  0
    9.7259   -5.3080   18.4485 C   0  0  0  0  0  0  0  0  0  0  0  0
    9.4578   -5.0200   16.3036 N   0  0  0  0  0  0  0  0  0  0  0  0
    5.0287   -8.9365   16.8223 C   0  0  0  0  0  0  0  0  0  0  0  0
    8.7742   -6.1498   16.6764 C   0  0  0  0  0  0  0  0  0  0  0  0
   10.9418   -3.4032   21.2053 O   0  0  0  0  0  0  0  0  0  0  0  0
    1.4797   -8.6258   16.2950 C   0  0  0  0  0  0  0  0  0  0  0  0
    9.2861   -1.2743   25.3585 C   0  0  0  0  0  0  0  0  0  0  0  0
    1.8892  -10.3985   17.7511 N   0  0  0  0  0  0  0  0  0  0  0  0
    9.6210   -0.6952   24.0976 C   0  0  0  0  0  0  0  0  0  0  0  0
    7.0792   -9.0217   17.1429 C   0  0  0  0  0  0  0  0  0  0  0  0
    3.1713  -10.1816   17.6634 C   0  0  0  0  0  0  0  0  0  0  0  0
    2.7878   -8.3822   16.2137 C   0  0  0  0  0  0  0  0  0  0  0  0
    9.4601   -2.6590   25.6528 C   0  0  0  0  0  0  0  0  0  0  0  0
   10.1182   -1.5672   23.1165 C   0  0  0  0  0  0  0  0  0  0  0  0
    1.0552   -9.6360   17.0650 C   0  0  0  0  0  0  0  0  0  0  0  0
    3.6519   -9.1783   16.9039 C   0  0  0  0  0  0  0  0  0  0  0  0
    7.8675   -7.0096   15.9415 C   0  0  0  0  0  0  0  0  0  0  0  0
    5.9733   -9.6553   17.3832 N   0  0  0  0  0  0  0  0  0  0  0  0
   10.2411   -2.9363   23.4301 C   0  0  0  0  0  0  0  0  0  0  0  0
   10.7288   -3.8197   19.9525 C   0  0  0  0  0  0  0  0  0  0  0  0
   10.1189   -5.0054   19.6987 C   0  0  0  0  0  0  0  0  0  0  0  0
  1  3  4  0
  1  7  4  0
  2 21  4  0
  2 27  4  0
  3  9  4  0
  3 10  4  0
  4  8  4  0
  4 18  4  0
  4 25  1  0
  5  9  4  0
  5 12  4  0
  6 13  1  0
  6 27  1  0
  7 28  4  0
  8 11  4  0
  9 29  4  0
 10 12  4  0
 11 24  1  0
 11 26  4  0
 12 25  1  0
 13 28  1  0
 14 20  4  0
 14 23  4  0
 15 17  4  0
 15 21  4  0
 16 19  4  0
 16 23  4  0
 17 22  4  0
 18 26  4  0
 19 24  4  0
 20 24  4  0
 22 27  4  0
 28 29  4  0
M  END
$$$$

 Created by Python create_sdf_string function

 29 33  0  0  0  0  0  0  0  0999 V2000
   10.7215   -3.3326   17.6437 C   0  0  0  0  0  0  0  0  0  0  0  0
    9.9489   -3.4675   24.6487 N   0  0  0  0  0  0  0  0  0  0  0  0
   10.0172   -4.4740   17.4101 C   0  0  0  0  0  0  0  0  0  0  0  0
    6.9051   -7.9575   16.4222 C   0  0  0  0  0  0  0  0  0  0  0  0
    8.9969   -6.3552   17.9668 N   0  0  0  0  0  0  0  0  0  0  0  0
   10.6702   -3.9051   22.4070 C   0  0  0  0  0  0  0  0  0  0  0  0
   11.0625   -3.0028   18.8894 C   0  0  0  0  0  0  0  0  0  0  0  0
    5.6180   -7.9194   16.1754 O   0  0  0  0  0  0  0  0  0  0  0  0
    9.7259   -5.3080   18.4485 C   0  0  0  0  0  0  0  0  0  0  0  0
    9.4578   -5.0200   16.3036 N   0  0  0  0  0  0  0  0  0  0  0  0
    5.0287   -8.9365   16.8223 C   0  0  0  0  0  0  0  0  0  0  0  0
    8.7742   -6.1498   16.6764 C   0  0  0  0  0  0  0  0  0  0  0  0
   10.9418   -3.4032   21.2053 O   0  0  0  0  0  0  0  0  0  0  0  0
    1.4797   -8.6258   16.2950 C   0  0  0  0  0  0  0  0  0  0  0  0
    9.2861   -1.2743   25.3585 C   0  0  0  0  0  0  0  0  0  0  0  0
    1.8892  -10.3985   17.7511 N   0  0  0  0  0  0  0  0  0  0  0  0
    9.6210   -0.6952   24.0976 C   0  0  0  0  0  0  0  0  0  0  0  0
    7.0792   -9.0217   17.1429 C   0  0  0  0  0  0  0  0  0  0  0  0
    3.1713  -10.1816   17.6634 C   0  0  0  0  0  0  0  0  0  0  0  0
    2.7878   -8.3822   16.2137 C   0  0  0  0  0  0  0  0  0  0  0  0
    9.4601   -2.6590   25.6528 C   0  0  0  0  0  0  0  0  0  0  0  0
   10.1182   -1.5672   23.1165 C   0  0  0  0  0  0  0  0  0  0  0  0
    1.0552   -9.6360   17.0650 C   0  0  0  0  0  0  0  0  0  0  0  0
    3.6519   -9.1783   16.9039 C   0  0  0  0  0  0  0  0  0  0  0  0
    7.8675   -7.0096   15.9415 C   0  0  0  0  0  0  0  0  0  0  0  0
    5.9733   -9.6553   17.3832 N   0  0  0  0  0  0  0  0  0  0  0  0
   10.2411   -2.9363   23.4301 C   0  0  0  0  0  0  0  0  0  0  0  0
   10.7288   -3.8197   19.9525 C   0  0  0  0  0  0  0  0  0  0  0  0
   10.1189   -5.0054   19.6987 C   0  0  0  0  0  0  0  0  0  0  0  0
  1  3  4  0
  1  7  4  0
  2 21  4  0
  2 27  4  0
  3  9  4  0
  3 10  4  0
  4  8  4  0
  4 18  4  0
  4 25  1  0
  5  9  4  0
  5 12  4  0
  6 13  1  0
  6 27  1  0
  7 28  4  0
  8 11  4  0
  9 29  4  0
 10 12  4  0
 11 24  1  0
 11 26  4  0
 12 25  1  0
 13 28  1  0
 14 20  4  0
 14 23  4  0
 15 17  4  0
 15 21  4  0
 16 19  4  0
 16 23  4  0
 17 22  4  0
 18 26  4  0
 19 24  4  0
 20 24  4  0
 22 27  4  0
 28 29  4  0
M  END
$$$$

 Created by Python create_sdf_string function

 29 33  0  0  0  0  0  0  0  0999 V2000
   10.7215   -3.3326   17.6437 C   0  0  0  0  0  0  0  0  0  0  0  0
    9.9489   -3.4675   24.6487 N   0  0  0  0  0  0  0  0  0  0  0  0
   10.0172   -4.4740   17.4101 C   0  0  0  0  0  0  0  0  0  0  0  0
    6.9051   -7.9575   16.4222 C   0  0  0  0  0  0  0  0  0  0  0  0
    8.9969   -6.3552   17.9668 N   0  0  0  0  0  0  0  0  0  0  0  0
   10.6702   -3.9051   22.4070 C   0  0  0  0  0  0  0  0  0  0  0  0
   11.0625   -3.0028   18.8894 C   0  0  0  0  0  0  0  0  0  0  0  0
    5.6180   -7.9194   16.1754 O   0  0  0  0  0  0  0  0  0  0  0  0
    9.7259   -5.3080   18.4485 C   0  0  0  0  0  0  0  0  0  0  0  0
    9.4578   -5.0200   16.3036 N   0  0  0  0  0  0  0  0  0  0  0  0
    5.0287   -8.9365   16.8223 C   0  0  0  0  0  0  0  0  0  0  0  0
    8.7742   -6.1498   16.6764 C   0  0  0  0  0  0  0  0  0  0  0  0
   10.9418   -3.4032   21.2053 O   0  0  0  0  0  0  0  0  0  0  0  0
    1.4797   -8.6258   16.2950 C   0  0  0  0  0  0  0  0  0  0  0  0
    9.2861   -1.2743   25.3585 C   0  0  0  0  0  0  0  0  0  0  0  0
    1.8892  -10.3985   17.7511 N   0  0  0  0  0  0  0  0  0  0  0  0
    9.6210   -0.6952   24.0976 C   0  0  0  0  0  0  0  0  0  0  0  0
    7.0792   -9.0217   17.1429 C   0  0  0  0  0  0  0  0  0  0  0  0
    3.1713  -10.1816   17.6634 C   0  0  0  0  0  0  0  0  0  0  0  0
    2.7878   -8.3822   16.2137 C   0  0  0  0  0  0  0  0  0  0  0  0
    9.4601   -2.6590   25.6528 C   0  0  0  0  0  0  0  0  0  0  0  0
   10.1182   -1.5672   23.1165 C   0  0  0  0  0  0  0  0  0  0  0  0
    1.0552   -9.6360   17.0650 C   0  0  0  0  0  0  0  0  0  0  0  0
    3.6519   -9.1783   16.9039 C   0  0  0  0  0  0  0  0  0  0  0  0
    7.8675   -7.0096   15.9415 C   0  0  0  0  0  0  0  0  0  0  0  0
    5.9733   -9.6553   17.3832 N   0  0  0  0  0  0  0  0  0  0  0  0
   10.2411   -2.9363   23.4301 C   0  0  0  0  0  0  0  0  0  0  0  0
   10.7288   -3.8197   19.9525 C   0  0  0  0  0  0  0  0  0  0  0  0
   10.1189   -5.0054   19.6987 C   0  0  0  0  0  0  0  0  0  0  0  0
  1  3  4  0
  1  7  4  0
  2 21  4  0
  2 27  4  0
  3  9  4  0
  3 10  4  0
  4  8  4  0
  4 18  4  0
  4 25  1  0
  5  9  4  0
  5 12  4  0
  6 13  1  0
  6 27  1  0
  7 28  4  0
  8 11  4  0
  9 29  4  0
 10 12  4  0
 11 24  1  0
 11 26  4  0
 12 25  1  0
 13 28  1  0
 14 20  4  0
 14 23  4  0
 15 17  4  0
 15 21  4  0
 16 19  4  0
 16 23  4  0
 17 22  4  0
 18 26  4  0
 19 24  4  0
 20 24  4  0
 22 27  4  0
 28 29  4  0
M  END
$$$$

 Created by Python create_sdf_string function

 29 33  0  0  0  0  0  0  0  0999 V2000
   10.7215   -3.3326   17.6437 C   0  0  0  0  0  0  0  0  0  0  0  0
    9.9489   -3.4675   24.6487 N   0  0  0  0  0  0  0  0  0  0  0  0
   10.0172   -4.4740   17.4101 C   0  0  0  0  0  0  0  0  0  0  0  0
    6.9051   -7.9575   16.4222 C   0  0  0  0  0  0  0  0  0  0  0  0
    8.9969   -6.3552   17.9668 N   0  0  0  0  0  0  0  0  0  0  0  0
   10.6702   -3.9051   22.4070 C   0  0  0  0  0  0  0  0  0  0  0  0
   11.0625   -3.0028   18.8894 C   0  0  0  0  0  0  0  0  0  0  0  0
    5.6180   -7.9194   16.1754 O   0  0  0  0  0  0  0  0  0  0  0  0
    9.7259   -5.3080   18.4485 C   0  0  0  0  0  0  0  0  0  0  0  0
    9.4578   -5.0200   16.3036 N   0  0  0  0  0  0  0  0  0  0  0  0
    5.0287   -8.9365   16.8223 C   0  0  0  0  0  0  0  0  0  0  0  0
    8.7742   -6.1498   16.6764 C   0  0  0  0  0  0  0  0  0  0  0  0
   10.9418   -3.4032   21.2053 O   0  0  0  0  0  0  0  0  0  0  0  0
    1.4797   -8.6258   16.2950 C   0  0  0  0  0  0  0  0  0  0  0  0
    9.2861   -1.2743   25.3585 C   0  0  0  0  0  0  0  0  0  0  0  0
    1.8892  -10.3985   17.7511 N   0  0  0  0  0  0  0  0  0  0  0  0
    9.6210   -0.6952   24.0976 C   0  0  0  0  0  0  0  0  0  0  0  0
    7.0792   -9.0217   17.1429 C   0  0  0  0  0  0  0  0  0  0  0  0
    3.1713  -10.1816   17.6634 C   0  0  0  0  0  0  0  0  0  0  0  0
    2.7878   -8.3822   16.2137 C   0  0  0  0  0  0  0  0  0  0  0  0
    9.4601   -2.6590   25.6528 C   0  0  0  0  0  0  0  0  0  0  0  0
   10.1182   -1.5672   23.1165 C   0  0  0  0  0  0  0  0  0  0  0  0
    1.0552   -9.6360   17.0650 C   0  0  0  0  0  0  0  0  0  0  0  0
    3.6519   -9.1783   16.9039 C   0  0  0  0  0  0  0  0  0  0  0  0
    7.8675   -7.0096   15.9415 C   0  0  0  0  0  0  0  0  0  0  0  0
    5.9733   -9.6553   17.3832 N   0  0  0  0  0  0  0  0  0  0  0  0
   10.2411   -2.9363   23.4301 C   0  0  0  0  0  0  0  0  0  0  0  0
   10.7288   -3.8197   19.9525 C   0  0  0  0  0  0  0  0  0  0  0  0
   10.1189   -5.0054   19.6987 C   0  0  0  0  0  0  0  0  0  0  0  0
  1  3  4  0
  1  7  4  0
  2 21  4  0
  2 27  4  0
  3  9  4  0
  3 10  4  0
  4  8  4  0
  4 18  4  0
  4 25  1  0
  5  9  4  0
  5 12  4  0
  6 13  1  0
  6 27  1  0
  7 28  4  0
  8 11  4  0
  9 29  4  0
 10 12  4  0
 11 24  1  0
 11 26  4  0
 12 25  1  0
 13 28  1  0
 14 20  4  0
 14 23  4  0
 15 17  4  0
 15 21  4  0
 16 19  4  0
 16 23  4  0
 17 22  4  0
 18 26  4  0
 19 24  4  0
 20 24  4  0
 22 27  4  0
 28 29  4  0
M  END
$$$$

 Created by Python create_sdf_string function

 29 33  0  0  0  0  0  0  0  0999 V2000
   10.7215   -3.3326   17.6437 C   0  0  0  0  0  0  0  0  0  0  0  0
    9.9489   -3.4675   24.6487 N   0  0  0  0  0  0  0  0  0  0  0  0
   10.0172   -4.4740   17.4101 C   0  0  0  0  0  0  0  0  0  0  0  0
    6.9051   -7.9575   16.4222 C   0  0  0  0  0  0  0  0  0  0  0  0
    8.9969   -6.3552   17.9668 N   0  0  0  0  0  0  0  0  0  0  0  0
   10.6702   -3.9051   22.4070 C   0  0  0  0  0  0  0  0  0  0  0  0
   11.0625   -3.0028   18.8894 C   0  0  0  0  0  0  0  0  0  0  0  0
    5.6180   -7.9194   16.1754 O   0  0  0  0  0  0  0  0  0  0  0  0
    9.7259   -5.3080   18.4485 C   0  0  0  0  0  0  0  0  0  0  0  0
    9.4578   -5.0200   16.3036 N   0  0  0  0  0  0  0  0  0  0  0  0
    5.0287   -8.9365   16.8223 C   0  0  0  0  0  0  0  0  0  0  0  0
    8.7742   -6.1498   16.6764 C   0  0  0  0  0  0  0  0  0  0  0  0
   10.9418   -3.4032   21.2053 O   0  0  0  0  0  0  0  0  0  0  0  0
    1.4797   -8.6258   16.2950 C   0  0  0  0  0  0  0  0  0  0  0  0
    9.2861   -1.2743   25.3585 C   0  0  0  0  0  0  0  0  0  0  0  0
    1.8892  -10.3985   17.7511 N   0  0  0  0  0  0  0  0  0  0  0  0
    9.6210   -0.6952   24.0976 C   0  0  0  0  0  0  0  0  0  0  0  0
    7.0792   -9.0217   17.1429 C   0  0  0  0  0  0  0  0  0  0  0  0
    3.1713  -10.1816   17.6634 C   0  0  0  0  0  0  0  0  0  0  0  0
    2.7878   -8.3822   16.2137 C   0  0  0  0  0  0  0  0  0  0  0  0
    9.4601   -2.6590   25.6528 C   0  0  0  0  0  0  0  0  0  0  0  0
   10.1182   -1.5672   23.1165 C   0  0  0  0  0  0  0  0  0  0  0  0
    1.0552   -9.6360   17.0650 C   0  0  0  0  0  0  0  0  0  0  0  0
    3.6519   -9.1783   16.9039 C   0  0  0  0  0  0  0  0  0  0  0  0
    7.8675   -7.0096   15.9415 C   0  0  0  0  0  0  0  0  0  0  0  0
    5.9733   -9.6553   17.3832 N   0  0  0  0  0  0  0  0  0  0  0  0
   10.2411   -2.9363   23.4301 C   0  0  0  0  0  0  0  0  0  0  0  0
   10.7288   -3.8197   19.9525 C   0  0  0  0  0  0  0  0  0  0  0  0
   10.1189   -5.0054   19.6987 C   0  0  0  0  0  0  0  0  0  0  0  0
  1  3  4  0
  1  7  4  0
  2 21  4  0
  2 27  4  0
  3  9  4  0
  3 10  4  0
  4  8  4  0
  4 18  4  0
  4 25  1  0
  5  9  4  0
  5 12  4  0
  6 13  1  0
  6 27  1  0
  7 28  4  0
  8 11  4  0
  9 29  4  0
 10 12  4  0
 11 24  1  0
 11 26  4  0
 12 25  1  0
 13 28  1  0
 14 20  4  0
 14 23  4  0
 15 17  4  0
 15 21  4  0
 16 19  4  0
 16 23  4  0
 17 22  4  0
 18 26  4  0
 19 24  4  0
 20 24  4  0
 22 27  4  0
 28 29  4  0
M  END
$$$$

 Created by Python create_sdf_string function

 29 33  0  0  0  0  0  0  0  0999 V2000
   10.7215   -3.3326   17.6437 C   0  0  0  0  0  0  0  0  0  0  0  0
    9.9489   -3.4675   24.6487 N   0  0  0  0  0  0  0  0  0  0  0  0
   10.0172   -4.4740   17.4101 C   0  0  0  0  0  0  0  0  0  0  0  0
    6.9051   -7.9575   16.4222 C   0  0  0  0  0  0  0  0  0  0  0  0
    8.9969   -6.3552   17.9668 N   0  0  0  0  0  0  0  0  0  0  0  0
   10.6702   -3.9051   22.4070 C   0  0  0  0  0  0  0  0  0  0  0  0
   11.0625   -3.0028   18.8894 C   0  0  0  0  0  0  0  0  0  0  0  0
    5.6180   -7.9194   16.1754 O   0  0  0  0  0  0  0  0  0  0  0  0
    9.7259   -5.3080   18.4485 C   0  0  0  0  0  0  0  0  0  0  0  0
    9.4578   -5.0200   16.3036 N   0  0  0  0  0  0  0  0  0  0  0  0
    5.0287   -8.9365   16.8223 C   0  0  0  0  0  0  0  0  0  0  0  0
    8.7742   -6.1498   16.6764 C   0  0  0  0  0  0  0  0  0  0  0  0
   10.9418   -3.4032   21.2053 O   0  0  0  0  0  0  0  0  0  0  0  0
    1.4797   -8.6258   16.2950 C   0  0  0  0  0  0  0  0  0  0  0  0
    9.2861   -1.2743   25.3585 C   0  0  0  0  0  0  0  0  0  0  0  0
    1.8892  -10.3985   17.7511 N   0  0  0  0  0  0  0  0  0  0  0  0
    9.6210   -0.6952   24.0976 C   0  0  0  0  0  0  0  0  0  0  0  0
    7.0792   -9.0217   17.1429 C   0  0  0  0  0  0  0  0  0  0  0  0
    3.1713  -10.1816   17.6634 C   0  0  0  0  0  0  0  0  0  0  0  0
    2.7878   -8.3822   16.2137 C   0  0  0  0  0  0  0  0  0  0  0  0
    9.4601   -2.6590   25.6528 C   0  0  0  0  0  0  0  0  0  0  0  0
   10.1182   -1.5672   23.1165 C   0  0  0  0  0  0  0  0  0  0  0  0
    1.0552   -9.6360   17.0650 C   0  0  0  0  0  0  0  0  0  0  0  0
    3.6519   -9.1783   16.9039 C   0  0  0  0  0  0  0  0  0  0  0  0
    7.8675   -7.0096   15.9415 C   0  0  0  0  0  0  0  0  0  0  0  0
    5.9733   -9.6553   17.3832 N   0  0  0  0  0  0  0  0  0  0  0  0
   10.2411   -2.9363   23.4301 C   0  0  0  0  0  0  0  0  0  0  0  0
   10.7288   -3.8197   19.9525 C   0  0  0  0  0  0  0  0  0  0  0  0
   10.1189   -5.0054   19.6987 C   0  0  0  0  0  0  0  0  0  0  0  0
  1  3  4  0
  1  7  4  0
  2 21  4  0
  2 27  4  0
  3  9  4  0
  3 10  4  0
  4  8  4  0
  4 18  4  0
  4 25  1  0
  5  9  4  0
  5 12  4  0
  6 13  1  0
  6 27  1  0
  7 28  4  0
  8 11  4  0
  9 29  4  0
 10 12  4  0
 11 24  1  0
 11 26  4  0
 12 25  1  0
 13 28  1  0
 14 20  4  0
 14 23  4  0
 15 17  4  0
 15 21  4  0
 16 19  4  0
 16 23  4  0
 17 22  4  0
 18 26  4  0
 19 24  4  0
 20 24  4  0
 22 27  4  0
 28 29  4  0
M  END
$$$$

 Created by Python create_sdf_string function

 29 33  0  0  0  0  0  0  0  0999 V2000
   10.7215   -3.3326   17.6437 C   0  0  0  0  0  0  0  0  0  0  0  0
    9.9489   -3.4675   24.6487 N   0  0  0  0  0  0  0  0  0  0  0  0
   10.0172   -4.4740   17.4101 C   0  0  0  0  0  0  0  0  0  0  0  0
    6.9051   -7.9575   16.4222 C   0  0  0  0  0  0  0  0  0  0  0  0
    8.9969   -6.3552   17.9668 N   0  0  0  0  0  0  0  0  0  0  0  0
   10.6702   -3.9051   22.4070 C   0  0  0  0  0  0  0  0  0  0  0  0
   11.0625   -3.0028   18.8894 C   0  0  0  0  0  0  0  0  0  0  0  0
    5.6180   -7.9194   16.1754 O   0  0  0  0  0  0  0  0  0  0  0  0
    9.7259   -5.3080   18.4485 C   0  0  0  0  0  0  0  0  0  0  0  0
    9.4578   -5.0200   16.3036 N   0  0  0  0  0  0  0  0  0  0  0  0
    5.0287   -8.9365   16.8223 C   0  0  0  0  0  0  0  0  0  0  0  0
    8.7742   -6.1498   16.6764 C   0  0  0  0  0  0  0  0  0  0  0  0
   10.9418   -3.4032   21.2053 O   0  0  0  0  0  0  0  0  0  0  0  0
    1.4797   -8.6258   16.2950 C   0  0  0  0  0  0  0  0  0  0  0  0
    9.2861   -1.2743   25.3585 C   0  0  0  0  0  0  0  0  0  0  0  0
    1.8892  -10.3985   17.7511 N   0  0  0  0  0  0  0  0  0  0  0  0
    9.6210   -0.6952   24.0976 C   0  0  0  0  0  0  0  0  0  0  0  0
    7.0792   -9.0217   17.1429 C   0  0  0  0  0  0  0  0  0  0  0  0
    3.1713  -10.1816   17.6634 C   0  0  0  0  0  0  0  0  0  0  0  0
    2.7878   -8.3822   16.2137 C   0  0  0  0  0  0  0  0  0  0  0  0
    9.4601   -2.6590   25.6528 C   0  0  0  0  0  0  0  0  0  0  0  0
   10.1182   -1.5672   23.1165 C   0  0  0  0  0  0  0  0  0  0  0  0
    1.0552   -9.6360   17.0650 C   0  0  0  0  0  0  0  0  0  0  0  0
    3.6519   -9.1783   16.9039 C   0  0  0  0  0  0  0  0  0  0  0  0
    7.8675   -7.0096   15.9415 C   0  0  0  0  0  0  0  0  0  0  0  0
    5.9733   -9.6553   17.3832 N   0  0  0  0  0  0  0  0  0  0  0  0
   10.2411   -2.9363   23.4301 C   0  0  0  0  0  0  0  0  0  0  0  0
   10.7288   -3.8197   19.9525 C   0  0  0  0  0  0  0  0  0  0  0  0
   10.1189   -5.0054   19.6987 C   0  0  0  0  0  0  0  0  0  0  0  0
  1  3  4  0
  1  7  4  0
  2 21  4  0
  2 27  4  0
  3  9  4  0
  3 10  4  0
  4  8  4  0
  4 18  4  0
  4 25  1  0
  5  9  4  0
  5 12  4  0
  6 13  1  0
  6 27  1  0
  7 28  4  0
  8 11  4  0
  9 29  4  0
 10 12  4  0
 11 24  1  0
 11 26  4  0
 12 25  1  0
 13 28  1  0
 14 20  4  0
 14 23  4  0
 15 17  4  0
 15 21  4  0
 16 19  4  0
 16 23  4  0
 17 22  4  0
 18 26  4  0
 19 24  4  0
 20 24  4  0
 22 27  4  0
 28 29  4  0
M  END
$$$$

 Created by Python create_sdf_string function

 29 33  0  0  0  0  0  0  0  0999 V2000
   10.7215   -3.3326   17.6437 C   0  0  0  0  0  0  0  0  0  0  0  0
    9.9489   -3.4675   24.6487 N   0  0  0  0  0  0  0  0  0  0  0  0
   10.0172   -4.4740   17.4101 C   0  0  0  0  0  0  0  0  0  0  0  0
    6.9051   -7.9575   16.4222 C   0  0  0  0  0  0  0  0  0  0  0  0
    8.9969   -6.3552   17.9668 N   0  0  0  0  0  0  0  0  0  0  0  0
   10.6702   -3.9051   22.4070 C   0  0  0  0  0  0  0  0  0  0  0  0
   11.0625   -3.0028   18.8894 C   0  0  0  0  0  0  0  0  0  0  0  0
    5.6180   -7.9194   16.1754 O   0  0  0  0  0  0  0  0  0  0  0  0
    9.7259   -5.3080   18.4485 C   0  0  0  0  0  0  0  0  0  0  0  0
    9.4578   -5.0200   16.3036 N   0  0  0  0  0  0  0  0  0  0  0  0
    5.0287   -8.9365   16.8223 C   0  0  0  0  0  0  0  0  0  0  0  0
    8.7742   -6.1498   16.6764 C   0  0  0  0  0  0  0  0  0  0  0  0
   10.9418   -3.4032   21.2053 O   0  0  0  0  0  0  0  0  0  0  0  0
    1.4797   -8.6258   16.2950 C   0  0  0  0  0  0  0  0  0  0  0  0
    9.2861   -1.2743   25.3585 C   0  0  0  0  0  0  0  0  0  0  0  0
    1.8892  -10.3985   17.7511 N   0  0  0  0  0  0  0  0  0  0  0  0
    9.6210   -0.6952   24.0976 C   0  0  0  0  0  0  0  0  0  0  0  0
    7.0792   -9.0217   17.1429 C   0  0  0  0  0  0  0  0  0  0  0  0
    3.1713  -10.1816   17.6634 C   0  0  0  0  0  0  0  0  0  0  0  0
    2.7878   -8.3822   16.2137 C   0  0  0  0  0  0  0  0  0  0  0  0
    9.4601   -2.6590   25.6528 C   0  0  0  0  0  0  0  0  0  0  0  0
   10.1182   -1.5672   23.1165 C   0  0  0  0  0  0  0  0  0  0  0  0
    1.0552   -9.6360   17.0650 C   0  0  0  0  0  0  0  0  0  0  0  0
    3.6519   -9.1783   16.9039 C   0  0  0  0  0  0  0  0  0  0  0  0
    7.8675   -7.0096   15.9415 C   0  0  0  0  0  0  0  0  0  0  0  0
    5.9733   -9.6553   17.3832 N   0  0  0  0  0  0  0  0  0  0  0  0
   10.2411   -2.9363   23.4301 C   0  0  0  0  0  0  0  0  0  0  0  0
   10.7288   -3.8197   19.9525 C   0  0  0  0  0  0  0  0  0  0  0  0
   10.1189   -5.0054   19.6987 C   0  0  0  0  0  0  0  0  0  0  0  0
  1  3  4  0
  1  7  4  0
  2 21  4  0
  2 27  4  0
  3  9  4  0
  3 10  4  0
  4  8  4  0
  4 18  4  0
  4 25  1  0
  5  9  4  0
  5 12  4  0
  6 13  1  0
  6 27  1  0
  7 28  4  0
  8 11  4  0
  9 29  4  0
 10 12  4  0
 11 24  1  0
 11 26  4  0
 12 25  1  0
 13 28  1  0
 14 20  4  0
 14 23  4  0
 15 17  4  0
 15 21  4  0
 16 19  4  0
 16 23  4  0
 17 22  4  0
 18 26  4  0
 19 24  4  0
 20 24  4  0
 22 27  4  0
 28 29  4  0
M  END
$$$$

 Created by Python create_sdf_string function

 29 33  0  0  0  0  0  0  0  0999 V2000
   10.7215   -3.3326   17.6437 C   0  0  0  0  0  0  0  0  0  0  0  0
    9.9489   -3.4675   24.6487 N   0  0  0  0  0  0  0  0  0  0  0  0
   10.0172   -4.4740   17.4101 C   0  0  0  0  0  0  0  0  0  0  0  0
    6.9051   -7.9575   16.4222 C   0  0  0  0  0  0  0  0  0  0  0  0
    8.9969   -6.3552   17.9668 N   0  0  0  0  0  0  0  0  0  0  0  0
   10.6702   -3.9051   22.4070 C   0  0  0  0  0  0  0  0  0  0  0  0
   11.0625   -3.0028   18.8894 C   0  0  0  0  0  0  0  0  0  0  0  0
    5.6180   -7.9194   16.1754 O   0  0  0  0  0  0  0  0  0  0  0  0
    9.7259   -5.3080   18.4485 C   0  0  0  0  0  0  0  0  0  0  0  0
    9.4578   -5.0200   16.3036 N   0  0  0  0  0  0  0  0  0  0  0  0
    5.0287   -8.9365   16.8223 C   0  0  0  0  0  0  0  0  0  0  0  0
    8.7742   -6.1498   16.6764 C   0  0  0  0  0  0  0  0  0  0  0  0
   10.9418   -3.4032   21.2053 O   0  0  0  0  0  0  0  0  0  0  0  0
    1.4797   -8.6258   16.2950 C   0  0  0  0  0  0  0  0  0  0  0  0
    9.2861   -1.2743   25.3585 C   0  0  0  0  0  0  0  0  0  0  0  0
    1.8892  -10.3985   17.7511 N   0  0  0  0  0  0  0  0  0  0  0  0
    9.6210   -0.6952   24.0976 C   0  0  0  0  0  0  0  0  0  0  0  0
    7.0792   -9.0217   17.1429 C   0  0  0  0  0  0  0  0  0  0  0  0
    3.1713  -10.1816   17.6634 C   0  0  0  0  0  0  0  0  0  0  0  0
    2.7878   -8.3822   16.2137 C   0  0  0  0  0  0  0  0  0  0  0  0
    9.4601   -2.6590   25.6528 C   0  0  0  0  0  0  0  0  0  0  0  0
   10.1182   -1.5672   23.1165 C   0  0  0  0  0  0  0  0  0  0  0  0
    1.0552   -9.6360   17.0650 C   0  0  0  0  0  0  0  0  0  0  0  0
    3.6519   -9.1783   16.9039 C   0  0  0  0  0  0  0  0  0  0  0  0
    7.8675   -7.0096   15.9415 C   0  0  0  0  0  0  0  0  0  0  0  0
    5.9733   -9.6553   17.3832 N   0  0  0  0  0  0  0  0  0  0  0  0
   10.2411   -2.9363   23.4301 C   0  0  0  0  0  0  0  0  0  0  0  0
   10.7288   -3.8197   19.9525 C   0  0  0  0  0  0  0  0  0  0  0  0
   10.1189   -5.0054   19.6987 C   0  0  0  0  0  0  0  0  0  0  0  0
  1  3  4  0
  1  7  4  0
  2 21  4  0
  2 27  4  0
  3  9  4  0
  3 10  4  0
  4  8  4  0
  4 18  4  0
  4 25  1  0
  5  9  4  0
  5 12  4  0
  6 13  1  0
  6 27  1  0
  7 28  4  0
  8 11  4  0
  9 29  4  0
 10 12  4  0
 11 24  1  0
 11 26  4  0
 12 25  1  0
 13 28  1  0
 14 20  4  0
 14 23  4  0
 15 17  4  0
 15 21  4  0
 16 19  4  0
 16 23  4  0
 17 22  4  0
 18 26  4  0
 19 24  4  0
 20 24  4  0
 22 27  4  0
 28 29  4  0
M  END
$$$$

 Created by Python create_sdf_string function

 29 33  0  0  0  0  0  0  0  0999 V2000
   10.7215   -3.3326   17.6437 C   0  0  0  0  0  0  0  0  0  0  0  0
    9.9489   -3.4675   24.6487 N   0  0  0  0  0  0  0  0  0  0  0  0
   10.0172   -4.4740   17.4101 C   0  0  0  0  0  0  0  0  0  0  0  0
    6.9051   -7.9575   16.4222 C   0  0  0  0  0  0  0  0  0  0  0  0
    8.9969   -6.3552   17.9668 N   0  0  0  0  0  0  0  0  0  0  0  0
   10.6702   -3.9051   22.4070 C   0  0  0  0  0  0  0  0  0  0  0  0
   11.0625   -3.0028   18.8894 C   0  0  0  0  0  0  0  0  0  0  0  0
    5.6180   -7.9194   16.1754 O   0  0  0  0  0  0  0  0  0  0  0  0
    9.7259   -5.3080   18.4485 C   0  0  0  0  0  0  0  0  0  0  0  0
    9.4578   -5.0200   16.3036 N   0  0  0  0  0  0  0  0  0  0  0  0
    5.0287   -8.9365   16.8223 C   0  0  0  0  0  0  0  0  0  0  0  0
    8.7742   -6.1498   16.6764 C   0  0  0  0  0  0  0  0  0  0  0  0
   10.9418   -3.4032   21.2053 O   0  0  0  0  0  0  0  0  0  0  0  0
    1.4797   -8.6258   16.2950 C   0  0  0  0  0  0  0  0  0  0  0  0
    9.2861   -1.2743   25.3585 C   0  0  0  0  0  0  0  0  0  0  0  0
    1.8892  -10.3985   17.7511 N   0  0  0  0  0  0  0  0  0  0  0  0
    9.6210   -0.6952   24.0976 C   0  0  0  0  0  0  0  0  0  0  0  0
    7.0792   -9.0217   17.1429 C   0  0  0  0  0  0  0  0  0  0  0  0
    3.1713  -10.1816   17.6634 C   0  0  0  0  0  0  0  0  0  0  0  0
    2.7878   -8.3822   16.2137 C   0  0  0  0  0  0  0  0  0  0  0  0
    9.4601   -2.6590   25.6528 C   0  0  0  0  0  0  0  0  0  0  0  0
   10.1182   -1.5672   23.1165 C   0  0  0  0  0  0  0  0  0  0  0  0
    1.0552   -9.6360   17.0650 C   0  0  0  0  0  0  0  0  0  0  0  0
    3.6519   -9.1783   16.9039 C   0  0  0  0  0  0  0  0  0  0  0  0
    7.8675   -7.0096   15.9415 C   0  0  0  0  0  0  0  0  0  0  0  0
    5.9733   -9.6553   17.3832 N   0  0  0  0  0  0  0  0  0  0  0  0
   10.2411   -2.9363   23.4301 C   0  0  0  0  0  0  0  0  0  0  0  0
   10.7288   -3.8197   19.9525 C   0  0  0  0  0  0  0  0  0  0  0  0
   10.1189   -5.0054   19.6987 C   0  0  0  0  0  0  0  0  0  0  0  0
  1  3  4  0
  1  7  4  0
  2 21  4  0
  2 27  4  0
  3  9  4  0
  3 10  4  0
  4  8  4  0
  4 18  4  0
  4 25  1  0
  5  9  4  0
  5 12  4  0
  6 13  1  0
  6 27  1  0
  7 28  4  0
  8 11  4  0
  9 29  4  0
 10 12  4  0
 11 24  1  0
 11 26  4  0
 12 25  1  0
 13 28  1  0
 14 20  4  0
 14 23  4  0
 15 17  4  0
 15 21  4  0
 16 19  4  0
 16 23  4  0
 17 22  4  0
 18 26  4  0
 19 24  4  0
 20 24  4  0
 22 27  4  0
 28 29  4  0
M  END
$$$$

 Created by Python create_sdf_string function

 29 33  0  0  0  0  0  0  0  0999 V2000
   10.7215   -3.3326   17.6437 C   0  0  0  0  0  0  0  0  0  0  0  0
    9.9489   -3.4675   24.6487 N   0  0  0  0  0  0  0  0  0  0  0  0
   10.0172   -4.4740   17.4101 C   0  0  0  0  0  0  0  0  0  0  0  0
    6.9051   -7.9575   16.4222 C   0  0  0  0  0  0  0  0  0  0  0  0
    8.9969   -6.3552   17.9668 N   0  0  0  0  0  0  0  0  0  0  0  0
   10.6702   -3.9051   22.4070 C   0  0  0  0  0  0  0  0  0  0  0  0
   11.0625   -3.0028   18.8894 C   0  0  0  0  0  0  0  0  0  0  0  0
    5.6180   -7.9194   16.1754 O   0  0  0  0  0  0  0  0  0  0  0  0
    9.7259   -5.3080   18.4485 C   0  0  0  0  0  0  0  0  0  0  0  0
    9.4578   -5.0200   16.3036 N   0  0  0  0  0  0  0  0  0  0  0  0
    5.0287   -8.9365   16.8223 C   0  0  0  0  0  0  0  0  0  0  0  0
    8.7742   -6.1498   16.6764 C   0  0  0  0  0  0  0  0  0  0  0  0
   10.9418   -3.4032   21.2053 O   0  0  0  0  0  0  0  0  0  0  0  0
    1.4797   -8.6258   16.2950 C   0  0  0  0  0  0  0  0  0  0  0  0
    9.2861   -1.2743   25.3585 C   0  0  0  0  0  0  0  0  0  0  0  0
    1.8892  -10.3985   17.7511 N   0  0  0  0  0  0  0  0  0  0  0  0
    9.6210   -0.6952   24.0976 C   0  0  0  0  0  0  0  0  0  0  0  0
    7.0792   -9.0217   17.1429 C   0  0  0  0  0  0  0  0  0  0  0  0
    3.1713  -10.1816   17.6634 C   0  0  0  0  0  0  0  0  0  0  0  0
    2.7878   -8.3822   16.2137 C   0  0  0  0  0  0  0  0  0  0  0  0
    9.4601   -2.6590   25.6528 C   0  0  0  0  0  0  0  0  0  0  0  0
   10.1182   -1.5672   23.1165 C   0  0  0  0  0  0  0  0  0  0  0  0
    1.0552   -9.6360   17.0650 C   0  0  0  0  0  0  0  0  0  0  0  0
    3.6519   -9.1783   16.9039 C   0  0  0  0  0  0  0  0  0  0  0  0
    7.8675   -7.0096   15.9415 C   0  0  0  0  0  0  0  0  0  0  0  0
    5.9733   -9.6553   17.3832 N   0  0  0  0  0  0  0  0  0  0  0  0
   10.2411   -2.9363   23.4301 C   0  0  0  0  0  0  0  0  0  0  0  0
   10.7288   -3.8197   19.9525 C   0  0  0  0  0  0  0  0  0  0  0  0
   10.1189   -5.0054   19.6987 C   0  0  0  0  0  0  0  0  0  0  0  0
  1  3  4  0
  1  7  4  0
  2 21  4  0
  2 27  4  0
  3  9  4  0
  3 10  4  0
  4  8  4  0
  4 18  4  0
  4 25  1  0
  5  9  4  0
  5 12  4  0
  6 13  1  0
  6 27  1  0
  7 28  4  0
  8 11  4  0
  9 29  4  0
 10 12  4  0
 11 24  1  0
 11 26  4  0
 12 25  1  0
 13 28  1  0
 14 20  4  0
 14 23  4  0
 15 17  4  0
 15 21  4  0
 16 19  4  0
 16 23  4  0
 17 22  4  0
 18 26  4  0
 19 24  4  0
 20 24  4  0
 22 27  4  0
 28 29  4  0
M  END
$$$$

 Created by Python create_sdf_string function

 29 33  0  0  0  0  0  0  0  0999 V2000
   10.7215   -3.3326   17.6437 C   0  0  0  0  0  0  0  0  0  0  0  0
    9.9489   -3.4675   24.6487 N   0  0  0  0  0  0  0  0  0  0  0  0
   10.0172   -4.4740   17.4101 C   0  0  0  0  0  0  0  0  0  0  0  0
    6.9051   -7.9575   16.4222 C   0  0  0  0  0  0  0  0  0  0  0  0
    8.9969   -6.3552   17.9668 N   0  0  0  0  0  0  0  0  0  0  0  0
   10.6702   -3.9051   22.4070 C   0  0  0  0  0  0  0  0  0  0  0  0
   11.0625   -3.0028   18.8894 C   0  0  0  0  0  0  0  0  0  0  0  0
    5.6180   -7.9194   16.1754 O   0  0  0  0  0  0  0  0  0  0  0  0
    9.7259   -5.3080   18.4485 C   0  0  0  0  0  0  0  0  0  0  0  0
    9.4578   -5.0200   16.3036 N   0  0  0  0  0  0  0  0  0  0  0  0
    5.0287   -8.9365   16.8223 C   0  0  0  0  0  0  0  0  0  0  0  0
    8.7742   -6.1498   16.6764 C   0  0  0  0  0  0  0  0  0  0  0  0
   10.9418   -3.4032   21.2053 O   0  0  0  0  0  0  0  0  0  0  0  0
    1.4797   -8.6258   16.2950 C   0  0  0  0  0  0  0  0  0  0  0  0
    9.2861   -1.2743   25.3585 C   0  0  0  0  0  0  0  0  0  0  0  0
    1.8892  -10.3985   17.7511 N   0  0  0  0  0  0  0  0  0  0  0  0
    9.6210   -0.6952   24.0976 C   0  0  0  0  0  0  0  0  0  0  0  0
    7.0792   -9.0217   17.1429 C   0  0  0  0  0  0  0  0  0  0  0  0
    3.1713  -10.1816   17.6634 C   0  0  0  0  0  0  0  0  0  0  0  0
    2.7878   -8.3822   16.2137 C   0  0  0  0  0  0  0  0  0  0  0  0
    9.4601   -2.6590   25.6528 C   0  0  0  0  0  0  0  0  0  0  0  0
   10.1182   -1.5672   23.1165 C   0  0  0  0  0  0  0  0  0  0  0  0
    1.0552   -9.6360   17.0650 C   0  0  0  0  0  0  0  0  0  0  0  0
    3.6519   -9.1783   16.9039 C   0  0  0  0  0  0  0  0  0  0  0  0
    7.8675   -7.0096   15.9415 C   0  0  0  0  0  0  0  0  0  0  0  0
    5.9733   -9.6553   17.3832 N   0  0  0  0  0  0  0  0  0  0  0  0
   10.2411   -2.9363   23.4301 C   0  0  0  0  0  0  0  0  0  0  0  0
   10.7288   -3.8197   19.9525 C   0  0  0  0  0  0  0  0  0  0  0  0
   10.1189   -5.0054   19.6987 C   0  0  0  0  0  0  0  0  0  0  0  0
  1  3  4  0
  1  7  4  0
  2 21  4  0
  2 27  4  0
  3  9  4  0
  3 10  4  0
  4  8  4  0
  4 18  4  0
  4 25  1  0
  5  9  4  0
  5 12  4  0
  6 13  1  0
  6 27  1  0
  7 28  4  0
  8 11  4  0
  9 29  4  0
 10 12  4  0
 11 24  1  0
 11 26  4  0
 12 25  1  0
 13 28  1  0
 14 20  4  0
 14 23  4  0
 15 17  4  0
 15 21  4  0
 16 19  4  0
 16 23  4  0
 17 22  4  0
 18 26  4  0
 19 24  4  0
 20 24  4  0
 22 27  4  0
 28 29  4  0
M  END
$$$$

 Created by Python create_sdf_string function

 29 33  0  0  0  0  0  0  0  0999 V2000
   10.7215   -3.3326   17.6437 C   0  0  0  0  0  0  0  0  0  0  0  0
    9.9489   -3.4675   24.6487 N   0  0  0  0  0  0  0  0  0  0  0  0
   10.0172   -4.4740   17.4101 C   0  0  0  0  0  0  0  0  0  0  0  0
    6.9051   -7.9575   16.4222 C   0  0  0  0  0  0  0  0  0  0  0  0
    8.9969   -6.3552   17.9668 N   0  0  0  0  0  0  0  0  0  0  0  0
   10.6702   -3.9051   22.4070 C   0  0  0  0  0  0  0  0  0  0  0  0
   11.0625   -3.0028   18.8894 C   0  0  0  0  0  0  0  0  0  0  0  0
    5.6180   -7.9194   16.1754 O   0  0  0  0  0  0  0  0  0  0  0  0
    9.7259   -5.3080   18.4485 C   0  0  0  0  0  0  0  0  0  0  0  0
    9.4578   -5.0200   16.3036 N   0  0  0  0  0  0  0  0  0  0  0  0
    5.0287   -8.9365   16.8223 C   0  0  0  0  0  0  0  0  0  0  0  0
    8.7742   -6.1498   16.6764 C   0  0  0  0  0  0  0  0  0  0  0  0
   10.9418   -3.4032   21.2053 O   0  0  0  0  0  0  0  0  0  0  0  0
    1.4797   -8.6258   16.2950 C   0  0  0  0  0  0  0  0  0  0  0  0
    9.2861   -1.2743   25.3585 C   0  0  0  0  0  0  0  0  0  0  0  0
    1.8892  -10.3985   17.7511 N   0  0  0  0  0  0  0  0  0  0  0  0
    9.6210   -0.6952   24.0976 C   0  0  0  0  0  0  0  0  0  0  0  0
    7.0792   -9.0217   17.1429 C   0  0  0  0  0  0  0  0  0  0  0  0
    3.1713  -10.1816   17.6634 C   0  0  0  0  0  0  0  0  0  0  0  0
    2.7878   -8.3822   16.2137 C   0  0  0  0  0  0  0  0  0  0  0  0
    9.4601   -2.6590   25.6528 C   0  0  0  0  0  0  0  0  0  0  0  0
   10.1182   -1.5672   23.1165 C   0  0  0  0  0  0  0  0  0  0  0  0
    1.0552   -9.6360   17.0650 C   0  0  0  0  0  0  0  0  0  0  0  0
    3.6519   -9.1783   16.9039 C   0  0  0  0  0  0  0  0  0  0  0  0
    7.8675   -7.0096   15.9415 C   0  0  0  0  0  0  0  0  0  0  0  0
    5.9733   -9.6553   17.3832 N   0  0  0  0  0  0  0  0  0  0  0  0
   10.2411   -2.9363   23.4301 C   0  0  0  0  0  0  0  0  0  0  0  0
   10.7288   -3.8197   19.9525 C   0  0  0  0  0  0  0  0  0  0  0  0
   10.1189   -5.0054   19.6987 C   0  0  0  0  0  0  0  0  0  0  0  0
  1  3  4  0
  1  7  4  0
  2 21  4  0
  2 27  4  0
  3  9  4  0
  3 10  4  0
  4  8  4  0
  4 18  4  0
  4 25  1  0
  5  9  4  0
  5 12  4  0
  6 13  1  0
  6 27  1  0
  7 28  4  0
  8 11  4  0
  9 29  4  0
 10 12  4  0
 11 24  1  0
 11 26  4  0
 12 25  1  0
 13 28  1  0
 14 20  4  0
 14 23  4  0
 15 17  4  0
 15 21  4  0
 16 19  4  0
 16 23  4  0
 17 22  4  0
 18 26  4  0
 19 24  4  0
 20 24  4  0
 22 27  4  0
 28 29  4  0
M  END
$$$$

 Created by Python create_sdf_string function

 29 33  0  0  0  0  0  0  0  0999 V2000
   10.7215   -3.3326   17.6437 C   0  0  0  0  0  0  0  0  0  0  0  0
    9.9489   -3.4675   24.6487 N   0  0  0  0  0  0  0  0  0  0  0  0
   10.0172   -4.4740   17.4101 C   0  0  0  0  0  0  0  0  0  0  0  0
    6.9051   -7.9575   16.4222 C   0  0  0  0  0  0  0  0  0  0  0  0
    8.9969   -6.3552   17.9668 N   0  0  0  0  0  0  0  0  0  0  0  0
   10.6702   -3.9051   22.4070 C   0  0  0  0  0  0  0  0  0  0  0  0
   11.0625   -3.0028   18.8894 C   0  0  0  0  0  0  0  0  0  0  0  0
    5.6180   -7.9194   16.1754 O   0  0  0  0  0  0  0  0  0  0  0  0
    9.7259   -5.3080   18.4485 C   0  0  0  0  0  0  0  0  0  0  0  0
    9.4578   -5.0200   16.3036 N   0  0  0  0  0  0  0  0  0  0  0  0
    5.0287   -8.9365   16.8223 C   0  0  0  0  0  0  0  0  0  0  0  0
    8.7742   -6.1498   16.6764 C   0  0  0  0  0  0  0  0  0  0  0  0
   10.9418   -3.4032   21.2053 O   0  0  0  0  0  0  0  0  0  0  0  0
    1.4797   -8.6258   16.2950 C   0  0  0  0  0  0  0  0  0  0  0  0
    9.2861   -1.2743   25.3585 C   0  0  0  0  0  0  0  0  0  0  0  0
    1.8892  -10.3985   17.7511 N   0  0  0  0  0  0  0  0  0  0  0  0
    9.6210   -0.6952   24.0976 C   0  0  0  0  0  0  0  0  0  0  0  0
    7.0792   -9.0217   17.1429 C   0  0  0  0  0  0  0  0  0  0  0  0
    3.1713  -10.1816   17.6634 C   0  0  0  0  0  0  0  0  0  0  0  0
    2.7878   -8.3822   16.2137 C   0  0  0  0  0  0  0  0  0  0  0  0
    9.4601   -2.6590   25.6528 C   0  0  0  0  0  0  0  0  0  0  0  0
   10.1182   -1.5672   23.1165 C   0  0  0  0  0  0  0  0  0  0  0  0
    1.0552   -9.6360   17.0650 C   0  0  0  0  0  0  0  0  0  0  0  0
    3.6519   -9.1783   16.9039 C   0  0  0  0  0  0  0  0  0  0  0  0
    7.8675   -7.0096   15.9415 C   0  0  0  0  0  0  0  0  0  0  0  0
    5.9733   -9.6553   17.3832 N   0  0  0  0  0  0  0  0  0  0  0  0
   10.2411   -2.9363   23.4301 C   0  0  0  0  0  0  0  0  0  0  0  0
   10.7288   -3.8197   19.9525 C   0  0  0  0  0  0  0  0  0  0  0  0
   10.1189   -5.0054   19.6987 C   0  0  0  0  0  0  0  0  0  0  0  0
  1  3  4  0
  1  7  4  0
  2 21  4  0
  2 27  4  0
  3  9  4  0
  3 10  4  0
  4  8  4  0
  4 18  4  0
  4 25  1  0
  5  9  4  0
  5 12  4  0
  6 13  1  0
  6 27  1  0
  7 28  4  0
  8 11  4  0
  9 29  4  0
 10 12  4  0
 11 24  1  0
 11 26  4  0
 12 25  1  0
 13 28  1  0
 14 20  4  0
 14 23  4  0
 15 17  4  0
 15 21  4  0
 16 19  4  0
 16 23  4  0
 17 22  4  0
 18 26  4  0
 19 24  4  0
 20 24  4  0
 22 27  4  0
 28 29  4  0
M  END
$$$$

 Created by Python create_sdf_string function

 29 33  0  0  0  0  0  0  0  0999 V2000
   10.7215   -3.3326   17.6437 C   0  0  0  0  0  0  0  0  0  0  0  0
    9.9489   -3.4675   24.6487 N   0  0  0  0  0  0  0  0  0  0  0  0
   10.0172   -4.4740   17.4101 C   0  0  0  0  0  0  0  0  0  0  0  0
    6.9051   -7.9575   16.4222 C   0  0  0  0  0  0  0  0  0  0  0  0
    8.9969   -6.3552   17.9668 N   0  0  0  0  0  0  0  0  0  0  0  0
   10.6702   -3.9051   22.4070 C   0  0  0  0  0  0  0  0  0  0  0  0
   11.0625   -3.0028   18.8894 C   0  0  0  0  0  0  0  0  0  0  0  0
    5.6180   -7.9194   16.1754 O   0  0  0  0  0  0  0  0  0  0  0  0
    9.7259   -5.3080   18.4485 C   0  0  0  0  0  0  0  0  0  0  0  0
    9.4578   -5.0200   16.3036 N   0  0  0  0  0  0  0  0  0  0  0  0
    5.0287   -8.9365   16.8223 C   0  0  0  0  0  0  0  0  0  0  0  0
    8.7742   -6.1498   16.6764 C   0  0  0  0  0  0  0  0  0  0  0  0
   10.9418   -3.4032   21.2053 O   0  0  0  0  0  0  0  0  0  0  0  0
    1.4797   -8.6258   16.2950 C   0  0  0  0  0  0  0  0  0  0  0  0
    9.2861   -1.2743   25.3585 C   0  0  0  0  0  0  0  0  0  0  0  0
    1.8892  -10.3985   17.7511 N   0  0  0  0  0  0  0  0  0  0  0  0
    9.6210   -0.6952   24.0976 C   0  0  0  0  0  0  0  0  0  0  0  0
    7.0792   -9.0217   17.1429 C   0  0  0  0  0  0  0  0  0  0  0  0
    3.1713  -10.1816   17.6634 C   0  0  0  0  0  0  0  0  0  0  0  0
    2.7878   -8.3822   16.2137 C   0  0  0  0  0  0  0  0  0  0  0  0
    9.4601   -2.6590   25.6528 C   0  0  0  0  0  0  0  0  0  0  0  0
   10.1182   -1.5672   23.1165 C   0  0  0  0  0  0  0  0  0  0  0  0
    1.0552   -9.6360   17.0650 C   0  0  0  0  0  0  0  0  0  0  0  0
    3.6519   -9.1783   16.9039 C   0  0  0  0  0  0  0  0  0  0  0  0
    7.8675   -7.0096   15.9415 C   0  0  0  0  0  0  0  0  0  0  0  0
    5.9733   -9.6553   17.3832 N   0  0  0  0  0  0  0  0  0  0  0  0
   10.2411   -2.9363   23.4301 C   0  0  0  0  0  0  0  0  0  0  0  0
   10.7288   -3.8197   19.9525 C   0  0  0  0  0  0  0  0  0  0  0  0
   10.1189   -5.0054   19.6987 C   0  0  0  0  0  0  0  0  0  0  0  0
  1  3  4  0
  1  7  4  0
  2 21  4  0
  2 27  4  0
  3  9  4  0
  3 10  4  0
  4  8  4  0
  4 18  4  0
  4 25  1  0
  5  9  4  0
  5 12  4  0
  6 13  1  0
  6 27  1  0
  7 28  4  0
  8 11  4  0
  9 29  4  0
 10 12  4  0
 11 24  1  0
 11 26  4  0
 12 25  1  0
 13 28  1  0
 14 20  4  0
 14 23  4  0
 15 17  4  0
 15 21  4  0
 16 19  4  0
 16 23  4  0
 17 22  4  0
 18 26  4  0
 19 24  4  0
 20 24  4  0
 22 27  4  0
 28 29  4  0
M  END
$$$$

 Created by Python create_sdf_string function

 29 33  0  0  0  0  0  0  0  0999 V2000
   10.7215   -3.3326   17.6437 C   0  0  0  0  0  0  0  0  0  0  0  0
    9.9489   -3.4675   24.6487 N   0  0  0  0  0  0  0  0  0  0  0  0
   10.0172   -4.4740   17.4101 C   0  0  0  0  0  0  0  0  0  0  0  0
    6.9051   -7.9575   16.4222 C   0  0  0  0  0  0  0  0  0  0  0  0
    8.9969   -6.3552   17.9668 N   0  0  0  0  0  0  0  0  0  0  0  0
   10.6702   -3.9051   22.4070 C   0  0  0  0  0  0  0  0  0  0  0  0
   11.0625   -3.0028   18.8894 C   0  0  0  0  0  0  0  0  0  0  0  0
    5.6180   -7.9194   16.1754 O   0  0  0  0  0  0  0  0  0  0  0  0
    9.7259   -5.3080   18.4485 C   0  0  0  0  0  0  0  0  0  0  0  0
    9.4578   -5.0200   16.3036 N   0  0  0  0  0  0  0  0  0  0  0  0
    5.0287   -8.9365   16.8223 C   0  0  0  0  0  0  0  0  0  0  0  0
    8.7742   -6.1498   16.6764 C   0  0  0  0  0  0  0  0  0  0  0  0
   10.9418   -3.4032   21.2053 O   0  0  0  0  0  0  0  0  0  0  0  0
    1.4797   -8.6258   16.2950 C   0  0  0  0  0  0  0  0  0  0  0  0
    9.2861   -1.2743   25.3585 C   0  0  0  0  0  0  0  0  0  0  0  0
    1.8892  -10.3985   17.7511 N   0  0  0  0  0  0  0  0  0  0  0  0
    9.6210   -0.6952   24.0976 C   0  0  0  0  0  0  0  0  0  0  0  0
    7.0792   -9.0217   17.1429 C   0  0  0  0  0  0  0  0  0  0  0  0
    3.1713  -10.1816   17.6634 C   0  0  0  0  0  0  0  0  0  0  0  0
    2.7878   -8.3822   16.2137 C   0  0  0  0  0  0  0  0  0  0  0  0
    9.4601   -2.6590   25.6528 C   0  0  0  0  0  0  0  0  0  0  0  0
   10.1182   -1.5672   23.1165 C   0  0  0  0  0  0  0  0  0  0  0  0
    1.0552   -9.6360   17.0650 C   0  0  0  0  0  0  0  0  0  0  0  0
    3.6519   -9.1783   16.9039 C   0  0  0  0  0  0  0  0  0  0  0  0
    7.8675   -7.0096   15.9415 C   0  0  0  0  0  0  0  0  0  0  0  0
    5.9733   -9.6553   17.3832 N   0  0  0  0  0  0  0  0  0  0  0  0
   10.2411   -2.9363   23.4301 C   0  0  0  0  0  0  0  0  0  0  0  0
   10.7288   -3.8197   19.9525 C   0  0  0  0  0  0  0  0  0  0  0  0
   10.1189   -5.0054   19.6987 C   0  0  0  0  0  0  0  0  0  0  0  0
  1  3  4  0
  1  7  4  0
  2 21  4  0
  2 27  4  0
  3  9  4  0
  3 10  4  0
  4  8  4  0
  4 18  4  0
  4 25  1  0
  5  9  4  0
  5 12  4  0
  6 13  1  0
  6 27  1  0
  7 28  4  0
  8 11  4  0
  9 29  4  0
 10 12  4  0
 11 24  1  0
 11 26  4  0
 12 25  1  0
 13 28  1  0
 14 20  4  0
 14 23  4  0
 15 17  4  0
 15 21  4  0
 16 19  4  0
 16 23  4  0
 17 22  4  0
 18 26  4  0
 19 24  4  0
 20 24  4  0
 22 27  4  0
 28 29  4  0
M  END
$$$$

 Created by Python create_sdf_string function

 29 33  0  0  0  0  0  0  0  0999 V2000
   10.7215   -3.3326   17.6437 C   0  0  0  0  0  0  0  0  0  0  0  0
    9.9489   -3.4675   24.6487 N   0  0  0  0  0  0  0  0  0  0  0  0
   10.0172   -4.4740   17.4101 C   0  0  0  0  0  0  0  0  0  0  0  0
    6.9051   -7.9575   16.4222 C   0  0  0  0  0  0  0  0  0  0  0  0
    8.9969   -6.3552   17.9668 N   0  0  0  0  0  0  0  0  0  0  0  0
   10.6702   -3.9051   22.4070 C   0  0  0  0  0  0  0  0  0  0  0  0
   11.0625   -3.0028   18.8894 C   0  0  0  0  0  0  0  0  0  0  0  0
    5.6180   -7.9194   16.1754 O   0  0  0  0  0  0  0  0  0  0  0  0
    9.7259   -5.3080   18.4485 C   0  0  0  0  0  0  0  0  0  0  0  0
    9.4578   -5.0200   16.3036 N   0  0  0  0  0  0  0  0  0  0  0  0
    5.0287   -8.9365   16.8223 C   0  0  0  0  0  0  0  0  0  0  0  0
    8.7742   -6.1498   16.6764 C   0  0  0  0  0  0  0  0  0  0  0  0
   10.9418   -3.4032   21.2053 O   0  0  0  0  0  0  0  0  0  0  0  0
    1.4797   -8.6258   16.2950 C   0  0  0  0  0  0  0  0  0  0  0  0
    9.2861   -1.2743   25.3585 C   0  0  0  0  0  0  0  0  0  0  0  0
    1.8892  -10.3985   17.7511 N   0  0  0  0  0  0  0  0  0  0  0  0
    9.6210   -0.6952   24.0976 C   0  0  0  0  0  0  0  0  0  0  0  0
    7.0792   -9.0217   17.1429 C   0  0  0  0  0  0  0  0  0  0  0  0
    3.1713  -10.1816   17.6634 C   0  0  0  0  0  0  0  0  0  0  0  0
    2.7878   -8.3822   16.2137 C   0  0  0  0  0  0  0  0  0  0  0  0
    9.4601   -2.6590   25.6528 C   0  0  0  0  0  0  0  0  0  0  0  0
   10.1182   -1.5672   23.1165 C   0  0  0  0  0  0  0  0  0  0  0  0
    1.0552   -9.6360   17.0650 C   0  0  0  0  0  0  0  0  0  0  0  0
    3.6519   -9.1783   16.9039 C   0  0  0  0  0  0  0  0  0  0  0  0
    7.8675   -7.0096   15.9415 C   0  0  0  0  0  0  0  0  0  0  0  0
    5.9733   -9.6553   17.3832 N   0  0  0  0  0  0  0  0  0  0  0  0
   10.2411   -2.9363   23.4301 C   0  0  0  0  0  0  0  0  0  0  0  0
   10.7288   -3.8197   19.9525 C   0  0  0  0  0  0  0  0  0  0  0  0
   10.1189   -5.0054   19.6987 C   0  0  0  0  0  0  0  0  0  0  0  0
  1  3  4  0
  1  7  4  0
  2 21  4  0
  2 27  4  0
  3  9  4  0
  3 10  4  0
  4  8  4  0
  4 18  4  0
  4 25  1  0
  5  9  4  0
  5 12  4  0
  6 13  1  0
  6 27  1  0
  7 28  4  0
  8 11  4  0
  9 29  4  0
 10 12  4  0
 11 24  1  0
 11 26  4  0
 12 25  1  0
 13 28  1  0
 14 20  4  0
 14 23  4  0
 15 17  4  0
 15 21  4  0
 16 19  4  0
 16 23  4  0
 17 22  4  0
 18 26  4  0
 19 24  4  0
 20 24  4  0
 22 27  4  0
 28 29  4  0
M  END
$$$$

 Created by Python create_sdf_string function

 29 33  0  0  0  0  0  0  0  0999 V2000
   10.7215   -3.3326   17.6437 C   0  0  0  0  0  0  0  0  0  0  0  0
    9.9489   -3.4675   24.6487 N   0  0  0  0  0  0  0  0  0  0  0  0
   10.0172   -4.4740   17.4101 C   0  0  0  0  0  0  0  0  0  0  0  0
    6.9051   -7.9575   16.4222 C   0  0  0  0  0  0  0  0  0  0  0  0
    8.9969   -6.3552   17.9668 N   0  0  0  0  0  0  0  0  0  0  0  0
   10.6702   -3.9051   22.4070 C   0  0  0  0  0  0  0  0  0  0  0  0
   11.0625   -3.0028   18.8894 C   0  0  0  0  0  0  0  0  0  0  0  0
    5.6180   -7.9194   16.1754 O   0  0  0  0  0  0  0  0  0  0  0  0
    9.7259   -5.3080   18.4485 C   0  0  0  0  0  0  0  0  0  0  0  0
    9.4578   -5.0200   16.3036 N   0  0  0  0  0  0  0  0  0  0  0  0
    5.0287   -8.9365   16.8223 C   0  0  0  0  0  0  0  0  0  0  0  0
    8.7742   -6.1498   16.6764 C   0  0  0  0  0  0  0  0  0  0  0  0
   10.9418   -3.4032   21.2053 O   0  0  0  0  0  0  0  0  0  0  0  0
    1.4797   -8.6258   16.2950 C   0  0  0  0  0  0  0  0  0  0  0  0
    9.2861   -1.2743   25.3585 C   0  0  0  0  0  0  0  0  0  0  0  0
    1.8892  -10.3985   17.7511 N   0  0  0  0  0  0  0  0  0  0  0  0
    9.6210   -0.6952   24.0976 C   0  0  0  0  0  0  0  0  0  0  0  0
    7.0792   -9.0217   17.1429 C   0  0  0  0  0  0  0  0  0  0  0  0
    3.1713  -10.1816   17.6634 C   0  0  0  0  0  0  0  0  0  0  0  0
    2.7878   -8.3822   16.2137 C   0  0  0  0  0  0  0  0  0  0  0  0
    9.4601   -2.6590   25.6528 C   0  0  0  0  0  0  0  0  0  0  0  0
   10.1182   -1.5672   23.1165 C   0  0  0  0  0  0  0  0  0  0  0  0
    1.0552   -9.6360   17.0650 C   0  0  0  0  0  0  0  0  0  0  0  0
    3.6519   -9.1783   16.9039 C   0  0  0  0  0  0  0  0  0  0  0  0
    7.8675   -7.0096   15.9415 C   0  0  0  0  0  0  0  0  0  0  0  0
    5.9733   -9.6553   17.3832 N   0  0  0  0  0  0  0  0  0  0  0  0
   10.2411   -2.9363   23.4301 C   0  0  0  0  0  0  0  0  0  0  0  0
   10.7288   -3.8197   19.9525 C   0  0  0  0  0  0  0  0  0  0  0  0
   10.1189   -5.0054   19.6987 C   0  0  0  0  0  0  0  0  0  0  0  0
  1  3  4  0
  1  7  4  0
  2 21  4  0
  2 27  4  0
  3  9  4  0
  3 10  4  0
  4  8  4  0
  4 18  4  0
  4 25  1  0
  5  9  4  0
  5 12  4  0
  6 13  1  0
  6 27  1  0
  7 28  4  0
  8 11  4  0
  9 29  4  0
 10 12  4  0
 11 24  1  0
 11 26  4  0
 12 25  1  0
 13 28  1  0
 14 20  4  0
 14 23  4  0
 15 17  4  0
 15 21  4  0
 16 19  4  0
 16 23  4  0
 17 22  4  0
 18 26  4  0
 19 24  4  0
 20 24  4  0
 22 27  4  0
 28 29  4  0
M  END
$$$$

 Created by Python create_sdf_string function

 29 33  0  0  0  0  0  0  0  0999 V2000
   10.7215   -3.3326   17.6437 C   0  0  0  0  0  0  0  0  0  0  0  0
    9.9489   -3.4675   24.6487 N   0  0  0  0  0  0  0  0  0  0  0  0
   10.0172   -4.4740   17.4101 C   0  0  0  0  0  0  0  0  0  0  0  0
    6.9051   -7.9575   16.4222 C   0  0  0  0  0  0  0  0  0  0  0  0
    8.9969   -6.3552   17.9668 N   0  0  0  0  0  0  0  0  0  0  0  0
   10.6702   -3.9051   22.4070 C   0  0  0  0  0  0  0  0  0  0  0  0
   11.0625   -3.0028   18.8894 C   0  0  0  0  0  0  0  0  0  0  0  0
    5.6180   -7.9194   16.1754 O   0  0  0  0  0  0  0  0  0  0  0  0
    9.7259   -5.3080   18.4485 C   0  0  0  0  0  0  0  0  0  0  0  0
    9.4578   -5.0200   16.3036 N   0  0  0  0  0  0  0  0  0  0  0  0
    5.0287   -8.9365   16.8223 C   0  0  0  0  0  0  0  0  0  0  0  0
    8.7742   -6.1498   16.6764 C   0  0  0  0  0  0  0  0  0  0  0  0
   10.9418   -3.4032   21.2053 O   0  0  0  0  0  0  0  0  0  0  0  0
    1.4797   -8.6258   16.2950 C   0  0  0  0  0  0  0  0  0  0  0  0
    9.2861   -1.2743   25.3585 C   0  0  0  0  0  0  0  0  0  0  0  0
    1.8892  -10.3985   17.7511 N   0  0  0  0  0  0  0  0  0  0  0  0
    9.6210   -0.6952   24.0976 C   0  0  0  0  0  0  0  0  0  0  0  0
    7.0792   -9.0217   17.1429 C   0  0  0  0  0  0  0  0  0  0  0  0
    3.1713  -10.1816   17.6634 C   0  0  0  0  0  0  0  0  0  0  0  0
    2.7878   -8.3822   16.2137 C   0  0  0  0  0  0  0  0  0  0  0  0
    9.4601   -2.6590   25.6528 C   0  0  0  0  0  0  0  0  0  0  0  0
   10.1182   -1.5672   23.1165 C   0  0  0  0  0  0  0  0  0  0  0  0
    1.0552   -9.6360   17.0650 C   0  0  0  0  0  0  0  0  0  0  0  0
    3.6519   -9.1783   16.9039 C   0  0  0  0  0  0  0  0  0  0  0  0
    7.8675   -7.0096   15.9415 C   0  0  0  0  0  0  0  0  0  0  0  0
    5.9733   -9.6553   17.3832 N   0  0  0  0  0  0  0  0  0  0  0  0
   10.2411   -2.9363   23.4301 C   0  0  0  0  0  0  0  0  0  0  0  0
   10.7288   -3.8197   19.9525 C   0  0  0  0  0  0  0  0  0  0  0  0
   10.1189   -5.0054   19.6987 C   0  0  0  0  0  0  0  0  0  0  0  0
  1  3  4  0
  1  7  4  0
  2 21  4  0
  2 27  4  0
  3  9  4  0
  3 10  4  0
  4  8  4  0
  4 18  4  0
  4 25  1  0
  5  9  4  0
  5 12  4  0
  6 13  1  0
  6 27  1  0
  7 28  4  0
  8 11  4  0
  9 29  4  0
 10 12  4  0
 11 24  1  0
 11 26  4  0
 12 25  1  0
 13 28  1  0
 14 20  4  0
 14 23  4  0
 15 17  4  0
 15 21  4  0
 16 19  4  0
 16 23  4  0
 17 22  4  0
 18 26  4  0
 19 24  4  0
 20 24  4  0
 22 27  4  0
 28 29  4  0
M  END
$$$$

 Created by Python create_sdf_string function

 29 33  0  0  0  0  0  0  0  0999 V2000
   10.7215   -3.3326   17.6437 C   0  0  0  0  0  0  0  0  0  0  0  0
    9.9489   -3.4675   24.6487 N   0  0  0  0  0  0  0  0  0  0  0  0
   10.0172   -4.4740   17.4101 C   0  0  0  0  0  0  0  0  0  0  0  0
    6.9051   -7.9575   16.4222 C   0  0  0  0  0  0  0  0  0  0  0  0
    8.9969   -6.3552   17.9668 N   0  0  0  0  0  0  0  0  0  0  0  0
   10.6702   -3.9051   22.4070 C   0  0  0  0  0  0  0  0  0  0  0  0
   11.0625   -3.0028   18.8894 C   0  0  0  0  0  0  0  0  0  0  0  0
    5.6180   -7.9194   16.1754 O   0  0  0  0  0  0  0  0  0  0  0  0
    9.7259   -5.3080   18.4485 C   0  0  0  0  0  0  0  0  0  0  0  0
    9.4578   -5.0200   16.3036 N   0  0  0  0  0  0  0  0  0  0  0  0
    5.0287   -8.9365   16.8223 C   0  0  0  0  0  0  0  0  0  0  0  0
    8.7742   -6.1498   16.6764 C   0  0  0  0  0  0  0  0  0  0  0  0
   10.9418   -3.4032   21.2053 O   0  0  0  0  0  0  0  0  0  0  0  0
    1.4797   -8.6258   16.2950 C   0  0  0  0  0  0  0  0  0  0  0  0
    9.2861   -1.2743   25.3585 C   0  0  0  0  0  0  0  0  0  0  0  0
    1.8892  -10.3985   17.7511 N   0  0  0  0  0  0  0  0  0  0  0  0
    9.6210   -0.6952   24.0976 C   0  0  0  0  0  0  0  0  0  0  0  0
    7.0792   -9.0217   17.1429 C   0  0  0  0  0  0  0  0  0  0  0  0
    3.1713  -10.1816   17.6634 C   0  0  0  0  0  0  0  0  0  0  0  0
    2.7878   -8.3822   16.2137 C   0  0  0  0  0  0  0  0  0  0  0  0
    9.4601   -2.6590   25.6528 C   0  0  0  0  0  0  0  0  0  0  0  0
   10.1182   -1.5672   23.1165 C   0  0  0  0  0  0  0  0  0  0  0  0
    1.0552   -9.6360   17.0650 C   0  0  0  0  0  0  0  0  0  0  0  0
    3.6519   -9.1783   16.9039 C   0  0  0  0  0  0  0  0  0  0  0  0
    7.8675   -7.0096   15.9415 C   0  0  0  0  0  0  0  0  0  0  0  0
    5.9733   -9.6553   17.3832 N   0  0  0  0  0  0  0  0  0  0  0  0
   10.2411   -2.9363   23.4301 C   0  0  0  0  0  0  0  0  0  0  0  0
   10.7288   -3.8197   19.9525 C   0  0  0  0  0  0  0  0  0  0  0  0
   10.1189   -5.0054   19.6987 C   0  0  0  0  0  0  0  0  0  0  0  0
  1  3  4  0
  1  7  4  0
  2 21  4  0
  2 27  4  0
  3  9  4  0
  3 10  4  0
  4  8  4  0
  4 18  4  0
  4 25  1  0
  5  9  4  0
  5 12  4  0
  6 13  1  0
  6 27  1  0
  7 28  4  0
  8 11  4  0
  9 29  4  0
 10 12  4  0
 11 24  1  0
 11 26  4  0
 12 25  1  0
 13 28  1  0
 14 20  4  0
 14 23  4  0
 15 17  4  0
 15 21  4  0
 16 19  4  0
 16 23  4  0
 17 22  4  0
 18 26  4  0
 19 24  4  0
 20 24  4  0
 22 27  4  0
 28 29  4  0
M  END
$$$$

 Created by Python create_sdf_string function

 29 33  0  0  0  0  0  0  0  0999 V2000
   10.7215   -3.3326   17.6437 C   0  0  0  0  0  0  0  0  0  0  0  0
    9.9489   -3.4675   24.6487 N   0  0  0  0  0  0  0  0  0  0  0  0
   10.0172   -4.4740   17.4101 C   0  0  0  0  0  0  0  0  0  0  0  0
    6.9051   -7.9575   16.4222 C   0  0  0  0  0  0  0  0  0  0  0  0
    8.9969   -6.3552   17.9668 N   0  0  0  0  0  0  0  0  0  0  0  0
   10.6702   -3.9051   22.4070 C   0  0  0  0  0  0  0  0  0  0  0  0
   11.0625   -3.0028   18.8894 C   0  0  0  0  0  0  0  0  0  0  0  0
    5.6180   -7.9194   16.1754 O   0  0  0  0  0  0  0  0  0  0  0  0
    9.7259   -5.3080   18.4485 C   0  0  0  0  0  0  0  0  0  0  0  0
    9.4578   -5.0200   16.3036 N   0  0  0  0  0  0  0  0  0  0  0  0
    5.0287   -8.9365   16.8223 C   0  0  0  0  0  0  0  0  0  0  0  0
    8.7742   -6.1498   16.6764 C   0  0  0  0  0  0  0  0  0  0  0  0
   10.9418   -3.4032   21.2053 O   0  0  0  0  0  0  0  0  0  0  0  0
    1.4797   -8.6258   16.2950 C   0  0  0  0  0  0  0  0  0  0  0  0
    9.2861   -1.2743   25.3585 C   0  0  0  0  0  0  0  0  0  0  0  0
    1.8892  -10.3985   17.7511 N   0  0  0  0  0  0  0  0  0  0  0  0
    9.6210   -0.6952   24.0976 C   0  0  0  0  0  0  0  0  0  0  0  0
    7.0792   -9.0217   17.1429 C   0  0  0  0  0  0  0  0  0  0  0  0
    3.1713  -10.1816   17.6634 C   0  0  0  0  0  0  0  0  0  0  0  0
    2.7878   -8.3822   16.2137 C   0  0  0  0  0  0  0  0  0  0  0  0
    9.4601   -2.6590   25.6528 C   0  0  0  0  0  0  0  0  0  0  0  0
   10.1182   -1.5672   23.1165 C   0  0  0  0  0  0  0  0  0  0  0  0
    1.0552   -9.6360   17.0650 C   0  0  0  0  0  0  0  0  0  0  0  0
    3.6519   -9.1783   16.9039 C   0  0  0  0  0  0  0  0  0  0  0  0
    7.8675   -7.0096   15.9415 C   0  0  0  0  0  0  0  0  0  0  0  0
    5.9733   -9.6553   17.3832 N   0  0  0  0  0  0  0  0  0  0  0  0
   10.2411   -2.9363   23.4301 C   0  0  0  0  0  0  0  0  0  0  0  0
   10.7288   -3.8197   19.9525 C   0  0  0  0  0  0  0  0  0  0  0  0
   10.1189   -5.0054   19.6987 C   0  0  0  0  0  0  0  0  0  0  0  0
  1  3  4  0
  1  7  4  0
  2 21  4  0
  2 27  4  0
  3  9  4  0
  3 10  4  0
  4  8  4  0
  4 18  4  0
  4 25  1  0
  5  9  4  0
  5 12  4  0
  6 13  1  0
  6 27  1  0
  7 28  4  0
  8 11  4  0
  9 29  4  0
 10 12  4  0
 11 24  1  0
 11 26  4  0
 12 25  1  0
 13 28  1  0
 14 20  4  0
 14 23  4  0
 15 17  4  0
 15 21  4  0
 16 19  4  0
 16 23  4  0
 17 22  4  0
 18 26  4  0
 19 24  4  0
 20 24  4  0
 22 27  4  0
 28 29  4  0
M  END
$$$$

 Created by Python create_sdf_string function

 29 33  0  0  0  0  0  0  0  0999 V2000
   10.7215   -3.3326   17.6437 C   0  0  0  0  0  0  0  0  0  0  0  0
    9.9489   -3.4675   24.6487 N   0  0  0  0  0  0  0  0  0  0  0  0
   10.0172   -4.4740   17.4101 C   0  0  0  0  0  0  0  0  0  0  0  0
    6.9051   -7.9575   16.4222 C   0  0  0  0  0  0  0  0  0  0  0  0
    8.9969   -6.3552   17.9668 N   0  0  0  0  0  0  0  0  0  0  0  0
   10.6702   -3.9051   22.4070 C   0  0  0  0  0  0  0  0  0  0  0  0
   11.0625   -3.0028   18.8894 C   0  0  0  0  0  0  0  0  0  0  0  0
    5.6180   -7.9194   16.1754 O   0  0  0  0  0  0  0  0  0  0  0  0
    9.7259   -5.3080   18.4485 C   0  0  0  0  0  0  0  0  0  0  0  0
    9.4578   -5.0200   16.3036 N   0  0  0  0  0  0  0  0  0  0  0  0
    5.0287   -8.9365   16.8223 C   0  0  0  0  0  0  0  0  0  0  0  0
    8.7742   -6.1498   16.6764 C   0  0  0  0  0  0  0  0  0  0  0  0
   10.9418   -3.4032   21.2053 O   0  0  0  0  0  0  0  0  0  0  0  0
    1.4797   -8.6258   16.2950 C   0  0  0  0  0  0  0  0  0  0  0  0
    9.2861   -1.2743   25.3585 C   0  0  0  0  0  0  0  0  0  0  0  0
    1.8892  -10.3985   17.7511 N   0  0  0  0  0  0  0  0  0  0  0  0
    9.6210   -0.6952   24.0976 C   0  0  0  0  0  0  0  0  0  0  0  0
    7.0792   -9.0217   17.1429 C   0  0  0  0  0  0  0  0  0  0  0  0
    3.1713  -10.1816   17.6634 C   0  0  0  0  0  0  0  0  0  0  0  0
    2.7878   -8.3822   16.2137 C   0  0  0  0  0  0  0  0  0  0  0  0
    9.4601   -2.6590   25.6528 C   0  0  0  0  0  0  0  0  0  0  0  0
   10.1182   -1.5672   23.1165 C   0  0  0  0  0  0  0  0  0  0  0  0
    1.0552   -9.6360   17.0650 C   0  0  0  0  0  0  0  0  0  0  0  0
    3.6519   -9.1783   16.9039 C   0  0  0  0  0  0  0  0  0  0  0  0
    7.8675   -7.0096   15.9415 C   0  0  0  0  0  0  0  0  0  0  0  0
    5.9733   -9.6553   17.3832 N   0  0  0  0  0  0  0  0  0  0  0  0
   10.2411   -2.9363   23.4301 C   0  0  0  0  0  0  0  0  0  0  0  0
   10.7288   -3.8197   19.9525 C   0  0  0  0  0  0  0  0  0  0  0  0
   10.1189   -5.0054   19.6987 C   0  0  0  0  0  0  0  0  0  0  0  0
  1  3  4  0
  1  7  4  0
  2 21  4  0
  2 27  4  0
  3  9  4  0
  3 10  4  0
  4  8  4  0
  4 18  4  0
  4 25  1  0
  5  9  4  0
  5 12  4  0
  6 13  1  0
  6 27  1  0
  7 28  4  0
  8 11  4  0
  9 29  4  0
 10 12  4  0
 11 24  1  0
 11 26  4  0
 12 25  1  0
 13 28  1  0
 14 20  4  0
 14 23  4  0
 15 17  4  0
 15 21  4  0
 16 19  4  0
 16 23  4  0
 17 22  4  0
 18 26  4  0
 19 24  4  0
 20 24  4  0
 22 27  4  0
 28 29  4  0
M  END
$$$$

 Created by Python create_sdf_string function

 29 33  0  0  0  0  0  0  0  0999 V2000
   10.7215   -3.3326   17.6437 C   0  0  0  0  0  0  0  0  0  0  0  0
    9.9489   -3.4675   24.6487 N   0  0  0  0  0  0  0  0  0  0  0  0
   10.0172   -4.4740   17.4101 C   0  0  0  0  0  0  0  0  0  0  0  0
    6.9051   -7.9575   16.4222 C   0  0  0  0  0  0  0  0  0  0  0  0
    8.9969   -6.3552   17.9668 N   0  0  0  0  0  0  0  0  0  0  0  0
   10.6702   -3.9051   22.4070 C   0  0  0  0  0  0  0  0  0  0  0  0
   11.0625   -3.0028   18.8894 C   0  0  0  0  0  0  0  0  0  0  0  0
    5.6180   -7.9194   16.1754 O   0  0  0  0  0  0  0  0  0  0  0  0
    9.7259   -5.3080   18.4485 C   0  0  0  0  0  0  0  0  0  0  0  0
    9.4578   -5.0200   16.3036 N   0  0  0  0  0  0  0  0  0  0  0  0
    5.0287   -8.9365   16.8223 C   0  0  0  0  0  0  0  0  0  0  0  0
    8.7742   -6.1498   16.6764 C   0  0  0  0  0  0  0  0  0  0  0  0
   10.9418   -3.4032   21.2053 O   0  0  0  0  0  0  0  0  0  0  0  0
    1.4797   -8.6258   16.2950 C   0  0  0  0  0  0  0  0  0  0  0  0
    9.2861   -1.2743   25.3585 C   0  0  0  0  0  0  0  0  0  0  0  0
    1.8892  -10.3985   17.7511 N   0  0  0  0  0  0  0  0  0  0  0  0
    9.6210   -0.6952   24.0976 C   0  0  0  0  0  0  0  0  0  0  0  0
    7.0792   -9.0217   17.1429 C   0  0  0  0  0  0  0  0  0  0  0  0
    3.1713  -10.1816   17.6634 C   0  0  0  0  0  0  0  0  0  0  0  0
    2.7878   -8.3822   16.2137 C   0  0  0  0  0  0  0  0  0  0  0  0
    9.4601   -2.6590   25.6528 C   0  0  0  0  0  0  0  0  0  0  0  0
   10.1182   -1.5672   23.1165 C   0  0  0  0  0  0  0  0  0  0  0  0
    1.0552   -9.6360   17.0650 C   0  0  0  0  0  0  0  0  0  0  0  0
    3.6519   -9.1783   16.9039 C   0  0  0  0  0  0  0  0  0  0  0  0
    7.8675   -7.0096   15.9415 C   0  0  0  0  0  0  0  0  0  0  0  0
    5.9733   -9.6553   17.3832 N   0  0  0  0  0  0  0  0  0  0  0  0
   10.2411   -2.9363   23.4301 C   0  0  0  0  0  0  0  0  0  0  0  0
   10.7288   -3.8197   19.9525 C   0  0  0  0  0  0  0  0  0  0  0  0
   10.1189   -5.0054   19.6987 C   0  0  0  0  0  0  0  0  0  0  0  0
  1  3  4  0
  1  7  4  0
  2 21  4  0
  2 27  4  0
  3  9  4  0
  3 10  4  0
  4  8  4  0
  4 18  4  0
  4 25  1  0
  5  9  4  0
  5 12  4  0
  6 13  1  0
  6 27  1  0
  7 28  4  0
  8 11  4  0
  9 29  4  0
 10 12  4  0
 11 24  1  0
 11 26  4  0
 12 25  1  0
 13 28  1  0
 14 20  4  0
 14 23  4  0
 15 17  4  0
 15 21  4  0
 16 19  4  0
 16 23  4  0
 17 22  4  0
 18 26  4  0
 19 24  4  0
 20 24  4  0
 22 27  4  0
 28 29  4  0
M  END
$$$$

 Created by Python create_sdf_string function

 29 33  0  0  0  0  0  0  0  0999 V2000
   10.7215   -3.3326   17.6437 C   0  0  0  0  0  0  0  0  0  0  0  0
    9.9489   -3.4675   24.6487 N   0  0  0  0  0  0  0  0  0  0  0  0
   10.0172   -4.4740   17.4101 C   0  0  0  0  0  0  0  0  0  0  0  0
    6.9051   -7.9575   16.4222 C   0  0  0  0  0  0  0  0  0  0  0  0
    8.9969   -6.3552   17.9668 N   0  0  0  0  0  0  0  0  0  0  0  0
   10.6702   -3.9051   22.4070 C   0  0  0  0  0  0  0  0  0  0  0  0
   11.0625   -3.0028   18.8894 C   0  0  0  0  0  0  0  0  0  0  0  0
    5.6180   -7.9194   16.1754 O   0  0  0  0  0  0  0  0  0  0  0  0
    9.7259   -5.3080   18.4485 C   0  0  0  0  0  0  0  0  0  0  0  0
    9.4578   -5.0200   16.3036 N   0  0  0  0  0  0  0  0  0  0  0  0
    5.0287   -8.9365   16.8223 C   0  0  0  0  0  0  0  0  0  0  0  0
    8.7742   -6.1498   16.6764 C   0  0  0  0  0  0  0  0  0  0  0  0
   10.9418   -3.4032   21.2053 O   0  0  0  0  0  0  0  0  0  0  0  0
    1.4797   -8.6258   16.2950 C   0  0  0  0  0  0  0  0  0  0  0  0
    9.2861   -1.2743   25.3585 C   0  0  0  0  0  0  0  0  0  0  0  0
    1.8892  -10.3985   17.7511 N   0  0  0  0  0  0  0  0  0  0  0  0
    9.6210   -0.6952   24.0976 C   0  0  0  0  0  0  0  0  0  0  0  0
    7.0792   -9.0217   17.1429 C   0  0  0  0  0  0  0  0  0  0  0  0
    3.1713  -10.1816   17.6634 C   0  0  0  0  0  0  0  0  0  0  0  0
    2.7878   -8.3822   16.2137 C   0  0  0  0  0  0  0  0  0  0  0  0
    9.4601   -2.6590   25.6528 C   0  0  0  0  0  0  0  0  0  0  0  0
   10.1182   -1.5672   23.1165 C   0  0  0  0  0  0  0  0  0  0  0  0
    1.0552   -9.6360   17.0650 C   0  0  0  0  0  0  0  0  0  0  0  0
    3.6519   -9.1783   16.9039 C   0  0  0  0  0  0  0  0  0  0  0  0
    7.8675   -7.0096   15.9415 C   0  0  0  0  0  0  0  0  0  0  0  0
    5.9733   -9.6553   17.3832 N   0  0  0  0  0  0  0  0  0  0  0  0
   10.2411   -2.9363   23.4301 C   0  0  0  0  0  0  0  0  0  0  0  0
   10.7288   -3.8197   19.9525 C   0  0  0  0  0  0  0  0  0  0  0  0
   10.1189   -5.0054   19.6987 C   0  0  0  0  0  0  0  0  0  0  0  0
  1  3  4  0
  1  7  4  0
  2 21  4  0
  2 27  4  0
  3  9  4  0
  3 10  4  0
  4  8  4  0
  4 18  4  0
  4 25  1  0
  5  9  4  0
  5 12  4  0
  6 13  1  0
  6 27  1  0
  7 28  4  0
  8 11  4  0
  9 29  4  0
 10 12  4  0
 11 24  1  0
 11 26  4  0
 12 25  1  0
 13 28  1  0
 14 20  4  0
 14 23  4  0
 15 17  4  0
 15 21  4  0
 16 19  4  0
 16 23  4  0
 17 22  4  0
 18 26  4  0
 19 24  4  0
 20 24  4  0
 22 27  4  0
 28 29  4  0
M  END
$$$$

 Created by Python create_sdf_string function

 29 33  0  0  0  0  0  0  0  0999 V2000
   10.7215   -3.3326   17.6437 C   0  0  0  0  0  0  0  0  0  0  0  0
    9.9489   -3.4675   24.6487 N   0  0  0  0  0  0  0  0  0  0  0  0
   10.0172   -4.4740   17.4101 C   0  0  0  0  0  0  0  0  0  0  0  0
    6.9051   -7.9575   16.4222 C   0  0  0  0  0  0  0  0  0  0  0  0
    8.9969   -6.3552   17.9668 N   0  0  0  0  0  0  0  0  0  0  0  0
   10.6702   -3.9051   22.4070 C   0  0  0  0  0  0  0  0  0  0  0  0
   11.0625   -3.0028   18.8894 C   0  0  0  0  0  0  0  0  0  0  0  0
    5.6180   -7.9194   16.1754 O   0  0  0  0  0  0  0  0  0  0  0  0
    9.7259   -5.3080   18.4485 C   0  0  0  0  0  0  0  0  0  0  0  0
    9.4578   -5.0200   16.3036 N   0  0  0  0  0  0  0  0  0  0  0  0
    5.0287   -8.9365   16.8223 C   0  0  0  0  0  0  0  0  0  0  0  0
    8.7742   -6.1498   16.6764 C   0  0  0  0  0  0  0  0  0  0  0  0
   10.9418   -3.4032   21.2053 O   0  0  0  0  0  0  0  0  0  0  0  0
    1.4797   -8.6258   16.2950 C   0  0  0  0  0  0  0  0  0  0  0  0
    9.2861   -1.2743   25.3585 C   0  0  0  0  0  0  0  0  0  0  0  0
    1.8892  -10.3985   17.7511 N   0  0  0  0  0  0  0  0  0  0  0  0
    9.6210   -0.6952   24.0976 C   0  0  0  0  0  0  0  0  0  0  0  0
    7.0792   -9.0217   17.1429 C   0  0  0  0  0  0  0  0  0  0  0  0
    3.1713  -10.1816   17.6634 C   0  0  0  0  0  0  0  0  0  0  0  0
    2.7878   -8.3822   16.2137 C   0  0  0  0  0  0  0  0  0  0  0  0
    9.4601   -2.6590   25.6528 C   0  0  0  0  0  0  0  0  0  0  0  0
   10.1182   -1.5672   23.1165 C   0  0  0  0  0  0  0  0  0  0  0  0
    1.0552   -9.6360   17.0650 C   0  0  0  0  0  0  0  0  0  0  0  0
    3.6519   -9.1783   16.9039 C   0  0  0  0  0  0  0  0  0  0  0  0
    7.8675   -7.0096   15.9415 C   0  0  0  0  0  0  0  0  0  0  0  0
    5.9733   -9.6553   17.3832 N   0  0  0  0  0  0  0  0  0  0  0  0
   10.2411   -2.9363   23.4301 C   0  0  0  0  0  0  0  0  0  0  0  0
   10.7288   -3.8197   19.9525 C   0  0  0  0  0  0  0  0  0  0  0  0
   10.1189   -5.0054   19.6987 C   0  0  0  0  0  0  0  0  0  0  0  0
  1  3  4  0
  1  7  4  0
  2 21  4  0
  2 27  4  0
  3  9  4  0
  3 10  4  0
  4  8  4  0
  4 18  4  0
  4 25  1  0
  5  9  4  0
  5 12  4  0
  6 13  1  0
  6 27  1  0
  7 28  4  0
  8 11  4  0
  9 29  4  0
 10 12  4  0
 11 24  1  0
 11 26  4  0
 12 25  1  0
 13 28  1  0
 14 20  4  0
 14 23  4  0
 15 17  4  0
 15 21  4  0
 16 19  4  0
 16 23  4  0
 17 22  4  0
 18 26  4  0
 19 24  4  0
 20 24  4  0
 22 27  4  0
 28 29  4  0
M  END
$$$$

 Created by Python create_sdf_string function

 29 33  0  0  0  0  0  0  0  0999 V2000
   10.7215   -3.3326   17.6437 C   0  0  0  0  0  0  0  0  0  0  0  0
    9.9489   -3.4675   24.6487 N   0  0  0  0  0  0  0  0  0  0  0  0
   10.0172   -4.4740   17.4101 C   0  0  0  0  0  0  0  0  0  0  0  0
    6.9051   -7.9575   16.4222 C   0  0  0  0  0  0  0  0  0  0  0  0
    8.9969   -6.3552   17.9668 N   0  0  0  0  0  0  0  0  0  0  0  0
   10.6702   -3.9051   22.4070 C   0  0  0  0  0  0  0  0  0  0  0  0
   11.0625   -3.0028   18.8894 C   0  0  0  0  0  0  0  0  0  0  0  0
    5.6180   -7.9194   16.1754 O   0  0  0  0  0  0  0  0  0  0  0  0
    9.7259   -5.3080   18.4485 C   0  0  0  0  0  0  0  0  0  0  0  0
    9.4578   -5.0200   16.3036 N   0  0  0  0  0  0  0  0  0  0  0  0
    5.0287   -8.9365   16.8223 C   0  0  0  0  0  0  0  0  0  0  0  0
    8.7742   -6.1498   16.6764 C   0  0  0  0  0  0  0  0  0  0  0  0
   10.9418   -3.4032   21.2053 O   0  0  0  0  0  0  0  0  0  0  0  0
    1.4797   -8.6258   16.2950 C   0  0  0  0  0  0  0  0  0  0  0  0
    9.2861   -1.2743   25.3585 C   0  0  0  0  0  0  0  0  0  0  0  0
    1.8892  -10.3985   17.7511 N   0  0  0  0  0  0  0  0  0  0  0  0
    9.6210   -0.6952   24.0976 C   0  0  0  0  0  0  0  0  0  0  0  0
    7.0792   -9.0217   17.1429 C   0  0  0  0  0  0  0  0  0  0  0  0
    3.1713  -10.1816   17.6634 C   0  0  0  0  0  0  0  0  0  0  0  0
    2.7878   -8.3822   16.2137 C   0  0  0  0  0  0  0  0  0  0  0  0
    9.4601   -2.6590   25.6528 C   0  0  0  0  0  0  0  0  0  0  0  0
   10.1182   -1.5672   23.1165 C   0  0  0  0  0  0  0  0  0  0  0  0
    1.0552   -9.6360   17.0650 C   0  0  0  0  0  0  0  0  0  0  0  0
    3.6519   -9.1783   16.9039 C   0  0  0  0  0  0  0  0  0  0  0  0
    7.8675   -7.0096   15.9415 C   0  0  0  0  0  0  0  0  0  0  0  0
    5.9733   -9.6553   17.3832 N   0  0  0  0  0  0  0  0  0  0  0  0
   10.2411   -2.9363   23.4301 C   0  0  0  0  0  0  0  0  0  0  0  0
   10.7288   -3.8197   19.9525 C   0  0  0  0  0  0  0  0  0  0  0  0
   10.1189   -5.0054   19.6987 C   0  0  0  0  0  0  0  0  0  0  0  0
  1  3  4  0
  1  7  4  0
  2 21  4  0
  2 27  4  0
  3  9  4  0
  3 10  4  0
  4  8  4  0
  4 18  4  0
  4 25  1  0
  5  9  4  0
  5 12  4  0
  6 13  1  0
  6 27  1  0
  7 28  4  0
  8 11  4  0
  9 29  4  0
 10 12  4  0
 11 24  1  0
 11 26  4  0
 12 25  1  0
 13 28  1  0
 14 20  4  0
 14 23  4  0
 15 17  4  0
 15 21  4  0
 16 19  4  0
 16 23  4  0
 17 22  4  0
 18 26  4  0
 19 24  4  0
 20 24  4  0
 22 27  4  0
 28 29  4  0
M  END
$$$$

 Created by Python create_sdf_string function

 29 33  0  0  0  0  0  0  0  0999 V2000
   10.7215   -3.3326   17.6437 C   0  0  0  0  0  0  0  0  0  0  0  0
    9.9489   -3.4675   24.6487 N   0  0  0  0  0  0  0  0  0  0  0  0
   10.0172   -4.4740   17.4101 C   0  0  0  0  0  0  0  0  0  0  0  0
    6.9051   -7.9575   16.4222 C   0  0  0  0  0  0  0  0  0  0  0  0
    8.9969   -6.3552   17.9668 N   0  0  0  0  0  0  0  0  0  0  0  0
   10.6702   -3.9051   22.4070 C   0  0  0  0  0  0  0  0  0  0  0  0
   11.0625   -3.0028   18.8894 C   0  0  0  0  0  0  0  0  0  0  0  0
    5.6180   -7.9194   16.1754 O   0  0  0  0  0  0  0  0  0  0  0  0
    9.7259   -5.3080   18.4485 C   0  0  0  0  0  0  0  0  0  0  0  0
    9.4578   -5.0200   16.3036 N   0  0  0  0  0  0  0  0  0  0  0  0
    5.0287   -8.9365   16.8223 C   0  0  0  0  0  0  0  0  0  0  0  0
    8.7742   -6.1498   16.6764 C   0  0  0  0  0  0  0  0  0  0  0  0
   10.9418   -3.4032   21.2053 O   0  0  0  0  0  0  0  0  0  0  0  0
    1.4797   -8.6258   16.2950 C   0  0  0  0  0  0  0  0  0  0  0  0
    9.2861   -1.2743   25.3585 C   0  0  0  0  0  0  0  0  0  0  0  0
    1.8892  -10.3985   17.7511 N   0  0  0  0  0  0  0  0  0  0  0  0
    9.6210   -0.6952   24.0976 C   0  0  0  0  0  0  0  0  0  0  0  0
    7.0792   -9.0217   17.1429 C   0  0  0  0  0  0  0  0  0  0  0  0
    3.1713  -10.1816   17.6634 C   0  0  0  0  0  0  0  0  0  0  0  0
    2.7878   -8.3822   16.2137 C   0  0  0  0  0  0  0  0  0  0  0  0
    9.4601   -2.6590   25.6528 C   0  0  0  0  0  0  0  0  0  0  0  0
   10.1182   -1.5672   23.1165 C   0  0  0  0  0  0  0  0  0  0  0  0
    1.0552   -9.6360   17.0650 C   0  0  0  0  0  0  0  0  0  0  0  0
    3.6519   -9.1783   16.9039 C   0  0  0  0  0  0  0  0  0  0  0  0
    7.8675   -7.0096   15.9415 C   0  0  0  0  0  0  0  0  0  0  0  0
    5.9733   -9.6553   17.3832 N   0  0  0  0  0  0  0  0  0  0  0  0
   10.2411   -2.9363   23.4301 C   0  0  0  0  0  0  0  0  0  0  0  0
   10.7288   -3.8197   19.9525 C   0  0  0  0  0  0  0  0  0  0  0  0
   10.1189   -5.0054   19.6987 C   0  0  0  0  0  0  0  0  0  0  0  0
  1  3  4  0
  1  7  4  0
  2 21  4  0
  2 27  4  0
  3  9  4  0
  3 10  4  0
  4  8  4  0
  4 18  4  0
  4 25  1  0
  5  9  4  0
  5 12  4  0
  6 13  1  0
  6 27  1  0
  7 28  4  0
  8 11  4  0
  9 29  4  0
 10 12  4  0
 11 24  1  0
 11 26  4  0
 12 25  1  0
 13 28  1  0
 14 20  4  0
 14 23  4  0
 15 17  4  0
 15 21  4  0
 16 19  4  0
 16 23  4  0
 17 22  4  0
 18 26  4  0
 19 24  4  0
 20 24  4  0
 22 27  4  0
 28 29  4  0
M  END
$$$$

 Created by Python create_sdf_string function

 29 33  0  0  0  0  0  0  0  0999 V2000
   10.7215   -3.3326   17.6437 C   0  0  0  0  0  0  0  0  0  0  0  0
    9.9489   -3.4675   24.6487 N   0  0  0  0  0  0  0  0  0  0  0  0
   10.0172   -4.4740   17.4101 C   0  0  0  0  0  0  0  0  0  0  0  0
    6.9051   -7.9575   16.4222 C   0  0  0  0  0  0  0  0  0  0  0  0
    8.9969   -6.3552   17.9668 N   0  0  0  0  0  0  0  0  0  0  0  0
   10.6702   -3.9051   22.4070 C   0  0  0  0  0  0  0  0  0  0  0  0
   11.0625   -3.0028   18.8894 C   0  0  0  0  0  0  0  0  0  0  0  0
    5.6180   -7.9194   16.1754 O   0  0  0  0  0  0  0  0  0  0  0  0
    9.7259   -5.3080   18.4485 C   0  0  0  0  0  0  0  0  0  0  0  0
    9.4578   -5.0200   16.3036 N   0  0  0  0  0  0  0  0  0  0  0  0
    5.0287   -8.9365   16.8223 C   0  0  0  0  0  0  0  0  0  0  0  0
    8.7742   -6.1498   16.6764 C   0  0  0  0  0  0  0  0  0  0  0  0
   10.9418   -3.4032   21.2053 O   0  0  0  0  0  0  0  0  0  0  0  0
    1.4797   -8.6258   16.2950 C   0  0  0  0  0  0  0  0  0  0  0  0
    9.2861   -1.2743   25.3585 C   0  0  0  0  0  0  0  0  0  0  0  0
    1.8892  -10.3985   17.7511 N   0  0  0  0  0  0  0  0  0  0  0  0
    9.6210   -0.6952   24.0976 C   0  0  0  0  0  0  0  0  0  0  0  0
    7.0792   -9.0217   17.1429 C   0  0  0  0  0  0  0  0  0  0  0  0
    3.1713  -10.1816   17.6634 C   0  0  0  0  0  0  0  0  0  0  0  0
    2.7878   -8.3822   16.2137 C   0  0  0  0  0  0  0  0  0  0  0  0
    9.4601   -2.6590   25.6528 C   0  0  0  0  0  0  0  0  0  0  0  0
   10.1182   -1.5672   23.1165 C   0  0  0  0  0  0  0  0  0  0  0  0
    1.0552   -9.6360   17.0650 C   0  0  0  0  0  0  0  0  0  0  0  0
    3.6519   -9.1783   16.9039 C   0  0  0  0  0  0  0  0  0  0  0  0
    7.8675   -7.0096   15.9415 C   0  0  0  0  0  0  0  0  0  0  0  0
    5.9733   -9.6553   17.3832 N   0  0  0  0  0  0  0  0  0  0  0  0
   10.2411   -2.9363   23.4301 C   0  0  0  0  0  0  0  0  0  0  0  0
   10.7288   -3.8197   19.9525 C   0  0  0  0  0  0  0  0  0  0  0  0
   10.1189   -5.0054   19.6987 C   0  0  0  0  0  0  0  0  0  0  0  0
  1  3  4  0
  1  7  4  0
  2 21  4  0
  2 27  4  0
  3  9  4  0
  3 10  4  0
  4  8  4  0
  4 18  4  0
  4 25  1  0
  5  9  4  0
  5 12  4  0
  6 13  1  0
  6 27  1  0
  7 28  4  0
  8 11  4  0
  9 29  4  0
 10 12  4  0
 11 24  1  0
 11 26  4  0
 12 25  1  0
 13 28  1  0
 14 20  4  0
 14 23  4  0
 15 17  4  0
 15 21  4  0
 16 19  4  0
 16 23  4  0
 17 22  4  0
 18 26  4  0
 19 24  4  0
 20 24  4  0
 22 27  4  0
 28 29  4  0
M  END
$$$$

 Created by Python create_sdf_string function

 29 33  0  0  0  0  0  0  0  0999 V2000
   10.7215   -3.3326   17.6437 C   0  0  0  0  0  0  0  0  0  0  0  0
    9.9489   -3.4675   24.6487 N   0  0  0  0  0  0  0  0  0  0  0  0
   10.0172   -4.4740   17.4101 C   0  0  0  0  0  0  0  0  0  0  0  0
    6.9051   -7.9575   16.4222 C   0  0  0  0  0  0  0  0  0  0  0  0
    8.9969   -6.3552   17.9668 N   0  0  0  0  0  0  0  0  0  0  0  0
   10.6702   -3.9051   22.4070 C   0  0  0  0  0  0  0  0  0  0  0  0
   11.0625   -3.0028   18.8894 C   0  0  0  0  0  0  0  0  0  0  0  0
    5.6180   -7.9194   16.1754 O   0  0  0  0  0  0  0  0  0  0  0  0
    9.7259   -5.3080   18.4485 C   0  0  0  0  0  0  0  0  0  0  0  0
    9.4578   -5.0200   16.3036 N   0  0  0  0  0  0  0  0  0  0  0  0
    5.0287   -8.9365   16.8223 C   0  0  0  0  0  0  0  0  0  0  0  0
    8.7742   -6.1498   16.6764 C   0  0  0  0  0  0  0  0  0  0  0  0
   10.9418   -3.4032   21.2053 O   0  0  0  0  0  0  0  0  0  0  0  0
    1.4797   -8.6258   16.2950 C   0  0  0  0  0  0  0  0  0  0  0  0
    9.2861   -1.2743   25.3585 C   0  0  0  0  0  0  0  0  0  0  0  0
    1.8892  -10.3985   17.7511 N   0  0  0  0  0  0  0  0  0  0  0  0
    9.6210   -0.6952   24.0976 C   0  0  0  0  0  0  0  0  0  0  0  0
    7.0792   -9.0217   17.1429 C   0  0  0  0  0  0  0  0  0  0  0  0
    3.1713  -10.1816   17.6634 C   0  0  0  0  0  0  0  0  0  0  0  0
    2.7878   -8.3822   16.2137 C   0  0  0  0  0  0  0  0  0  0  0  0
    9.4601   -2.6590   25.6528 C   0  0  0  0  0  0  0  0  0  0  0  0
   10.1182   -1.5672   23.1165 C   0  0  0  0  0  0  0  0  0  0  0  0
    1.0552   -9.6360   17.0650 C   0  0  0  0  0  0  0  0  0  0  0  0
    3.6519   -9.1783   16.9039 C   0  0  0  0  0  0  0  0  0  0  0  0
    7.8675   -7.0096   15.9415 C   0  0  0  0  0  0  0  0  0  0  0  0
    5.9733   -9.6553   17.3832 N   0  0  0  0  0  0  0  0  0  0  0  0
   10.2411   -2.9363   23.4301 C   0  0  0  0  0  0  0  0  0  0  0  0
   10.7288   -3.8197   19.9525 C   0  0  0  0  0  0  0  0  0  0  0  0
   10.1189   -5.0054   19.6987 C   0  0  0  0  0  0  0  0  0  0  0  0
  1  3  4  0
  1  7  4  0
  2 21  4  0
  2 27  4  0
  3  9  4  0
  3 10  4  0
  4  8  4  0
  4 18  4  0
  4 25  1  0
  5  9  4  0
  5 12  4  0
  6 13  1  0
  6 27  1  0
  7 28  4  0
  8 11  4  0
  9 29  4  0
 10 12  4  0
 11 24  1  0
 11 26  4  0
 12 25  1  0
 13 28  1  0
 14 20  4  0
 14 23  4  0
 15 17  4  0
 15 21  4  0
 16 19  4  0
 16 23  4  0
 17 22  4  0
 18 26  4  0
 19 24  4  0
 20 24  4  0
 22 27  4  0
 28 29  4  0
M  END
$$$$

 Created by Python create_sdf_string function

 29 33  0  0  0  0  0  0  0  0999 V2000
   10.7215   -3.3326   17.6437 C   0  0  0  0  0  0  0  0  0  0  0  0
    9.9489   -3.4675   24.6487 N   0  0  0  0  0  0  0  0  0  0  0  0
   10.0172   -4.4740   17.4101 C   0  0  0  0  0  0  0  0  0  0  0  0
    6.9051   -7.9575   16.4222 C   0  0  0  0  0  0  0  0  0  0  0  0
    8.9969   -6.3552   17.9668 N   0  0  0  0  0  0  0  0  0  0  0  0
   10.6702   -3.9051   22.4070 C   0  0  0  0  0  0  0  0  0  0  0  0
   11.0625   -3.0028   18.8894 C   0  0  0  0  0  0  0  0  0  0  0  0
    5.6180   -7.9194   16.1754 O   0  0  0  0  0  0  0  0  0  0  0  0
    9.7259   -5.3080   18.4485 C   0  0  0  0  0  0  0  0  0  0  0  0
    9.4578   -5.0200   16.3036 N   0  0  0  0  0  0  0  0  0  0  0  0
    5.0287   -8.9365   16.8223 C   0  0  0  0  0  0  0  0  0  0  0  0
    8.7742   -6.1498   16.6764 C   0  0  0  0  0  0  0  0  0  0  0  0
   10.9418   -3.4032   21.2053 O   0  0  0  0  0  0  0  0  0  0  0  0
    1.4797   -8.6258   16.2950 C   0  0  0  0  0  0  0  0  0  0  0  0
    9.2861   -1.2743   25.3585 C   0  0  0  0  0  0  0  0  0  0  0  0
    1.8892  -10.3985   17.7511 N   0  0  0  0  0  0  0  0  0  0  0  0
    9.6210   -0.6952   24.0976 C   0  0  0  0  0  0  0  0  0  0  0  0
    7.0792   -9.0217   17.1429 C   0  0  0  0  0  0  0  0  0  0  0  0
    3.1713  -10.1816   17.6634 C   0  0  0  0  0  0  0  0  0  0  0  0
    2.7878   -8.3822   16.2137 C   0  0  0  0  0  0  0  0  0  0  0  0
    9.4601   -2.6590   25.6528 C   0  0  0  0  0  0  0  0  0  0  0  0
   10.1182   -1.5672   23.1165 C   0  0  0  0  0  0  0  0  0  0  0  0
    1.0552   -9.6360   17.0650 C   0  0  0  0  0  0  0  0  0  0  0  0
    3.6519   -9.1783   16.9039 C   0  0  0  0  0  0  0  0  0  0  0  0
    7.8675   -7.0096   15.9415 C   0  0  0  0  0  0  0  0  0  0  0  0
    5.9733   -9.6553   17.3832 N   0  0  0  0  0  0  0  0  0  0  0  0
   10.2411   -2.9363   23.4301 C   0  0  0  0  0  0  0  0  0  0  0  0
   10.7288   -3.8197   19.9525 C   0  0  0  0  0  0  0  0  0  0  0  0
   10.1189   -5.0054   19.6987 C   0  0  0  0  0  0  0  0  0  0  0  0
  1  3  4  0
  1  7  4  0
  2 21  4  0
  2 27  4  0
  3  9  4  0
  3 10  4  0
  4  8  4  0
  4 18  4  0
  4 25  1  0
  5  9  4  0
  5 12  4  0
  6 13  1  0
  6 27  1  0
  7 28  4  0
  8 11  4  0
  9 29  4  0
 10 12  4  0
 11 24  1  0
 11 26  4  0
 12 25  1  0
 13 28  1  0
 14 20  4  0
 14 23  4  0
 15 17  4  0
 15 21  4  0
 16 19  4  0
 16 23  4  0
 17 22  4  0
 18 26  4  0
 19 24  4  0
 20 24  4  0
 22 27  4  0
 28 29  4  0
M  END
$$$$

 Created by Python create_sdf_string function

 29 33  0  0  0  0  0  0  0  0999 V2000
   10.7215   -3.3326   17.6437 C   0  0  0  0  0  0  0  0  0  0  0  0
    9.9489   -3.4675   24.6487 N   0  0  0  0  0  0  0  0  0  0  0  0
   10.0172   -4.4740   17.4101 C   0  0  0  0  0  0  0  0  0  0  0  0
    6.9051   -7.9575   16.4222 C   0  0  0  0  0  0  0  0  0  0  0  0
    8.9969   -6.3552   17.9668 N   0  0  0  0  0  0  0  0  0  0  0  0
   10.6702   -3.9051   22.4070 C   0  0  0  0  0  0  0  0  0  0  0  0
   11.0625   -3.0028   18.8894 C   0  0  0  0  0  0  0  0  0  0  0  0
    5.6180   -7.9194   16.1754 O   0  0  0  0  0  0  0  0  0  0  0  0
    9.7259   -5.3080   18.4485 C   0  0  0  0  0  0  0  0  0  0  0  0
    9.4578   -5.0200   16.3036 N   0  0  0  0  0  0  0  0  0  0  0  0
    5.0287   -8.9365   16.8223 C   0  0  0  0  0  0  0  0  0  0  0  0
    8.7742   -6.1498   16.6764 C   0  0  0  0  0  0  0  0  0  0  0  0
   10.9418   -3.4032   21.2053 O   0  0  0  0  0  0  0  0  0  0  0  0
    1.4797   -8.6258   16.2950 C   0  0  0  0  0  0  0  0  0  0  0  0
    9.2861   -1.2743   25.3585 C   0  0  0  0  0  0  0  0  0  0  0  0
    1.8892  -10.3985   17.7511 N   0  0  0  0  0  0  0  0  0  0  0  0
    9.6210   -0.6952   24.0976 C   0  0  0  0  0  0  0  0  0  0  0  0
    7.0792   -9.0217   17.1429 C   0  0  0  0  0  0  0  0  0  0  0  0
    3.1713  -10.1816   17.6634 C   0  0  0  0  0  0  0  0  0  0  0  0
    2.7878   -8.3822   16.2137 C   0  0  0  0  0  0  0  0  0  0  0  0
    9.4601   -2.6590   25.6528 C   0  0  0  0  0  0  0  0  0  0  0  0
   10.1182   -1.5672   23.1165 C   0  0  0  0  0  0  0  0  0  0  0  0
    1.0552   -9.6360   17.0650 C   0  0  0  0  0  0  0  0  0  0  0  0
    3.6519   -9.1783   16.9039 C   0  0  0  0  0  0  0  0  0  0  0  0
    7.8675   -7.0096   15.9415 C   0  0  0  0  0  0  0  0  0  0  0  0
    5.9733   -9.6553   17.3832 N   0  0  0  0  0  0  0  0  0  0  0  0
   10.2411   -2.9363   23.4301 C   0  0  0  0  0  0  0  0  0  0  0  0
   10.7288   -3.8197   19.9525 C   0  0  0  0  0  0  0  0  0  0  0  0
   10.1189   -5.0054   19.6987 C   0  0  0  0  0  0  0  0  0  0  0  0
  1  3  4  0
  1  7  4  0
  2 21  4  0
  2 27  4  0
  3  9  4  0
  3 10  4  0
  4  8  4  0
  4 18  4  0
  4 25  1  0
  5  9  4  0
  5 12  4  0
  6 13  1  0
  6 27  1  0
  7 28  4  0
  8 11  4  0
  9 29  4  0
 10 12  4  0
 11 24  1  0
 11 26  4  0
 12 25  1  0
 13 28  1  0
 14 20  4  0
 14 23  4  0
 15 17  4  0
 15 21  4  0
 16 19  4  0
 16 23  4  0
 17 22  4  0
 18 26  4  0
 19 24  4  0
 20 24  4  0
 22 27  4  0
 28 29  4  0
M  END
$$$$

 Created by Python create_sdf_string function

 29 33  0  0  0  0  0  0  0  0999 V2000
   10.7215   -3.3326   17.6437 C   0  0  0  0  0  0  0  0  0  0  0  0
    9.9489   -3.4675   24.6487 N   0  0  0  0  0  0  0  0  0  0  0  0
   10.0172   -4.4740   17.4101 C   0  0  0  0  0  0  0  0  0  0  0  0
    6.9051   -7.9575   16.4222 C   0  0  0  0  0  0  0  0  0  0  0  0
    8.9969   -6.3552   17.9668 N   0  0  0  0  0  0  0  0  0  0  0  0
   10.6702   -3.9051   22.4070 C   0  0  0  0  0  0  0  0  0  0  0  0
   11.0625   -3.0028   18.8894 C   0  0  0  0  0  0  0  0  0  0  0  0
    5.6180   -7.9194   16.1754 O   0  0  0  0  0  0  0  0  0  0  0  0
    9.7259   -5.3080   18.4485 C   0  0  0  0  0  0  0  0  0  0  0  0
    9.4578   -5.0200   16.3036 N   0  0  0  0  0  0  0  0  0  0  0  0
    5.0287   -8.9365   16.8223 C   0  0  0  0  0  0  0  0  0  0  0  0
    8.7742   -6.1498   16.6764 C   0  0  0  0  0  0  0  0  0  0  0  0
   10.9418   -3.4032   21.2053 O   0  0  0  0  0  0  0  0  0  0  0  0
    1.4797   -8.6258   16.2950 C   0  0  0  0  0  0  0  0  0  0  0  0
    9.2861   -1.2743   25.3585 C   0  0  0  0  0  0  0  0  0  0  0  0
    1.8892  -10.3985   17.7511 N   0  0  0  0  0  0  0  0  0  0  0  0
    9.6210   -0.6952   24.0976 C   0  0  0  0  0  0  0  0  0  0  0  0
    7.0792   -9.0217   17.1429 C   0  0  0  0  0  0  0  0  0  0  0  0
    3.1713  -10.1816   17.6634 C   0  0  0  0  0  0  0  0  0  0  0  0
    2.7878   -8.3822   16.2137 C   0  0  0  0  0  0  0  0  0  0  0  0
    9.4601   -2.6590   25.6528 C   0  0  0  0  0  0  0  0  0  0  0  0
   10.1182   -1.5672   23.1165 C   0  0  0  0  0  0  0  0  0  0  0  0
    1.0552   -9.6360   17.0650 C   0  0  0  0  0  0  0  0  0  0  0  0
    3.6519   -9.1783   16.9039 C   0  0  0  0  0  0  0  0  0  0  0  0
    7.8675   -7.0096   15.9415 C   0  0  0  0  0  0  0  0  0  0  0  0
    5.9733   -9.6553   17.3832 N   0  0  0  0  0  0  0  0  0  0  0  0
   10.2411   -2.9363   23.4301 C   0  0  0  0  0  0  0  0  0  0  0  0
   10.7288   -3.8197   19.9525 C   0  0  0  0  0  0  0  0  0  0  0  0
   10.1189   -5.0054   19.6987 C   0  0  0  0  0  0  0  0  0  0  0  0
  1  3  4  0
  1  7  4  0
  2 21  4  0
  2 27  4  0
  3  9  4  0
  3 10  4  0
  4  8  4  0
  4 18  4  0
  4 25  1  0
  5  9  4  0
  5 12  4  0
  6 13  1  0
  6 27  1  0
  7 28  4  0
  8 11  4  0
  9 29  4  0
 10 12  4  0
 11 24  1  0
 11 26  4  0
 12 25  1  0
 13 28  1  0
 14 20  4  0
 14 23  4  0
 15 17  4  0
 15 21  4  0
 16 19  4  0
 16 23  4  0
 17 22  4  0
 18 26  4  0
 19 24  4  0
 20 24  4  0
 22 27  4  0
 28 29  4  0
M  END
$$$$

 Created by Python create_sdf_string function

 29 33  0  0  0  0  0  0  0  0999 V2000
   10.7215   -3.3326   17.6437 C   0  0  0  0  0  0  0  0  0  0  0  0
    9.9489   -3.4675   24.6487 N   0  0  0  0  0  0  0  0  0  0  0  0
   10.0172   -4.4740   17.4101 C   0  0  0  0  0  0  0  0  0  0  0  0
    6.9051   -7.9575   16.4222 C   0  0  0  0  0  0  0  0  0  0  0  0
    8.9969   -6.3552   17.9668 N   0  0  0  0  0  0  0  0  0  0  0  0
   10.6702   -3.9051   22.4070 C   0  0  0  0  0  0  0  0  0  0  0  0
   11.0625   -3.0028   18.8894 C   0  0  0  0  0  0  0  0  0  0  0  0
    5.6180   -7.9194   16.1754 O   0  0  0  0  0  0  0  0  0  0  0  0
    9.7259   -5.3080   18.4485 C   0  0  0  0  0  0  0  0  0  0  0  0
    9.4578   -5.0200   16.3036 N   0  0  0  0  0  0  0  0  0  0  0  0
    5.0287   -8.9365   16.8223 C   0  0  0  0  0  0  0  0  0  0  0  0
    8.7742   -6.1498   16.6764 C   0  0  0  0  0  0  0  0  0  0  0  0
   10.9418   -3.4032   21.2053 O   0  0  0  0  0  0  0  0  0  0  0  0
    1.4797   -8.6258   16.2950 C   0  0  0  0  0  0  0  0  0  0  0  0
    9.2861   -1.2743   25.3585 C   0  0  0  0  0  0  0  0  0  0  0  0
    1.8892  -10.3985   17.7511 N   0  0  0  0  0  0  0  0  0  0  0  0
    9.6210   -0.6952   24.0976 C   0  0  0  0  0  0  0  0  0  0  0  0
    7.0792   -9.0217   17.1429 C   0  0  0  0  0  0  0  0  0  0  0  0
    3.1713  -10.1816   17.6634 C   0  0  0  0  0  0  0  0  0  0  0  0
    2.7878   -8.3822   16.2137 C   0  0  0  0  0  0  0  0  0  0  0  0
    9.4601   -2.6590   25.6528 C   0  0  0  0  0  0  0  0  0  0  0  0
   10.1182   -1.5672   23.1165 C   0  0  0  0  0  0  0  0  0  0  0  0
    1.0552   -9.6360   17.0650 C   0  0  0  0  0  0  0  0  0  0  0  0
    3.6519   -9.1783   16.9039 C   0  0  0  0  0  0  0  0  0  0  0  0
    7.8675   -7.0096   15.9415 C   0  0  0  0  0  0  0  0  0  0  0  0
    5.9733   -9.6553   17.3832 N   0  0  0  0  0  0  0  0  0  0  0  0
   10.2411   -2.9363   23.4301 C   0  0  0  0  0  0  0  0  0  0  0  0
   10.7288   -3.8197   19.9525 C   0  0  0  0  0  0  0  0  0  0  0  0
   10.1189   -5.0054   19.6987 C   0  0  0  0  0  0  0  0  0  0  0  0
  1  3  4  0
  1  7  4  0
  2 21  4  0
  2 27  4  0
  3  9  4  0
  3 10  4  0
  4  8  4  0
  4 18  4  0
  4 25  1  0
  5  9  4  0
  5 12  4  0
  6 13  1  0
  6 27  1  0
  7 28  4  0
  8 11  4  0
  9 29  4  0
 10 12  4  0
 11 24  1  0
 11 26  4  0
 12 25  1  0
 13 28  1  0
 14 20  4  0
 14 23  4  0
 15 17  4  0
 15 21  4  0
 16 19  4  0
 16 23  4  0
 17 22  4  0
 18 26  4  0
 19 24  4  0
 20 24  4  0
 22 27  4  0
 28 29  4  0
M  END
$$$$

 Created by Python create_sdf_string function

 29 33  0  0  0  0  0  0  0  0999 V2000
   10.7215   -3.3326   17.6437 C   0  0  0  0  0  0  0  0  0  0  0  0
    9.9489   -3.4675   24.6487 N   0  0  0  0  0  0  0  0  0  0  0  0
   10.0172   -4.4740   17.4101 C   0  0  0  0  0  0  0  0  0  0  0  0
    6.9051   -7.9575   16.4222 C   0  0  0  0  0  0  0  0  0  0  0  0
    8.9969   -6.3552   17.9668 N   0  0  0  0  0  0  0  0  0  0  0  0
   10.6702   -3.9051   22.4070 C   0  0  0  0  0  0  0  0  0  0  0  0
   11.0625   -3.0028   18.8894 C   0  0  0  0  0  0  0  0  0  0  0  0
    5.6180   -7.9194   16.1754 O   0  0  0  0  0  0  0  0  0  0  0  0
    9.7259   -5.3080   18.4485 C   0  0  0  0  0  0  0  0  0  0  0  0
    9.4578   -5.0200   16.3036 N   0  0  0  0  0  0  0  0  0  0  0  0
    5.0287   -8.9365   16.8223 C   0  0  0  0  0  0  0  0  0  0  0  0
    8.7742   -6.1498   16.6764 C   0  0  0  0  0  0  0  0  0  0  0  0
   10.9418   -3.4032   21.2053 O   0  0  0  0  0  0  0  0  0  0  0  0
    1.4797   -8.6258   16.2950 C   0  0  0  0  0  0  0  0  0  0  0  0
    9.2861   -1.2743   25.3585 C   0  0  0  0  0  0  0  0  0  0  0  0
    1.8892  -10.3985   17.7511 N   0  0  0  0  0  0  0  0  0  0  0  0
    9.6210   -0.6952   24.0976 C   0  0  0  0  0  0  0  0  0  0  0  0
    7.0792   -9.0217   17.1429 C   0  0  0  0  0  0  0  0  0  0  0  0
    3.1713  -10.1816   17.6634 C   0  0  0  0  0  0  0  0  0  0  0  0
    2.7878   -8.3822   16.2137 C   0  0  0  0  0  0  0  0  0  0  0  0
    9.4601   -2.6590   25.6528 C   0  0  0  0  0  0  0  0  0  0  0  0
   10.1182   -1.5672   23.1165 C   0  0  0  0  0  0  0  0  0  0  0  0
    1.0552   -9.6360   17.0650 C   0  0  0  0  0  0  0  0  0  0  0  0
    3.6519   -9.1783   16.9039 C   0  0  0  0  0  0  0  0  0  0  0  0
    7.8675   -7.0096   15.9415 C   0  0  0  0  0  0  0  0  0  0  0  0
    5.9733   -9.6553   17.3832 N   0  0  0  0  0  0  0  0  0  0  0  0
   10.2411   -2.9363   23.4301 C   0  0  0  0  0  0  0  0  0  0  0  0
   10.7288   -3.8197   19.9525 C   0  0  0  0  0  0  0  0  0  0  0  0
   10.1189   -5.0054   19.6987 C   0  0  0  0  0  0  0  0  0  0  0  0
  1  3  4  0
  1  7  4  0
  2 21  4  0
  2 27  4  0
  3  9  4  0
  3 10  4  0
  4  8  4  0
  4 18  4  0
  4 25  1  0
  5  9  4  0
  5 12  4  0
  6 13  1  0
  6 27  1  0
  7 28  4  0
  8 11  4  0
  9 29  4  0
 10 12  4  0
 11 24  1  0
 11 26  4  0
 12 25  1  0
 13 28  1  0
 14 20  4  0
 14 23  4  0
 15 17  4  0
 15 21  4  0
 16 19  4  0
 16 23  4  0
 17 22  4  0
 18 26  4  0
 19 24  4  0
 20 24  4  0
 22 27  4  0
 28 29  4  0
M  END
$$$$

 Created by Python create_sdf_string function

 29 33  0  0  0  0  0  0  0  0999 V2000
   10.7215   -3.3326   17.6437 C   0  0  0  0  0  0  0  0  0  0  0  0
    9.9489   -3.4675   24.6487 N   0  0  0  0  0  0  0  0  0  0  0  0
   10.0172   -4.4740   17.4101 C   0  0  0  0  0  0  0  0  0  0  0  0
    6.9051   -7.9575   16.4222 C   0  0  0  0  0  0  0  0  0  0  0  0
    8.9969   -6.3552   17.9668 N   0  0  0  0  0  0  0  0  0  0  0  0
   10.6702   -3.9051   22.4070 C   0  0  0  0  0  0  0  0  0  0  0  0
   11.0625   -3.0028   18.8894 C   0  0  0  0  0  0  0  0  0  0  0  0
    5.6180   -7.9194   16.1754 O   0  0  0  0  0  0  0  0  0  0  0  0
    9.7259   -5.3080   18.4485 C   0  0  0  0  0  0  0  0  0  0  0  0
    9.4578   -5.0200   16.3036 N   0  0  0  0  0  0  0  0  0  0  0  0
    5.0287   -8.9365   16.8223 C   0  0  0  0  0  0  0  0  0  0  0  0
    8.7742   -6.1498   16.6764 C   0  0  0  0  0  0  0  0  0  0  0  0
   10.9418   -3.4032   21.2053 O   0  0  0  0  0  0  0  0  0  0  0  0
    1.4797   -8.6258   16.2950 C   0  0  0  0  0  0  0  0  0  0  0  0
    9.2861   -1.2743   25.3585 C   0  0  0  0  0  0  0  0  0  0  0  0
    1.8892  -10.3985   17.7511 N   0  0  0  0  0  0  0  0  0  0  0  0
    9.6210   -0.6952   24.0976 C   0  0  0  0  0  0  0  0  0  0  0  0
    7.0792   -9.0217   17.1429 C   0  0  0  0  0  0  0  0  0  0  0  0
    3.1713  -10.1816   17.6634 C   0  0  0  0  0  0  0  0  0  0  0  0
    2.7878   -8.3822   16.2137 C   0  0  0  0  0  0  0  0  0  0  0  0
    9.4601   -2.6590   25.6528 C   0  0  0  0  0  0  0  0  0  0  0  0
   10.1182   -1.5672   23.1165 C   0  0  0  0  0  0  0  0  0  0  0  0
    1.0552   -9.6360   17.0650 C   0  0  0  0  0  0  0  0  0  0  0  0
    3.6519   -9.1783   16.9039 C   0  0  0  0  0  0  0  0  0  0  0  0
    7.8675   -7.0096   15.9415 C   0  0  0  0  0  0  0  0  0  0  0  0
    5.9733   -9.6553   17.3832 N   0  0  0  0  0  0  0  0  0  0  0  0
   10.2411   -2.9363   23.4301 C   0  0  0  0  0  0  0  0  0  0  0  0
   10.7288   -3.8197   19.9525 C   0  0  0  0  0  0  0  0  0  0  0  0
   10.1189   -5.0054   19.6987 C   0  0  0  0  0  0  0  0  0  0  0  0
  1  3  4  0
  1  7  4  0
  2 21  4  0
  2 27  4  0
  3  9  4  0
  3 10  4  0
  4  8  4  0
  4 18  4  0
  4 25  1  0
  5  9  4  0
  5 12  4  0
  6 13  1  0
  6 27  1  0
  7 28  4  0
  8 11  4  0
  9 29  4  0
 10 12  4  0
 11 24  1  0
 11 26  4  0
 12 25  1  0
 13 28  1  0
 14 20  4  0
 14 23  4  0
 15 17  4  0
 15 21  4  0
 16 19  4  0
 16 23  4  0
 17 22  4  0
 18 26  4  0
 19 24  4  0
 20 24  4  0
 22 27  4  0
 28 29  4  0
M  END
$$$$

 Created by Python create_sdf_string function

 29 33  0  0  0  0  0  0  0  0999 V2000
   10.7215   -3.3326   17.6437 C   0  0  0  0  0  0  0  0  0  0  0  0
    9.9489   -3.4675   24.6487 N   0  0  0  0  0  0  0  0  0  0  0  0
   10.0172   -4.4740   17.4101 C   0  0  0  0  0  0  0  0  0  0  0  0
    6.9051   -7.9575   16.4222 C   0  0  0  0  0  0  0  0  0  0  0  0
    8.9969   -6.3552   17.9668 N   0  0  0  0  0  0  0  0  0  0  0  0
   10.6702   -3.9051   22.4070 C   0  0  0  0  0  0  0  0  0  0  0  0
   11.0625   -3.0028   18.8894 C   0  0  0  0  0  0  0  0  0  0  0  0
    5.6180   -7.9194   16.1754 O   0  0  0  0  0  0  0  0  0  0  0  0
    9.7259   -5.3080   18.4485 C   0  0  0  0  0  0  0  0  0  0  0  0
    9.4578   -5.0200   16.3036 N   0  0  0  0  0  0  0  0  0  0  0  0
    5.0287   -8.9365   16.8223 C   0  0  0  0  0  0  0  0  0  0  0  0
    8.7742   -6.1498   16.6764 C   0  0  0  0  0  0  0  0  0  0  0  0
   10.9418   -3.4032   21.2053 O   0  0  0  0  0  0  0  0  0  0  0  0
    1.4797   -8.6258   16.2950 C   0  0  0  0  0  0  0  0  0  0  0  0
    9.2861   -1.2743   25.3585 C   0  0  0  0  0  0  0  0  0  0  0  0
    1.8892  -10.3985   17.7511 N   0  0  0  0  0  0  0  0  0  0  0  0
    9.6210   -0.6952   24.0976 C   0  0  0  0  0  0  0  0  0  0  0  0
    7.0792   -9.0217   17.1429 C   0  0  0  0  0  0  0  0  0  0  0  0
    3.1713  -10.1816   17.6634 C   0  0  0  0  0  0  0  0  0  0  0  0
    2.7878   -8.3822   16.2137 C   0  0  0  0  0  0  0  0  0  0  0  0
    9.4601   -2.6590   25.6528 C   0  0  0  0  0  0  0  0  0  0  0  0
   10.1182   -1.5672   23.1165 C   0  0  0  0  0  0  0  0  0  0  0  0
    1.0552   -9.6360   17.0650 C   0  0  0  0  0  0  0  0  0  0  0  0
    3.6519   -9.1783   16.9039 C   0  0  0  0  0  0  0  0  0  0  0  0
    7.8675   -7.0096   15.9415 C   0  0  0  0  0  0  0  0  0  0  0  0
    5.9733   -9.6553   17.3832 N   0  0  0  0  0  0  0  0  0  0  0  0
   10.2411   -2.9363   23.4301 C   0  0  0  0  0  0  0  0  0  0  0  0
   10.7288   -3.8197   19.9525 C   0  0  0  0  0  0  0  0  0  0  0  0
   10.1189   -5.0054   19.6987 C   0  0  0  0  0  0  0  0  0  0  0  0
  1  3  4  0
  1  7  4  0
  2 21  4  0
  2 27  4  0
  3  9  4  0
  3 10  4  0
  4  8  4  0
  4 18  4  0
  4 25  1  0
  5  9  4  0
  5 12  4  0
  6 13  1  0
  6 27  1  0
  7 28  4  0
  8 11  4  0
  9 29  4  0
 10 12  4  0
 11 24  1  0
 11 26  4  0
 12 25  1  0
 13 28  1  0
 14 20  4  0
 14 23  4  0
 15 17  4  0
 15 21  4  0
 16 19  4  0
 16 23  4  0
 17 22  4  0
 18 26  4  0
 19 24  4  0
 20 24  4  0
 22 27  4  0
 28 29  4  0
M  END
$$$$

 Created by Python create_sdf_string function

 29 33  0  0  0  0  0  0  0  0999 V2000
   10.7215   -3.3326   17.6437 C   0  0  0  0  0  0  0  0  0  0  0  0
    9.9489   -3.4675   24.6487 N   0  0  0  0  0  0  0  0  0  0  0  0
   10.0172   -4.4740   17.4101 C   0  0  0  0  0  0  0  0  0  0  0  0
    6.9051   -7.9575   16.4222 C   0  0  0  0  0  0  0  0  0  0  0  0
    8.9969   -6.3552   17.9668 N   0  0  0  0  0  0  0  0  0  0  0  0
   10.6702   -3.9051   22.4070 C   0  0  0  0  0  0  0  0  0  0  0  0
   11.0625   -3.0028   18.8894 C   0  0  0  0  0  0  0  0  0  0  0  0
    5.6180   -7.9194   16.1754 O   0  0  0  0  0  0  0  0  0  0  0  0
    9.7259   -5.3080   18.4485 C   0  0  0  0  0  0  0  0  0  0  0  0
    9.4578   -5.0200   16.3036 N   0  0  0  0  0  0  0  0  0  0  0  0
    5.0287   -8.9365   16.8223 C   0  0  0  0  0  0  0  0  0  0  0  0
    8.7742   -6.1498   16.6764 C   0  0  0  0  0  0  0  0  0  0  0  0
   10.9418   -3.4032   21.2053 O   0  0  0  0  0  0  0  0  0  0  0  0
    1.4797   -8.6258   16.2950 C   0  0  0  0  0  0  0  0  0  0  0  0
    9.2861   -1.2743   25.3585 C   0  0  0  0  0  0  0  0  0  0  0  0
    1.8892  -10.3985   17.7511 N   0  0  0  0  0  0  0  0  0  0  0  0
    9.6210   -0.6952   24.0976 C   0  0  0  0  0  0  0  0  0  0  0  0
    7.0792   -9.0217   17.1429 C   0  0  0  0  0  0  0  0  0  0  0  0
    3.1713  -10.1816   17.6634 C   0  0  0  0  0  0  0  0  0  0  0  0
    2.7878   -8.3822   16.2137 C   0  0  0  0  0  0  0  0  0  0  0  0
    9.4601   -2.6590   25.6528 C   0  0  0  0  0  0  0  0  0  0  0  0
   10.1182   -1.5672   23.1165 C   0  0  0  0  0  0  0  0  0  0  0  0
    1.0552   -9.6360   17.0650 C   0  0  0  0  0  0  0  0  0  0  0  0
    3.6519   -9.1783   16.9039 C   0  0  0  0  0  0  0  0  0  0  0  0
    7.8675   -7.0096   15.9415 C   0  0  0  0  0  0  0  0  0  0  0  0
    5.9733   -9.6553   17.3832 N   0  0  0  0  0  0  0  0  0  0  0  0
   10.2411   -2.9363   23.4301 C   0  0  0  0  0  0  0  0  0  0  0  0
   10.7288   -3.8197   19.9525 C   0  0  0  0  0  0  0  0  0  0  0  0
   10.1189   -5.0054   19.6987 C   0  0  0  0  0  0  0  0  0  0  0  0
  1  3  4  0
  1  7  4  0
  2 21  4  0
  2 27  4  0
  3  9  4  0
  3 10  4  0
  4  8  4  0
  4 18  4  0
  4 25  1  0
  5  9  4  0
  5 12  4  0
  6 13  1  0
  6 27  1  0
  7 28  4  0
  8 11  4  0
  9 29  4  0
 10 12  4  0
 11 24  1  0
 11 26  4  0
 12 25  1  0
 13 28  1  0
 14 20  4  0
 14 23  4  0
 15 17  4  0
 15 21  4  0
 16 19  4  0
 16 23  4  0
 17 22  4  0
 18 26  4  0
 19 24  4  0
 20 24  4  0
 22 27  4  0
 28 29  4  0
M  END
$$$$

 Created by Python create_sdf_string function

 29 33  0  0  0  0  0  0  0  0999 V2000
   10.7215   -3.3326   17.6437 C   0  0  0  0  0  0  0  0  0  0  0  0
    9.9489   -3.4675   24.6487 N   0  0  0  0  0  0  0  0  0  0  0  0
   10.0172   -4.4740   17.4101 C   0  0  0  0  0  0  0  0  0  0  0  0
    6.9051   -7.9575   16.4222 C   0  0  0  0  0  0  0  0  0  0  0  0
    8.9969   -6.3552   17.9668 N   0  0  0  0  0  0  0  0  0  0  0  0
   10.6702   -3.9051   22.4070 C   0  0  0  0  0  0  0  0  0  0  0  0
   11.0625   -3.0028   18.8894 C   0  0  0  0  0  0  0  0  0  0  0  0
    5.6180   -7.9194   16.1754 O   0  0  0  0  0  0  0  0  0  0  0  0
    9.7259   -5.3080   18.4485 C   0  0  0  0  0  0  0  0  0  0  0  0
    9.4578   -5.0200   16.3036 N   0  0  0  0  0  0  0  0  0  0  0  0
    5.0287   -8.9365   16.8223 C   0  0  0  0  0  0  0  0  0  0  0  0
    8.7742   -6.1498   16.6764 C   0  0  0  0  0  0  0  0  0  0  0  0
   10.9418   -3.4032   21.2053 O   0  0  0  0  0  0  0  0  0  0  0  0
    1.4797   -8.6258   16.2950 C   0  0  0  0  0  0  0  0  0  0  0  0
    9.2861   -1.2743   25.3585 C   0  0  0  0  0  0  0  0  0  0  0  0
    1.8892  -10.3985   17.7511 N   0  0  0  0  0  0  0  0  0  0  0  0
    9.6210   -0.6952   24.0976 C   0  0  0  0  0  0  0  0  0  0  0  0
    7.0792   -9.0217   17.1429 C   0  0  0  0  0  0  0  0  0  0  0  0
    3.1713  -10.1816   17.6634 C   0  0  0  0  0  0  0  0  0  0  0  0
    2.7878   -8.3822   16.2137 C   0  0  0  0  0  0  0  0  0  0  0  0
    9.4601   -2.6590   25.6528 C   0  0  0  0  0  0  0  0  0  0  0  0
   10.1182   -1.5672   23.1165 C   0  0  0  0  0  0  0  0  0  0  0  0
    1.0552   -9.6360   17.0650 C   0  0  0  0  0  0  0  0  0  0  0  0
    3.6519   -9.1783   16.9039 C   0  0  0  0  0  0  0  0  0  0  0  0
    7.8675   -7.0096   15.9415 C   0  0  0  0  0  0  0  0  0  0  0  0
    5.9733   -9.6553   17.3832 N   0  0  0  0  0  0  0  0  0  0  0  0
   10.2411   -2.9363   23.4301 C   0  0  0  0  0  0  0  0  0  0  0  0
   10.7288   -3.8197   19.9525 C   0  0  0  0  0  0  0  0  0  0  0  0
   10.1189   -5.0054   19.6987 C   0  0  0  0  0  0  0  0  0  0  0  0
  1  3  4  0
  1  7  4  0
  2 21  4  0
  2 27  4  0
  3  9  4  0
  3 10  4  0
  4  8  4  0
  4 18  4  0
  4 25  1  0
  5  9  4  0
  5 12  4  0
  6 13  1  0
  6 27  1  0
  7 28  4  0
  8 11  4  0
  9 29  4  0
 10 12  4  0
 11 24  1  0
 11 26  4  0
 12 25  1  0
 13 28  1  0
 14 20  4  0
 14 23  4  0
 15 17  4  0
 15 21  4  0
 16 19  4  0
 16 23  4  0
 17 22  4  0
 18 26  4  0
 19 24  4  0
 20 24  4  0
 22 27  4  0
 28 29  4  0
M  END
$$$$

 Created by Python create_sdf_string function

 29 33  0  0  0  0  0  0  0  0999 V2000
   10.7215   -3.3326   17.6437 C   0  0  0  0  0  0  0  0  0  0  0  0
    9.9489   -3.4675   24.6487 N   0  0  0  0  0  0  0  0  0  0  0  0
   10.0172   -4.4740   17.4101 C   0  0  0  0  0  0  0  0  0  0  0  0
    6.9051   -7.9575   16.4222 C   0  0  0  0  0  0  0  0  0  0  0  0
    8.9969   -6.3552   17.9668 N   0  0  0  0  0  0  0  0  0  0  0  0
   10.6702   -3.9051   22.4070 C   0  0  0  0  0  0  0  0  0  0  0  0
   11.0625   -3.0028   18.8894 C   0  0  0  0  0  0  0  0  0  0  0  0
    5.6180   -7.9194   16.1754 O   0  0  0  0  0  0  0  0  0  0  0  0
    9.7259   -5.3080   18.4485 C   0  0  0  0  0  0  0  0  0  0  0  0
    9.4578   -5.0200   16.3036 N   0  0  0  0  0  0  0  0  0  0  0  0
    5.0287   -8.9365   16.8223 C   0  0  0  0  0  0  0  0  0  0  0  0
    8.7742   -6.1498   16.6764 C   0  0  0  0  0  0  0  0  0  0  0  0
   10.9418   -3.4032   21.2053 O   0  0  0  0  0  0  0  0  0  0  0  0
    1.4797   -8.6258   16.2950 C   0  0  0  0  0  0  0  0  0  0  0  0
    9.2861   -1.2743   25.3585 C   0  0  0  0  0  0  0  0  0  0  0  0
    1.8892  -10.3985   17.7511 N   0  0  0  0  0  0  0  0  0  0  0  0
    9.6210   -0.6952   24.0976 C   0  0  0  0  0  0  0  0  0  0  0  0
    7.0792   -9.0217   17.1429 C   0  0  0  0  0  0  0  0  0  0  0  0
    3.1713  -10.1816   17.6634 C   0  0  0  0  0  0  0  0  0  0  0  0
    2.7878   -8.3822   16.2137 C   0  0  0  0  0  0  0  0  0  0  0  0
    9.4601   -2.6590   25.6528 C   0  0  0  0  0  0  0  0  0  0  0  0
   10.1182   -1.5672   23.1165 C   0  0  0  0  0  0  0  0  0  0  0  0
    1.0552   -9.6360   17.0650 C   0  0  0  0  0  0  0  0  0  0  0  0
    3.6519   -9.1783   16.9039 C   0  0  0  0  0  0  0  0  0  0  0  0
    7.8675   -7.0096   15.9415 C   0  0  0  0  0  0  0  0  0  0  0  0
    5.9733   -9.6553   17.3832 N   0  0  0  0  0  0  0  0  0  0  0  0
   10.2411   -2.9363   23.4301 C   0  0  0  0  0  0  0  0  0  0  0  0
   10.7288   -3.8197   19.9525 C   0  0  0  0  0  0  0  0  0  0  0  0
   10.1189   -5.0054   19.6987 C   0  0  0  0  0  0  0  0  0  0  0  0
  1  3  4  0
  1  7  4  0
  2 21  4  0
  2 27  4  0
  3  9  4  0
  3 10  4  0
  4  8  4  0
  4 18  4  0
  4 25  1  0
  5  9  4  0
  5 12  4  0
  6 13  1  0
  6 27  1  0
  7 28  4  0
  8 11  4  0
  9 29  4  0
 10 12  4  0
 11 24  1  0
 11 26  4  0
 12 25  1  0
 13 28  1  0
 14 20  4  0
 14 23  4  0
 15 17  4  0
 15 21  4  0
 16 19  4  0
 16 23  4  0
 17 22  4  0
 18 26  4  0
 19 24  4  0
 20 24  4  0
 22 27  4  0
 28 29  4  0
M  END
$$$$

 Created by Python create_sdf_string function

 29 33  0  0  0  0  0  0  0  0999 V2000
   10.7215   -3.3326   17.6437 C   0  0  0  0  0  0  0  0  0  0  0  0
    9.9489   -3.4675   24.6487 N   0  0  0  0  0  0  0  0  0  0  0  0
   10.0172   -4.4740   17.4101 C   0  0  0  0  0  0  0  0  0  0  0  0
    6.9051   -7.9575   16.4222 C   0  0  0  0  0  0  0  0  0  0  0  0
    8.9969   -6.3552   17.9668 N   0  0  0  0  0  0  0  0  0  0  0  0
   10.6702   -3.9051   22.4070 C   0  0  0  0  0  0  0  0  0  0  0  0
   11.0625   -3.0028   18.8894 C   0  0  0  0  0  0  0  0  0  0  0  0
    5.6180   -7.9194   16.1754 O   0  0  0  0  0  0  0  0  0  0  0  0
    9.7259   -5.3080   18.4485 C   0  0  0  0  0  0  0  0  0  0  0  0
    9.4578   -5.0200   16.3036 N   0  0  0  0  0  0  0  0  0  0  0  0
    5.0287   -8.9365   16.8223 C   0  0  0  0  0  0  0  0  0  0  0  0
    8.7742   -6.1498   16.6764 C   0  0  0  0  0  0  0  0  0  0  0  0
   10.9418   -3.4032   21.2053 O   0  0  0  0  0  0  0  0  0  0  0  0
    1.4797   -8.6258   16.2950 C   0  0  0  0  0  0  0  0  0  0  0  0
    9.2861   -1.2743   25.3585 C   0  0  0  0  0  0  0  0  0  0  0  0
    1.8892  -10.3985   17.7511 N   0  0  0  0  0  0  0  0  0  0  0  0
    9.6210   -0.6952   24.0976 C   0  0  0  0  0  0  0  0  0  0  0  0
    7.0792   -9.0217   17.1429 C   0  0  0  0  0  0  0  0  0  0  0  0
    3.1713  -10.1816   17.6634 C   0  0  0  0  0  0  0  0  0  0  0  0
    2.7878   -8.3822   16.2137 C   0  0  0  0  0  0  0  0  0  0  0  0
    9.4601   -2.6590   25.6528 C   0  0  0  0  0  0  0  0  0  0  0  0
   10.1182   -1.5672   23.1165 C   0  0  0  0  0  0  0  0  0  0  0  0
    1.0552   -9.6360   17.0650 C   0  0  0  0  0  0  0  0  0  0  0  0
    3.6519   -9.1783   16.9039 C   0  0  0  0  0  0  0  0  0  0  0  0
    7.8675   -7.0096   15.9415 C   0  0  0  0  0  0  0  0  0  0  0  0
    5.9733   -9.6553   17.3832 N   0  0  0  0  0  0  0  0  0  0  0  0
   10.2411   -2.9363   23.4301 C   0  0  0  0  0  0  0  0  0  0  0  0
   10.7288   -3.8197   19.9525 C   0  0  0  0  0  0  0  0  0  0  0  0
   10.1189   -5.0054   19.6987 C   0  0  0  0  0  0  0  0  0  0  0  0
  1  3  4  0
  1  7  4  0
  2 21  4  0
  2 27  4  0
  3  9  4  0
  3 10  4  0
  4  8  4  0
  4 18  4  0
  4 25  1  0
  5  9  4  0
  5 12  4  0
  6 13  1  0
  6 27  1  0
  7 28  4  0
  8 11  4  0
  9 29  4  0
 10 12  4  0
 11 24  1  0
 11 26  4  0
 12 25  1  0
 13 28  1  0
 14 20  4  0
 14 23  4  0
 15 17  4  0
 15 21  4  0
 16 19  4  0
 16 23  4  0
 17 22  4  0
 18 26  4  0
 19 24  4  0
 20 24  4  0
 22 27  4  0
 28 29  4  0
M  END
$$$$

 Created by Python create_sdf_string function

 29 33  0  0  0  0  0  0  0  0999 V2000
   10.7215   -3.3326   17.6437 C   0  0  0  0  0  0  0  0  0  0  0  0
    9.9489   -3.4675   24.6487 N   0  0  0  0  0  0  0  0  0  0  0  0
   10.0172   -4.4740   17.4101 C   0  0  0  0  0  0  0  0  0  0  0  0
    6.9051   -7.9575   16.4222 C   0  0  0  0  0  0  0  0  0  0  0  0
    8.9969   -6.3552   17.9668 N   0  0  0  0  0  0  0  0  0  0  0  0
   10.6702   -3.9051   22.4070 C   0  0  0  0  0  0  0  0  0  0  0  0
   11.0625   -3.0028   18.8894 C   0  0  0  0  0  0  0  0  0  0  0  0
    5.6180   -7.9194   16.1754 O   0  0  0  0  0  0  0  0  0  0  0  0
    9.7259   -5.3080   18.4485 C   0  0  0  0  0  0  0  0  0  0  0  0
    9.4578   -5.0200   16.3036 N   0  0  0  0  0  0  0  0  0  0  0  0
    5.0287   -8.9365   16.8223 C   0  0  0  0  0  0  0  0  0  0  0  0
    8.7742   -6.1498   16.6764 C   0  0  0  0  0  0  0  0  0  0  0  0
   10.9418   -3.4032   21.2053 O   0  0  0  0  0  0  0  0  0  0  0  0
    1.4797   -8.6258   16.2950 C   0  0  0  0  0  0  0  0  0  0  0  0
    9.2861   -1.2743   25.3585 C   0  0  0  0  0  0  0  0  0  0  0  0
    1.8892  -10.3985   17.7511 N   0  0  0  0  0  0  0  0  0  0  0  0
    9.6210   -0.6952   24.0976 C   0  0  0  0  0  0  0  0  0  0  0  0
    7.0792   -9.0217   17.1429 C   0  0  0  0  0  0  0  0  0  0  0  0
    3.1713  -10.1816   17.6634 C   0  0  0  0  0  0  0  0  0  0  0  0
    2.7878   -8.3822   16.2137 C   0  0  0  0  0  0  0  0  0  0  0  0
    9.4601   -2.6590   25.6528 C   0  0  0  0  0  0  0  0  0  0  0  0
   10.1182   -1.5672   23.1165 C   0  0  0  0  0  0  0  0  0  0  0  0
    1.0552   -9.6360   17.0650 C   0  0  0  0  0  0  0  0  0  0  0  0
    3.6519   -9.1783   16.9039 C   0  0  0  0  0  0  0  0  0  0  0  0
    7.8675   -7.0096   15.9415 C   0  0  0  0  0  0  0  0  0  0  0  0
    5.9733   -9.6553   17.3832 N   0  0  0  0  0  0  0  0  0  0  0  0
   10.2411   -2.9363   23.4301 C   0  0  0  0  0  0  0  0  0  0  0  0
   10.7288   -3.8197   19.9525 C   0  0  0  0  0  0  0  0  0  0  0  0
   10.1189   -5.0054   19.6987 C   0  0  0  0  0  0  0  0  0  0  0  0
  1  3  4  0
  1  7  4  0
  2 21  4  0
  2 27  4  0
  3  9  4  0
  3 10  4  0
  4  8  4  0
  4 18  4  0
  4 25  1  0
  5  9  4  0
  5 12  4  0
  6 13  1  0
  6 27  1  0
  7 28  4  0
  8 11  4  0
  9 29  4  0
 10 12  4  0
 11 24  1  0
 11 26  4  0
 12 25  1  0
 13 28  1  0
 14 20  4  0
 14 23  4  0
 15 17  4  0
 15 21  4  0
 16 19  4  0
 16 23  4  0
 17 22  4  0
 18 26  4  0
 19 24  4  0
 20 24  4  0
 22 27  4  0
 28 29  4  0
M  END
$$$$

 Created by Python create_sdf_string function

 29 33  0  0  0  0  0  0  0  0999 V2000
   10.7215   -3.3326   17.6437 C   0  0  0  0  0  0  0  0  0  0  0  0
    9.9489   -3.4675   24.6487 N   0  0  0  0  0  0  0  0  0  0  0  0
   10.0172   -4.4740   17.4101 C   0  0  0  0  0  0  0  0  0  0  0  0
    6.9051   -7.9575   16.4222 C   0  0  0  0  0  0  0  0  0  0  0  0
    8.9969   -6.3552   17.9668 N   0  0  0  0  0  0  0  0  0  0  0  0
   10.6702   -3.9051   22.4070 C   0  0  0  0  0  0  0  0  0  0  0  0
   11.0625   -3.0028   18.8894 C   0  0  0  0  0  0  0  0  0  0  0  0
    5.6180   -7.9194   16.1754 O   0  0  0  0  0  0  0  0  0  0  0  0
    9.7259   -5.3080   18.4485 C   0  0  0  0  0  0  0  0  0  0  0  0
    9.4578   -5.0200   16.3036 N   0  0  0  0  0  0  0  0  0  0  0  0
    5.0287   -8.9365   16.8223 C   0  0  0  0  0  0  0  0  0  0  0  0
    8.7742   -6.1498   16.6764 C   0  0  0  0  0  0  0  0  0  0  0  0
   10.9418   -3.4032   21.2053 O   0  0  0  0  0  0  0  0  0  0  0  0
    1.4797   -8.6258   16.2950 C   0  0  0  0  0  0  0  0  0  0  0  0
    9.2861   -1.2743   25.3585 C   0  0  0  0  0  0  0  0  0  0  0  0
    1.8892  -10.3985   17.7511 N   0  0  0  0  0  0  0  0  0  0  0  0
    9.6210   -0.6952   24.0976 C   0  0  0  0  0  0  0  0  0  0  0  0
    7.0792   -9.0217   17.1429 C   0  0  0  0  0  0  0  0  0  0  0  0
    3.1713  -10.1816   17.6634 C   0  0  0  0  0  0  0  0  0  0  0  0
    2.7878   -8.3822   16.2137 C   0  0  0  0  0  0  0  0  0  0  0  0
    9.4601   -2.6590   25.6528 C   0  0  0  0  0  0  0  0  0  0  0  0
   10.1182   -1.5672   23.1165 C   0  0  0  0  0  0  0  0  0  0  0  0
    1.0552   -9.6360   17.0650 C   0  0  0  0  0  0  0  0  0  0  0  0
    3.6519   -9.1783   16.9039 C   0  0  0  0  0  0  0  0  0  0  0  0
    7.8675   -7.0096   15.9415 C   0  0  0  0  0  0  0  0  0  0  0  0
    5.9733   -9.6553   17.3832 N   0  0  0  0  0  0  0  0  0  0  0  0
   10.2411   -2.9363   23.4301 C   0  0  0  0  0  0  0  0  0  0  0  0
   10.7288   -3.8197   19.9525 C   0  0  0  0  0  0  0  0  0  0  0  0
   10.1189   -5.0054   19.6987 C   0  0  0  0  0  0  0  0  0  0  0  0
  1  3  4  0
  1  7  4  0
  2 21  4  0
  2 27  4  0
  3  9  4  0
  3 10  4  0
  4  8  4  0
  4 18  4  0
  4 25  1  0
  5  9  4  0
  5 12  4  0
  6 13  1  0
  6 27  1  0
  7 28  4  0
  8 11  4  0
  9 29  4  0
 10 12  4  0
 11 24  1  0
 11 26  4  0
 12 25  1  0
 13 28  1  0
 14 20  4  0
 14 23  4  0
 15 17  4  0
 15 21  4  0
 16 19  4  0
 16 23  4  0
 17 22  4  0
 18 26  4  0
 19 24  4  0
 20 24  4  0
 22 27  4  0
 28 29  4  0
M  END
$$$$

 Created by Python create_sdf_string function

 29 33  0  0  0  0  0  0  0  0999 V2000
   10.7215   -3.3326   17.6437 C   0  0  0  0  0  0  0  0  0  0  0  0
    9.9489   -3.4675   24.6487 N   0  0  0  0  0  0  0  0  0  0  0  0
   10.0172   -4.4740   17.4101 C   0  0  0  0  0  0  0  0  0  0  0  0
    6.9051   -7.9575   16.4222 C   0  0  0  0  0  0  0  0  0  0  0  0
    8.9969   -6.3552   17.9668 N   0  0  0  0  0  0  0  0  0  0  0  0
   10.6702   -3.9051   22.4070 C   0  0  0  0  0  0  0  0  0  0  0  0
   11.0625   -3.0028   18.8894 C   0  0  0  0  0  0  0  0  0  0  0  0
    5.6180   -7.9194   16.1754 O   0  0  0  0  0  0  0  0  0  0  0  0
    9.7259   -5.3080   18.4485 C   0  0  0  0  0  0  0  0  0  0  0  0
    9.4578   -5.0200   16.3036 N   0  0  0  0  0  0  0  0  0  0  0  0
    5.0287   -8.9365   16.8223 C   0  0  0  0  0  0  0  0  0  0  0  0
    8.7742   -6.1498   16.6764 C   0  0  0  0  0  0  0  0  0  0  0  0
   10.9418   -3.4032   21.2053 O   0  0  0  0  0  0  0  0  0  0  0  0
    1.4797   -8.6258   16.2950 C   0  0  0  0  0  0  0  0  0  0  0  0
    9.2861   -1.2743   25.3585 C   0  0  0  0  0  0  0  0  0  0  0  0
    1.8892  -10.3985   17.7511 N   0  0  0  0  0  0  0  0  0  0  0  0
    9.6210   -0.6952   24.0976 C   0  0  0  0  0  0  0  0  0  0  0  0
    7.0792   -9.0217   17.1429 C   0  0  0  0  0  0  0  0  0  0  0  0
    3.1713  -10.1816   17.6634 C   0  0  0  0  0  0  0  0  0  0  0  0
    2.7878   -8.3822   16.2137 C   0  0  0  0  0  0  0  0  0  0  0  0
    9.4601   -2.6590   25.6528 C   0  0  0  0  0  0  0  0  0  0  0  0
   10.1182   -1.5672   23.1165 C   0  0  0  0  0  0  0  0  0  0  0  0
    1.0552   -9.6360   17.0650 C   0  0  0  0  0  0  0  0  0  0  0  0
    3.6519   -9.1783   16.9039 C   0  0  0  0  0  0  0  0  0  0  0  0
    7.8675   -7.0096   15.9415 C   0  0  0  0  0  0  0  0  0  0  0  0
    5.9733   -9.6553   17.3832 N   0  0  0  0  0  0  0  0  0  0  0  0
   10.2411   -2.9363   23.4301 C   0  0  0  0  0  0  0  0  0  0  0  0
   10.7288   -3.8197   19.9525 C   0  0  0  0  0  0  0  0  0  0  0  0
   10.1189   -5.0054   19.6987 C   0  0  0  0  0  0  0  0  0  0  0  0
  1  3  4  0
  1  7  4  0
  2 21  4  0
  2 27  4  0
  3  9  4  0
  3 10  4  0
  4  8  4  0
  4 18  4  0
  4 25  1  0
  5  9  4  0
  5 12  4  0
  6 13  1  0
  6 27  1  0
  7 28  4  0
  8 11  4  0
  9 29  4  0
 10 12  4  0
 11 24  1  0
 11 26  4  0
 12 25  1  0
 13 28  1  0
 14 20  4  0
 14 23  4  0
 15 17  4  0
 15 21  4  0
 16 19  4  0
 16 23  4  0
 17 22  4  0
 18 26  4  0
 19 24  4  0
 20 24  4  0
 22 27  4  0
 28 29  4  0
M  END
$$$$

 Created by Python create_sdf_string function

 29 33  0  0  0  0  0  0  0  0999 V2000
   10.7215   -3.3326   17.6437 C   0  0  0  0  0  0  0  0  0  0  0  0
    9.9489   -3.4675   24.6487 N   0  0  0  0  0  0  0  0  0  0  0  0
   10.0172   -4.4740   17.4101 C   0  0  0  0  0  0  0  0  0  0  0  0
    6.9051   -7.9575   16.4222 C   0  0  0  0  0  0  0  0  0  0  0  0
    8.9969   -6.3552   17.9668 N   0  0  0  0  0  0  0  0  0  0  0  0
   10.6702   -3.9051   22.4070 C   0  0  0  0  0  0  0  0  0  0  0  0
   11.0625   -3.0028   18.8894 C   0  0  0  0  0  0  0  0  0  0  0  0
    5.6180   -7.9194   16.1754 O   0  0  0  0  0  0  0  0  0  0  0  0
    9.7259   -5.3080   18.4485 C   0  0  0  0  0  0  0  0  0  0  0  0
    9.4578   -5.0200   16.3036 N   0  0  0  0  0  0  0  0  0  0  0  0
    5.0287   -8.9365   16.8223 C   0  0  0  0  0  0  0  0  0  0  0  0
    8.7742   -6.1498   16.6764 C   0  0  0  0  0  0  0  0  0  0  0  0
   10.9418   -3.4032   21.2053 O   0  0  0  0  0  0  0  0  0  0  0  0
    1.4797   -8.6258   16.2950 C   0  0  0  0  0  0  0  0  0  0  0  0
    9.2861   -1.2743   25.3585 C   0  0  0  0  0  0  0  0  0  0  0  0
    1.8892  -10.3985   17.7511 N   0  0  0  0  0  0  0  0  0  0  0  0
    9.6210   -0.6952   24.0976 C   0  0  0  0  0  0  0  0  0  0  0  0
    7.0792   -9.0217   17.1429 C   0  0  0  0  0  0  0  0  0  0  0  0
    3.1713  -10.1816   17.6634 C   0  0  0  0  0  0  0  0  0  0  0  0
    2.7878   -8.3822   16.2137 C   0  0  0  0  0  0  0  0  0  0  0  0
    9.4601   -2.6590   25.6528 C   0  0  0  0  0  0  0  0  0  0  0  0
   10.1182   -1.5672   23.1165 C   0  0  0  0  0  0  0  0  0  0  0  0
    1.0552   -9.6360   17.0650 C   0  0  0  0  0  0  0  0  0  0  0  0
    3.6519   -9.1783   16.9039 C   0  0  0  0  0  0  0  0  0  0  0  0
    7.8675   -7.0096   15.9415 C   0  0  0  0  0  0  0  0  0  0  0  0
    5.9733   -9.6553   17.3832 N   0  0  0  0  0  0  0  0  0  0  0  0
   10.2411   -2.9363   23.4301 C   0  0  0  0  0  0  0  0  0  0  0  0
   10.7288   -3.8197   19.9525 C   0  0  0  0  0  0  0  0  0  0  0  0
   10.1189   -5.0054   19.6987 C   0  0  0  0  0  0  0  0  0  0  0  0
  1  3  4  0
  1  7  4  0
  2 21  4  0
  2 27  4  0
  3  9  4  0
  3 10  4  0
  4  8  4  0
  4 18  4  0
  4 25  1  0
  5  9  4  0
  5 12  4  0
  6 13  1  0
  6 27  1  0
  7 28  4  0
  8 11  4  0
  9 29  4  0
 10 12  4  0
 11 24  1  0
 11 26  4  0
 12 25  1  0
 13 28  1  0
 14 20  4  0
 14 23  4  0
 15 17  4  0
 15 21  4  0
 16 19  4  0
 16 23  4  0
 17 22  4  0
 18 26  4  0
 19 24  4  0
 20 24  4  0
 22 27  4  0
 28 29  4  0
M  END
$$$$

 Created by Python create_sdf_string function

 29 33  0  0  0  0  0  0  0  0999 V2000
   10.7215   -3.3326   17.6437 C   0  0  0  0  0  0  0  0  0  0  0  0
    9.9489   -3.4675   24.6487 N   0  0  0  0  0  0  0  0  0  0  0  0
   10.0172   -4.4740   17.4101 C   0  0  0  0  0  0  0  0  0  0  0  0
    6.9051   -7.9575   16.4222 C   0  0  0  0  0  0  0  0  0  0  0  0
    8.9969   -6.3552   17.9668 N   0  0  0  0  0  0  0  0  0  0  0  0
   10.6702   -3.9051   22.4070 C   0  0  0  0  0  0  0  0  0  0  0  0
   11.0625   -3.0028   18.8894 C   0  0  0  0  0  0  0  0  0  0  0  0
    5.6180   -7.9194   16.1754 O   0  0  0  0  0  0  0  0  0  0  0  0
    9.7259   -5.3080   18.4485 C   0  0  0  0  0  0  0  0  0  0  0  0
    9.4578   -5.0200   16.3036 N   0  0  0  0  0  0  0  0  0  0  0  0
    5.0287   -8.9365   16.8223 C   0  0  0  0  0  0  0  0  0  0  0  0
    8.7742   -6.1498   16.6764 C   0  0  0  0  0  0  0  0  0  0  0  0
   10.9418   -3.4032   21.2053 O   0  0  0  0  0  0  0  0  0  0  0  0
    1.4797   -8.6258   16.2950 C   0  0  0  0  0  0  0  0  0  0  0  0
    9.2861   -1.2743   25.3585 C   0  0  0  0  0  0  0  0  0  0  0  0
    1.8892  -10.3985   17.7511 N   0  0  0  0  0  0  0  0  0  0  0  0
    9.6210   -0.6952   24.0976 C   0  0  0  0  0  0  0  0  0  0  0  0
    7.0792   -9.0217   17.1429 C   0  0  0  0  0  0  0  0  0  0  0  0
    3.1713  -10.1816   17.6634 C   0  0  0  0  0  0  0  0  0  0  0  0
    2.7878   -8.3822   16.2137 C   0  0  0  0  0  0  0  0  0  0  0  0
    9.4601   -2.6590   25.6528 C   0  0  0  0  0  0  0  0  0  0  0  0
   10.1182   -1.5672   23.1165 C   0  0  0  0  0  0  0  0  0  0  0  0
    1.0552   -9.6360   17.0650 C   0  0  0  0  0  0  0  0  0  0  0  0
    3.6519   -9.1783   16.9039 C   0  0  0  0  0  0  0  0  0  0  0  0
    7.8675   -7.0096   15.9415 C   0  0  0  0  0  0  0  0  0  0  0  0
    5.9733   -9.6553   17.3832 N   0  0  0  0  0  0  0  0  0  0  0  0
   10.2411   -2.9363   23.4301 C   0  0  0  0  0  0  0  0  0  0  0  0
   10.7288   -3.8197   19.9525 C   0  0  0  0  0  0  0  0  0  0  0  0
   10.1189   -5.0054   19.6987 C   0  0  0  0  0  0  0  0  0  0  0  0
  1  3  4  0
  1  7  4  0
  2 21  4  0
  2 27  4  0
  3  9  4  0
  3 10  4  0
  4  8  4  0
  4 18  4  0
  4 25  1  0
  5  9  4  0
  5 12  4  0
  6 13  1  0
  6 27  1  0
  7 28  4  0
  8 11  4  0
  9 29  4  0
 10 12  4  0
 11 24  1  0
 11 26  4  0
 12 25  1  0
 13 28  1  0
 14 20  4  0
 14 23  4  0
 15 17  4  0
 15 21  4  0
 16 19  4  0
 16 23  4  0
 17 22  4  0
 18 26  4  0
 19 24  4  0
 20 24  4  0
 22 27  4  0
 28 29  4  0
M  END
$$$$

 Created by Python create_sdf_string function

 29 33  0  0  0  0  0  0  0  0999 V2000
   10.7215   -3.3326   17.6437 C   0  0  0  0  0  0  0  0  0  0  0  0
    9.9489   -3.4675   24.6487 N   0  0  0  0  0  0  0  0  0  0  0  0
   10.0172   -4.4740   17.4101 C   0  0  0  0  0  0  0  0  0  0  0  0
    6.9051   -7.9575   16.4222 C   0  0  0  0  0  0  0  0  0  0  0  0
    8.9969   -6.3552   17.9668 N   0  0  0  0  0  0  0  0  0  0  0  0
   10.6702   -3.9051   22.4070 C   0  0  0  0  0  0  0  0  0  0  0  0
   11.0625   -3.0028   18.8894 C   0  0  0  0  0  0  0  0  0  0  0  0
    5.6180   -7.9194   16.1754 O   0  0  0  0  0  0  0  0  0  0  0  0
    9.7259   -5.3080   18.4485 C   0  0  0  0  0  0  0  0  0  0  0  0
    9.4578   -5.0200   16.3036 N   0  0  0  0  0  0  0  0  0  0  0  0
    5.0287   -8.9365   16.8223 C   0  0  0  0  0  0  0  0  0  0  0  0
    8.7742   -6.1498   16.6764 C   0  0  0  0  0  0  0  0  0  0  0  0
   10.9418   -3.4032   21.2053 O   0  0  0  0  0  0  0  0  0  0  0  0
    1.4797   -8.6258   16.2950 C   0  0  0  0  0  0  0  0  0  0  0  0
    9.2861   -1.2743   25.3585 C   0  0  0  0  0  0  0  0  0  0  0  0
    1.8892  -10.3985   17.7511 N   0  0  0  0  0  0  0  0  0  0  0  0
    9.6210   -0.6952   24.0976 C   0  0  0  0  0  0  0  0  0  0  0  0
    7.0792   -9.0217   17.1429 C   0  0  0  0  0  0  0  0  0  0  0  0
    3.1713  -10.1816   17.6634 C   0  0  0  0  0  0  0  0  0  0  0  0
    2.7878   -8.3822   16.2137 C   0  0  0  0  0  0  0  0  0  0  0  0
    9.4601   -2.6590   25.6528 C   0  0  0  0  0  0  0  0  0  0  0  0
   10.1182   -1.5672   23.1165 C   0  0  0  0  0  0  0  0  0  0  0  0
    1.0552   -9.6360   17.0650 C   0  0  0  0  0  0  0  0  0  0  0  0
    3.6519   -9.1783   16.9039 C   0  0  0  0  0  0  0  0  0  0  0  0
    7.8675   -7.0096   15.9415 C   0  0  0  0  0  0  0  0  0  0  0  0
    5.9733   -9.6553   17.3832 N   0  0  0  0  0  0  0  0  0  0  0  0
   10.2411   -2.9363   23.4301 C   0  0  0  0  0  0  0  0  0  0  0  0
   10.7288   -3.8197   19.9525 C   0  0  0  0  0  0  0  0  0  0  0  0
   10.1189   -5.0054   19.6987 C   0  0  0  0  0  0  0  0  0  0  0  0
  1  3  4  0
  1  7  4  0
  2 21  4  0
  2 27  4  0
  3  9  4  0
  3 10  4  0
  4  8  4  0
  4 18  4  0
  4 25  1  0
  5  9  4  0
  5 12  4  0
  6 13  1  0
  6 27  1  0
  7 28  4  0
  8 11  4  0
  9 29  4  0
 10 12  4  0
 11 24  1  0
 11 26  4  0
 12 25  1  0
 13 28  1  0
 14 20  4  0
 14 23  4  0
 15 17  4  0
 15 21  4  0
 16 19  4  0
 16 23  4  0
 17 22  4  0
 18 26  4  0
 19 24  4  0
 20 24  4  0
 22 27  4  0
 28 29  4  0
M  END
$$$$

 Created by Python create_sdf_string function

 29 33  0  0  0  0  0  0  0  0999 V2000
   10.7215   -3.3326   17.6437 C   0  0  0  0  0  0  0  0  0  0  0  0
    9.9489   -3.4675   24.6487 N   0  0  0  0  0  0  0  0  0  0  0  0
   10.0172   -4.4740   17.4101 C   0  0  0  0  0  0  0  0  0  0  0  0
    6.9051   -7.9575   16.4222 C   0  0  0  0  0  0  0  0  0  0  0  0
    8.9969   -6.3552   17.9668 N   0  0  0  0  0  0  0  0  0  0  0  0
   10.6702   -3.9051   22.4070 C   0  0  0  0  0  0  0  0  0  0  0  0
   11.0625   -3.0028   18.8894 C   0  0  0  0  0  0  0  0  0  0  0  0
    5.6180   -7.9194   16.1754 O   0  0  0  0  0  0  0  0  0  0  0  0
    9.7259   -5.3080   18.4485 C   0  0  0  0  0  0  0  0  0  0  0  0
    9.4578   -5.0200   16.3036 N   0  0  0  0  0  0  0  0  0  0  0  0
    5.0287   -8.9365   16.8223 C   0  0  0  0  0  0  0  0  0  0  0  0
    8.7742   -6.1498   16.6764 C   0  0  0  0  0  0  0  0  0  0  0  0
   10.9418   -3.4032   21.2053 O   0  0  0  0  0  0  0  0  0  0  0  0
    1.4797   -8.6258   16.2950 C   0  0  0  0  0  0  0  0  0  0  0  0
    9.2861   -1.2743   25.3585 C   0  0  0  0  0  0  0  0  0  0  0  0
    1.8892  -10.3985   17.7511 N   0  0  0  0  0  0  0  0  0  0  0  0
    9.6210   -0.6952   24.0976 C   0  0  0  0  0  0  0  0  0  0  0  0
    7.0792   -9.0217   17.1429 C   0  0  0  0  0  0  0  0  0  0  0  0
    3.1713  -10.1816   17.6634 C   0  0  0  0  0  0  0  0  0  0  0  0
    2.7878   -8.3822   16.2137 C   0  0  0  0  0  0  0  0  0  0  0  0
    9.4601   -2.6590   25.6528 C   0  0  0  0  0  0  0  0  0  0  0  0
   10.1182   -1.5672   23.1165 C   0  0  0  0  0  0  0  0  0  0  0  0
    1.0552   -9.6360   17.0650 C   0  0  0  0  0  0  0  0  0  0  0  0
    3.6519   -9.1783   16.9039 C   0  0  0  0  0  0  0  0  0  0  0  0
    7.8675   -7.0096   15.9415 C   0  0  0  0  0  0  0  0  0  0  0  0
    5.9733   -9.6553   17.3832 N   0  0  0  0  0  0  0  0  0  0  0  0
   10.2411   -2.9363   23.4301 C   0  0  0  0  0  0  0  0  0  0  0  0
   10.7288   -3.8197   19.9525 C   0  0  0  0  0  0  0  0  0  0  0  0
   10.1189   -5.0054   19.6987 C   0  0  0  0  0  0  0  0  0  0  0  0
  1  3  4  0
  1  7  4  0
  2 21  4  0
  2 27  4  0
  3  9  4  0
  3 10  4  0
  4  8  4  0
  4 18  4  0
  4 25  1  0
  5  9  4  0
  5 12  4  0
  6 13  1  0
  6 27  1  0
  7 28  4  0
  8 11  4  0
  9 29  4  0
 10 12  4  0
 11 24  1  0
 11 26  4  0
 12 25  1  0
 13 28  1  0
 14 20  4  0
 14 23  4  0
 15 17  4  0
 15 21  4  0
 16 19  4  0
 16 23  4  0
 17 22  4  0
 18 26  4  0
 19 24  4  0
 20 24  4  0
 22 27  4  0
 28 29  4  0
M  END
$$$$

 Created by Python create_sdf_string function

 29 33  0  0  0  0  0  0  0  0999 V2000
   10.7215   -3.3326   17.6437 C   0  0  0  0  0  0  0  0  0  0  0  0
    9.9489   -3.4675   24.6487 N   0  0  0  0  0  0  0  0  0  0  0  0
   10.0172   -4.4740   17.4101 C   0  0  0  0  0  0  0  0  0  0  0  0
    6.9051   -7.9575   16.4222 C   0  0  0  0  0  0  0  0  0  0  0  0
    8.9969   -6.3552   17.9668 N   0  0  0  0  0  0  0  0  0  0  0  0
   10.6702   -3.9051   22.4070 C   0  0  0  0  0  0  0  0  0  0  0  0
   11.0625   -3.0028   18.8894 C   0  0  0  0  0  0  0  0  0  0  0  0
    5.6180   -7.9194   16.1754 O   0  0  0  0  0  0  0  0  0  0  0  0
    9.7259   -5.3080   18.4485 C   0  0  0  0  0  0  0  0  0  0  0  0
    9.4578   -5.0200   16.3036 N   0  0  0  0  0  0  0  0  0  0  0  0
    5.0287   -8.9365   16.8223 C   0  0  0  0  0  0  0  0  0  0  0  0
    8.7742   -6.1498   16.6764 C   0  0  0  0  0  0  0  0  0  0  0  0
   10.9418   -3.4032   21.2053 O   0  0  0  0  0  0  0  0  0  0  0  0
    1.4797   -8.6258   16.2950 C   0  0  0  0  0  0  0  0  0  0  0  0
    9.2861   -1.2743   25.3585 C   0  0  0  0  0  0  0  0  0  0  0  0
    1.8892  -10.3985   17.7511 N   0  0  0  0  0  0  0  0  0  0  0  0
    9.6210   -0.6952   24.0976 C   0  0  0  0  0  0  0  0  0  0  0  0
    7.0792   -9.0217   17.1429 C   0  0  0  0  0  0  0  0  0  0  0  0
    3.1713  -10.1816   17.6634 C   0  0  0  0  0  0  0  0  0  0  0  0
    2.7878   -8.3822   16.2137 C   0  0  0  0  0  0  0  0  0  0  0  0
    9.4601   -2.6590   25.6528 C   0  0  0  0  0  0  0  0  0  0  0  0
   10.1182   -1.5672   23.1165 C   0  0  0  0  0  0  0  0  0  0  0  0
    1.0552   -9.6360   17.0650 C   0  0  0  0  0  0  0  0  0  0  0  0
    3.6519   -9.1783   16.9039 C   0  0  0  0  0  0  0  0  0  0  0  0
    7.8675   -7.0096   15.9415 C   0  0  0  0  0  0  0  0  0  0  0  0
    5.9733   -9.6553   17.3832 N   0  0  0  0  0  0  0  0  0  0  0  0
   10.2411   -2.9363   23.4301 C   0  0  0  0  0  0  0  0  0  0  0  0
   10.7288   -3.8197   19.9525 C   0  0  0  0  0  0  0  0  0  0  0  0
   10.1189   -5.0054   19.6987 C   0  0  0  0  0  0  0  0  0  0  0  0
  1  3  4  0
  1  7  4  0
  2 21  4  0
  2 27  4  0
  3  9  4  0
  3 10  4  0
  4  8  4  0
  4 18  4  0
  4 25  1  0
  5  9  4  0
  5 12  4  0
  6 13  1  0
  6 27  1  0
  7 28  4  0
  8 11  4  0
  9 29  4  0
 10 12  4  0
 11 24  1  0
 11 26  4  0
 12 25  1  0
 13 28  1  0
 14 20  4  0
 14 23  4  0
 15 17  4  0
 15 21  4  0
 16 19  4  0
 16 23  4  0
 17 22  4  0
 18 26  4  0
 19 24  4  0
 20 24  4  0
 22 27  4  0
 28 29  4  0
M  END
$$$$

 Created by Python create_sdf_string function

 29 33  0  0  0  0  0  0  0  0999 V2000
   10.7215   -3.3326   17.6437 C   0  0  0  0  0  0  0  0  0  0  0  0
    9.9489   -3.4675   24.6487 N   0  0  0  0  0  0  0  0  0  0  0  0
   10.0172   -4.4740   17.4101 C   0  0  0  0  0  0  0  0  0  0  0  0
    6.9051   -7.9575   16.4222 C   0  0  0  0  0  0  0  0  0  0  0  0
    8.9969   -6.3552   17.9668 N   0  0  0  0  0  0  0  0  0  0  0  0
   10.6702   -3.9051   22.4070 C   0  0  0  0  0  0  0  0  0  0  0  0
   11.0625   -3.0028   18.8894 C   0  0  0  0  0  0  0  0  0  0  0  0
    5.6180   -7.9194   16.1754 O   0  0  0  0  0  0  0  0  0  0  0  0
    9.7259   -5.3080   18.4485 C   0  0  0  0  0  0  0  0  0  0  0  0
    9.4578   -5.0200   16.3036 N   0  0  0  0  0  0  0  0  0  0  0  0
    5.0287   -8.9365   16.8223 C   0  0  0  0  0  0  0  0  0  0  0  0
    8.7742   -6.1498   16.6764 C   0  0  0  0  0  0  0  0  0  0  0  0
   10.9418   -3.4032   21.2053 O   0  0  0  0  0  0  0  0  0  0  0  0
    1.4797   -8.6258   16.2950 C   0  0  0  0  0  0  0  0  0  0  0  0
    9.2861   -1.2743   25.3585 C   0  0  0  0  0  0  0  0  0  0  0  0
    1.8892  -10.3985   17.7511 N   0  0  0  0  0  0  0  0  0  0  0  0
    9.6210   -0.6952   24.0976 C   0  0  0  0  0  0  0  0  0  0  0  0
    7.0792   -9.0217   17.1429 C   0  0  0  0  0  0  0  0  0  0  0  0
    3.1713  -10.1816   17.6634 C   0  0  0  0  0  0  0  0  0  0  0  0
    2.7878   -8.3822   16.2137 C   0  0  0  0  0  0  0  0  0  0  0  0
    9.4601   -2.6590   25.6528 C   0  0  0  0  0  0  0  0  0  0  0  0
   10.1182   -1.5672   23.1165 C   0  0  0  0  0  0  0  0  0  0  0  0
    1.0552   -9.6360   17.0650 C   0  0  0  0  0  0  0  0  0  0  0  0
    3.6519   -9.1783   16.9039 C   0  0  0  0  0  0  0  0  0  0  0  0
    7.8675   -7.0096   15.9415 C   0  0  0  0  0  0  0  0  0  0  0  0
    5.9733   -9.6553   17.3832 N   0  0  0  0  0  0  0  0  0  0  0  0
   10.2411   -2.9363   23.4301 C   0  0  0  0  0  0  0  0  0  0  0  0
   10.7288   -3.8197   19.9525 C   0  0  0  0  0  0  0  0  0  0  0  0
   10.1189   -5.0054   19.6987 C   0  0  0  0  0  0  0  0  0  0  0  0
  1  3  4  0
  1  7  4  0
  2 21  4  0
  2 27  4  0
  3  9  4  0
  3 10  4  0
  4  8  4  0
  4 18  4  0
  4 25  1  0
  5  9  4  0
  5 12  4  0
  6 13  1  0
  6 27  1  0
  7 28  4  0
  8 11  4  0
  9 29  4  0
 10 12  4  0
 11 24  1  0
 11 26  4  0
 12 25  1  0
 13 28  1  0
 14 20  4  0
 14 23  4  0
 15 17  4  0
 15 21  4  0
 16 19  4  0
 16 23  4  0
 17 22  4  0
 18 26  4  0
 19 24  4  0
 20 24  4  0
 22 27  4  0
 28 29  4  0
M  END
$$$$

 Created by Python create_sdf_string function

 29 33  0  0  0  0  0  0  0  0999 V2000
   10.7215   -3.3326   17.6437 C   0  0  0  0  0  0  0  0  0  0  0  0
    9.9489   -3.4675   24.6487 N   0  0  0  0  0  0  0  0  0  0  0  0
   10.0172   -4.4740   17.4101 C   0  0  0  0  0  0  0  0  0  0  0  0
    6.9051   -7.9575   16.4222 C   0  0  0  0  0  0  0  0  0  0  0  0
    8.9969   -6.3552   17.9668 N   0  0  0  0  0  0  0  0  0  0  0  0
   10.6702   -3.9051   22.4070 C   0  0  0  0  0  0  0  0  0  0  0  0
   11.0625   -3.0028   18.8894 C   0  0  0  0  0  0  0  0  0  0  0  0
    5.6180   -7.9194   16.1754 O   0  0  0  0  0  0  0  0  0  0  0  0
    9.7259   -5.3080   18.4485 C   0  0  0  0  0  0  0  0  0  0  0  0
    9.4578   -5.0200   16.3036 N   0  0  0  0  0  0  0  0  0  0  0  0
    5.0287   -8.9365   16.8223 C   0  0  0  0  0  0  0  0  0  0  0  0
    8.7742   -6.1498   16.6764 C   0  0  0  0  0  0  0  0  0  0  0  0
   10.9418   -3.4032   21.2053 O   0  0  0  0  0  0  0  0  0  0  0  0
    1.4797   -8.6258   16.2950 C   0  0  0  0  0  0  0  0  0  0  0  0
    9.2861   -1.2743   25.3585 C   0  0  0  0  0  0  0  0  0  0  0  0
    1.8892  -10.3985   17.7511 N   0  0  0  0  0  0  0  0  0  0  0  0
    9.6210   -0.6952   24.0976 C   0  0  0  0  0  0  0  0  0  0  0  0
    7.0792   -9.0217   17.1429 C   0  0  0  0  0  0  0  0  0  0  0  0
    3.1713  -10.1816   17.6634 C   0  0  0  0  0  0  0  0  0  0  0  0
    2.7878   -8.3822   16.2137 C   0  0  0  0  0  0  0  0  0  0  0  0
    9.4601   -2.6590   25.6528 C   0  0  0  0  0  0  0  0  0  0  0  0
   10.1182   -1.5672   23.1165 C   0  0  0  0  0  0  0  0  0  0  0  0
    1.0552   -9.6360   17.0650 C   0  0  0  0  0  0  0  0  0  0  0  0
    3.6519   -9.1783   16.9039 C   0  0  0  0  0  0  0  0  0  0  0  0
    7.8675   -7.0096   15.9415 C   0  0  0  0  0  0  0  0  0  0  0  0
    5.9733   -9.6553   17.3832 N   0  0  0  0  0  0  0  0  0  0  0  0
   10.2411   -2.9363   23.4301 C   0  0  0  0  0  0  0  0  0  0  0  0
   10.7288   -3.8197   19.9525 C   0  0  0  0  0  0  0  0  0  0  0  0
   10.1189   -5.0054   19.6987 C   0  0  0  0  0  0  0  0  0  0  0  0
  1  3  4  0
  1  7  4  0
  2 21  4  0
  2 27  4  0
  3  9  4  0
  3 10  4  0
  4  8  4  0
  4 18  4  0
  4 25  1  0
  5  9  4  0
  5 12  4  0
  6 13  1  0
  6 27  1  0
  7 28  4  0
  8 11  4  0
  9 29  4  0
 10 12  4  0
 11 24  1  0
 11 26  4  0
 12 25  1  0
 13 28  1  0
 14 20  4  0
 14 23  4  0
 15 17  4  0
 15 21  4  0
 16 19  4  0
 16 23  4  0
 17 22  4  0
 18 26  4  0
 19 24  4  0
 20 24  4  0
 22 27  4  0
 28 29  4  0
M  END
$$$$

 Created by Python create_sdf_string function

 29 33  0  0  0  0  0  0  0  0999 V2000
   10.7215   -3.3326   17.6437 C   0  0  0  0  0  0  0  0  0  0  0  0
    9.9489   -3.4675   24.6487 N   0  0  0  0  0  0  0  0  0  0  0  0
   10.0172   -4.4740   17.4101 C   0  0  0  0  0  0  0  0  0  0  0  0
    6.9051   -7.9575   16.4222 C   0  0  0  0  0  0  0  0  0  0  0  0
    8.9969   -6.3552   17.9668 N   0  0  0  0  0  0  0  0  0  0  0  0
   10.6702   -3.9051   22.4070 C   0  0  0  0  0  0  0  0  0  0  0  0
   11.0625   -3.0028   18.8894 C   0  0  0  0  0  0  0  0  0  0  0  0
    5.6180   -7.9194   16.1754 O   0  0  0  0  0  0  0  0  0  0  0  0
    9.7259   -5.3080   18.4485 C   0  0  0  0  0  0  0  0  0  0  0  0
    9.4578   -5.0200   16.3036 N   0  0  0  0  0  0  0  0  0  0  0  0
    5.0287   -8.9365   16.8223 C   0  0  0  0  0  0  0  0  0  0  0  0
    8.7742   -6.1498   16.6764 C   0  0  0  0  0  0  0  0  0  0  0  0
   10.9418   -3.4032   21.2053 O   0  0  0  0  0  0  0  0  0  0  0  0
    1.4797   -8.6258   16.2950 C   0  0  0  0  0  0  0  0  0  0  0  0
    9.2861   -1.2743   25.3585 C   0  0  0  0  0  0  0  0  0  0  0  0
    1.8892  -10.3985   17.7511 N   0  0  0  0  0  0  0  0  0  0  0  0
    9.6210   -0.6952   24.0976 C   0  0  0  0  0  0  0  0  0  0  0  0
    7.0792   -9.0217   17.1429 C   0  0  0  0  0  0  0  0  0  0  0  0
    3.1713  -10.1816   17.6634 C   0  0  0  0  0  0  0  0  0  0  0  0
    2.7878   -8.3822   16.2137 C   0  0  0  0  0  0  0  0  0  0  0  0
    9.4601   -2.6590   25.6528 C   0  0  0  0  0  0  0  0  0  0  0  0
   10.1182   -1.5672   23.1165 C   0  0  0  0  0  0  0  0  0  0  0  0
    1.0552   -9.6360   17.0650 C   0  0  0  0  0  0  0  0  0  0  0  0
    3.6519   -9.1783   16.9039 C   0  0  0  0  0  0  0  0  0  0  0  0
    7.8675   -7.0096   15.9415 C   0  0  0  0  0  0  0  0  0  0  0  0
    5.9733   -9.6553   17.3832 N   0  0  0  0  0  0  0  0  0  0  0  0
   10.2411   -2.9363   23.4301 C   0  0  0  0  0  0  0  0  0  0  0  0
   10.7288   -3.8197   19.9525 C   0  0  0  0  0  0  0  0  0  0  0  0
   10.1189   -5.0054   19.6987 C   0  0  0  0  0  0  0  0  0  0  0  0
  1  3  4  0
  1  7  4  0
  2 21  4  0
  2 27  4  0
  3  9  4  0
  3 10  4  0
  4  8  4  0
  4 18  4  0
  4 25  1  0
  5  9  4  0
  5 12  4  0
  6 13  1  0
  6 27  1  0
  7 28  4  0
  8 11  4  0
  9 29  4  0
 10 12  4  0
 11 24  1  0
 11 26  4  0
 12 25  1  0
 13 28  1  0
 14 20  4  0
 14 23  4  0
 15 17  4  0
 15 21  4  0
 16 19  4  0
 16 23  4  0
 17 22  4  0
 18 26  4  0
 19 24  4  0
 20 24  4  0
 22 27  4  0
 28 29  4  0
M  END
$$$$

 Created by Python create_sdf_string function

 29 33  0  0  0  0  0  0  0  0999 V2000
   10.7215   -3.3326   17.6437 C   0  0  0  0  0  0  0  0  0  0  0  0
    9.9489   -3.4675   24.6487 N   0  0  0  0  0  0  0  0  0  0  0  0
   10.0172   -4.4740   17.4101 C   0  0  0  0  0  0  0  0  0  0  0  0
    6.9051   -7.9575   16.4222 C   0  0  0  0  0  0  0  0  0  0  0  0
    8.9969   -6.3552   17.9668 N   0  0  0  0  0  0  0  0  0  0  0  0
   10.6702   -3.9051   22.4070 C   0  0  0  0  0  0  0  0  0  0  0  0
   11.0625   -3.0028   18.8894 C   0  0  0  0  0  0  0  0  0  0  0  0
    5.6180   -7.9194   16.1754 O   0  0  0  0  0  0  0  0  0  0  0  0
    9.7259   -5.3080   18.4485 C   0  0  0  0  0  0  0  0  0  0  0  0
    9.4578   -5.0200   16.3036 N   0  0  0  0  0  0  0  0  0  0  0  0
    5.0287   -8.9365   16.8223 C   0  0  0  0  0  0  0  0  0  0  0  0
    8.7742   -6.1498   16.6764 C   0  0  0  0  0  0  0  0  0  0  0  0
   10.9418   -3.4032   21.2053 O   0  0  0  0  0  0  0  0  0  0  0  0
    1.4797   -8.6258   16.2950 C   0  0  0  0  0  0  0  0  0  0  0  0
    9.2861   -1.2743   25.3585 C   0  0  0  0  0  0  0  0  0  0  0  0
    1.8892  -10.3985   17.7511 N   0  0  0  0  0  0  0  0  0  0  0  0
    9.6210   -0.6952   24.0976 C   0  0  0  0  0  0  0  0  0  0  0  0
    7.0792   -9.0217   17.1429 C   0  0  0  0  0  0  0  0  0  0  0  0
    3.1713  -10.1816   17.6634 C   0  0  0  0  0  0  0  0  0  0  0  0
    2.7878   -8.3822   16.2137 C   0  0  0  0  0  0  0  0  0  0  0  0
    9.4601   -2.6590   25.6528 C   0  0  0  0  0  0  0  0  0  0  0  0
   10.1182   -1.5672   23.1165 C   0  0  0  0  0  0  0  0  0  0  0  0
    1.0552   -9.6360   17.0650 C   0  0  0  0  0  0  0  0  0  0  0  0
    3.6519   -9.1783   16.9039 C   0  0  0  0  0  0  0  0  0  0  0  0
    7.8675   -7.0096   15.9415 C   0  0  0  0  0  0  0  0  0  0  0  0
    5.9733   -9.6553   17.3832 N   0  0  0  0  0  0  0  0  0  0  0  0
   10.2411   -2.9363   23.4301 C   0  0  0  0  0  0  0  0  0  0  0  0
   10.7288   -3.8197   19.9525 C   0  0  0  0  0  0  0  0  0  0  0  0
   10.1189   -5.0054   19.6987 C   0  0  0  0  0  0  0  0  0  0  0  0
  1  3  4  0
  1  7  4  0
  2 21  4  0
  2 27  4  0
  3  9  4  0
  3 10  4  0
  4  8  4  0
  4 18  4  0
  4 25  1  0
  5  9  4  0
  5 12  4  0
  6 13  1  0
  6 27  1  0
  7 28  4  0
  8 11  4  0
  9 29  4  0
 10 12  4  0
 11 24  1  0
 11 26  4  0
 12 25  1  0
 13 28  1  0
 14 20  4  0
 14 23  4  0
 15 17  4  0
 15 21  4  0
 16 19  4  0
 16 23  4  0
 17 22  4  0
 18 26  4  0
 19 24  4  0
 20 24  4  0
 22 27  4  0
 28 29  4  0
M  END
$$$$

 Created by Python create_sdf_string function

 29 33  0  0  0  0  0  0  0  0999 V2000
   10.7215   -3.3326   17.6437 C   0  0  0  0  0  0  0  0  0  0  0  0
    9.9489   -3.4675   24.6487 N   0  0  0  0  0  0  0  0  0  0  0  0
   10.0172   -4.4740   17.4101 C   0  0  0  0  0  0  0  0  0  0  0  0
    6.9051   -7.9575   16.4222 C   0  0  0  0  0  0  0  0  0  0  0  0
    8.9969   -6.3552   17.9668 N   0  0  0  0  0  0  0  0  0  0  0  0
   10.6702   -3.9051   22.4070 C   0  0  0  0  0  0  0  0  0  0  0  0
   11.0625   -3.0028   18.8894 C   0  0  0  0  0  0  0  0  0  0  0  0
    5.6180   -7.9194   16.1754 O   0  0  0  0  0  0  0  0  0  0  0  0
    9.7259   -5.3080   18.4485 C   0  0  0  0  0  0  0  0  0  0  0  0
    9.4578   -5.0200   16.3036 N   0  0  0  0  0  0  0  0  0  0  0  0
    5.0287   -8.9365   16.8223 C   0  0  0  0  0  0  0  0  0  0  0  0
    8.7742   -6.1498   16.6764 C   0  0  0  0  0  0  0  0  0  0  0  0
   10.9418   -3.4032   21.2053 O   0  0  0  0  0  0  0  0  0  0  0  0
    1.4797   -8.6258   16.2950 C   0  0  0  0  0  0  0  0  0  0  0  0
    9.2861   -1.2743   25.3585 C   0  0  0  0  0  0  0  0  0  0  0  0
    1.8892  -10.3985   17.7511 N   0  0  0  0  0  0  0  0  0  0  0  0
    9.6210   -0.6952   24.0976 C   0  0  0  0  0  0  0  0  0  0  0  0
    7.0792   -9.0217   17.1429 C   0  0  0  0  0  0  0  0  0  0  0  0
    3.1713  -10.1816   17.6634 C   0  0  0  0  0  0  0  0  0  0  0  0
    2.7878   -8.3822   16.2137 C   0  0  0  0  0  0  0  0  0  0  0  0
    9.4601   -2.6590   25.6528 C   0  0  0  0  0  0  0  0  0  0  0  0
   10.1182   -1.5672   23.1165 C   0  0  0  0  0  0  0  0  0  0  0  0
    1.0552   -9.6360   17.0650 C   0  0  0  0  0  0  0  0  0  0  0  0
    3.6519   -9.1783   16.9039 C   0  0  0  0  0  0  0  0  0  0  0  0
    7.8675   -7.0096   15.9415 C   0  0  0  0  0  0  0  0  0  0  0  0
    5.9733   -9.6553   17.3832 N   0  0  0  0  0  0  0  0  0  0  0  0
   10.2411   -2.9363   23.4301 C   0  0  0  0  0  0  0  0  0  0  0  0
   10.7288   -3.8197   19.9525 C   0  0  0  0  0  0  0  0  0  0  0  0
   10.1189   -5.0054   19.6987 C   0  0  0  0  0  0  0  0  0  0  0  0
  1  3  4  0
  1  7  4  0
  2 21  4  0
  2 27  4  0
  3  9  4  0
  3 10  4  0
  4  8  4  0
  4 18  4  0
  4 25  1  0
  5  9  4  0
  5 12  4  0
  6 13  1  0
  6 27  1  0
  7 28  4  0
  8 11  4  0
  9 29  4  0
 10 12  4  0
 11 24  1  0
 11 26  4  0
 12 25  1  0
 13 28  1  0
 14 20  4  0
 14 23  4  0
 15 17  4  0
 15 21  4  0
 16 19  4  0
 16 23  4  0
 17 22  4  0
 18 26  4  0
 19 24  4  0
 20 24  4  0
 22 27  4  0
 28 29  4  0
M  END
$$$$

 Created by Python create_sdf_string function

 29 33  0  0  0  0  0  0  0  0999 V2000
   10.7215   -3.3326   17.6437 C   0  0  0  0  0  0  0  0  0  0  0  0
    9.9489   -3.4675   24.6487 N   0  0  0  0  0  0  0  0  0  0  0  0
   10.0172   -4.4740   17.4101 C   0  0  0  0  0  0  0  0  0  0  0  0
    6.9051   -7.9575   16.4222 C   0  0  0  0  0  0  0  0  0  0  0  0
    8.9969   -6.3552   17.9668 N   0  0  0  0  0  0  0  0  0  0  0  0
   10.6702   -3.9051   22.4070 C   0  0  0  0  0  0  0  0  0  0  0  0
   11.0625   -3.0028   18.8894 C   0  0  0  0  0  0  0  0  0  0  0  0
    5.6180   -7.9194   16.1754 O   0  0  0  0  0  0  0  0  0  0  0  0
    9.7259   -5.3080   18.4485 C   0  0  0  0  0  0  0  0  0  0  0  0
    9.4578   -5.0200   16.3036 N   0  0  0  0  0  0  0  0  0  0  0  0
    5.0287   -8.9365   16.8223 C   0  0  0  0  0  0  0  0  0  0  0  0
    8.7742   -6.1498   16.6764 C   0  0  0  0  0  0  0  0  0  0  0  0
   10.9418   -3.4032   21.2053 O   0  0  0  0  0  0  0  0  0  0  0  0
    1.4797   -8.6258   16.2950 C   0  0  0  0  0  0  0  0  0  0  0  0
    9.2861   -1.2743   25.3585 C   0  0  0  0  0  0  0  0  0  0  0  0
    1.8892  -10.3985   17.7511 N   0  0  0  0  0  0  0  0  0  0  0  0
    9.6210   -0.6952   24.0976 C   0  0  0  0  0  0  0  0  0  0  0  0
    7.0792   -9.0217   17.1429 C   0  0  0  0  0  0  0  0  0  0  0  0
    3.1713  -10.1816   17.6634 C   0  0  0  0  0  0  0  0  0  0  0  0
    2.7878   -8.3822   16.2137 C   0  0  0  0  0  0  0  0  0  0  0  0
    9.4601   -2.6590   25.6528 C   0  0  0  0  0  0  0  0  0  0  0  0
   10.1182   -1.5672   23.1165 C   0  0  0  0  0  0  0  0  0  0  0  0
    1.0552   -9.6360   17.0650 C   0  0  0  0  0  0  0  0  0  0  0  0
    3.6519   -9.1783   16.9039 C   0  0  0  0  0  0  0  0  0  0  0  0
    7.8675   -7.0096   15.9415 C   0  0  0  0  0  0  0  0  0  0  0  0
    5.9733   -9.6553   17.3832 N   0  0  0  0  0  0  0  0  0  0  0  0
   10.2411   -2.9363   23.4301 C   0  0  0  0  0  0  0  0  0  0  0  0
   10.7288   -3.8197   19.9525 C   0  0  0  0  0  0  0  0  0  0  0  0
   10.1189   -5.0054   19.6987 C   0  0  0  0  0  0  0  0  0  0  0  0
  1  3  4  0
  1  7  4  0
  2 21  4  0
  2 27  4  0
  3  9  4  0
  3 10  4  0
  4  8  4  0
  4 18  4  0
  4 25  1  0
  5  9  4  0
  5 12  4  0
  6 13  1  0
  6 27  1  0
  7 28  4  0
  8 11  4  0
  9 29  4  0
 10 12  4  0
 11 24  1  0
 11 26  4  0
 12 25  1  0
 13 28  1  0
 14 20  4  0
 14 23  4  0
 15 17  4  0
 15 21  4  0
 16 19  4  0
 16 23  4  0
 17 22  4  0
 18 26  4  0
 19 24  4  0
 20 24  4  0
 22 27  4  0
 28 29  4  0
M  END
$$$$

 Created by Python create_sdf_string function

 29 33  0  0  0  0  0  0  0  0999 V2000
   10.7215   -3.3326   17.6437 C   0  0  0  0  0  0  0  0  0  0  0  0
    9.9489   -3.4675   24.6487 N   0  0  0  0  0  0  0  0  0  0  0  0
   10.0172   -4.4740   17.4101 C   0  0  0  0  0  0  0  0  0  0  0  0
    6.9051   -7.9575   16.4222 C   0  0  0  0  0  0  0  0  0  0  0  0
    8.9969   -6.3552   17.9668 N   0  0  0  0  0  0  0  0  0  0  0  0
   10.6702   -3.9051   22.4070 C   0  0  0  0  0  0  0  0  0  0  0  0
   11.0625   -3.0028   18.8894 C   0  0  0  0  0  0  0  0  0  0  0  0
    5.6180   -7.9194   16.1754 O   0  0  0  0  0  0  0  0  0  0  0  0
    9.7259   -5.3080   18.4485 C   0  0  0  0  0  0  0  0  0  0  0  0
    9.4578   -5.0200   16.3036 N   0  0  0  0  0  0  0  0  0  0  0  0
    5.0287   -8.9365   16.8223 C   0  0  0  0  0  0  0  0  0  0  0  0
    8.7742   -6.1498   16.6764 C   0  0  0  0  0  0  0  0  0  0  0  0
   10.9418   -3.4032   21.2053 O   0  0  0  0  0  0  0  0  0  0  0  0
    1.4797   -8.6258   16.2950 C   0  0  0  0  0  0  0  0  0  0  0  0
    9.2861   -1.2743   25.3585 C   0  0  0  0  0  0  0  0  0  0  0  0
    1.8892  -10.3985   17.7511 N   0  0  0  0  0  0  0  0  0  0  0  0
    9.6210   -0.6952   24.0976 C   0  0  0  0  0  0  0  0  0  0  0  0
    7.0792   -9.0217   17.1429 C   0  0  0  0  0  0  0  0  0  0  0  0
    3.1713  -10.1816   17.6634 C   0  0  0  0  0  0  0  0  0  0  0  0
    2.7878   -8.3822   16.2137 C   0  0  0  0  0  0  0  0  0  0  0  0
    9.4601   -2.6590   25.6528 C   0  0  0  0  0  0  0  0  0  0  0  0
   10.1182   -1.5672   23.1165 C   0  0  0  0  0  0  0  0  0  0  0  0
    1.0552   -9.6360   17.0650 C   0  0  0  0  0  0  0  0  0  0  0  0
    3.6519   -9.1783   16.9039 C   0  0  0  0  0  0  0  0  0  0  0  0
    7.8675   -7.0096   15.9415 C   0  0  0  0  0  0  0  0  0  0  0  0
    5.9733   -9.6553   17.3832 N   0  0  0  0  0  0  0  0  0  0  0  0
   10.2411   -2.9363   23.4301 C   0  0  0  0  0  0  0  0  0  0  0  0
   10.7288   -3.8197   19.9525 C   0  0  0  0  0  0  0  0  0  0  0  0
   10.1189   -5.0054   19.6987 C   0  0  0  0  0  0  0  0  0  0  0  0
  1  3  4  0
  1  7  4  0
  2 21  4  0
  2 27  4  0
  3  9  4  0
  3 10  4  0
  4  8  4  0
  4 18  4  0
  4 25  1  0
  5  9  4  0
  5 12  4  0
  6 13  1  0
  6 27  1  0
  7 28  4  0
  8 11  4  0
  9 29  4  0
 10 12  4  0
 11 24  1  0
 11 26  4  0
 12 25  1  0
 13 28  1  0
 14 20  4  0
 14 23  4  0
 15 17  4  0
 15 21  4  0
 16 19  4  0
 16 23  4  0
 17 22  4  0
 18 26  4  0
 19 24  4  0
 20 24  4  0
 22 27  4  0
 28 29  4  0
M  END
$$$$

 Created by Python create_sdf_string function

 29 33  0  0  0  0  0  0  0  0999 V2000
   10.7215   -3.3326   17.6437 C   0  0  0  0  0  0  0  0  0  0  0  0
    9.9489   -3.4675   24.6487 N   0  0  0  0  0  0  0  0  0  0  0  0
   10.0172   -4.4740   17.4101 C   0  0  0  0  0  0  0  0  0  0  0  0
    6.9051   -7.9575   16.4222 C   0  0  0  0  0  0  0  0  0  0  0  0
    8.9969   -6.3552   17.9668 N   0  0  0  0  0  0  0  0  0  0  0  0
   10.6702   -3.9051   22.4070 C   0  0  0  0  0  0  0  0  0  0  0  0
   11.0625   -3.0028   18.8894 C   0  0  0  0  0  0  0  0  0  0  0  0
    5.6180   -7.9194   16.1754 O   0  0  0  0  0  0  0  0  0  0  0  0
    9.7259   -5.3080   18.4485 C   0  0  0  0  0  0  0  0  0  0  0  0
    9.4578   -5.0200   16.3036 N   0  0  0  0  0  0  0  0  0  0  0  0
    5.0287   -8.9365   16.8223 C   0  0  0  0  0  0  0  0  0  0  0  0
    8.7742   -6.1498   16.6764 C   0  0  0  0  0  0  0  0  0  0  0  0
   10.9418   -3.4032   21.2053 O   0  0  0  0  0  0  0  0  0  0  0  0
    1.4797   -8.6258   16.2950 C   0  0  0  0  0  0  0  0  0  0  0  0
    9.2861   -1.2743   25.3585 C   0  0  0  0  0  0  0  0  0  0  0  0
    1.8892  -10.3985   17.7511 N   0  0  0  0  0  0  0  0  0  0  0  0
    9.6210   -0.6952   24.0976 C   0  0  0  0  0  0  0  0  0  0  0  0
    7.0792   -9.0217   17.1429 C   0  0  0  0  0  0  0  0  0  0  0  0
    3.1713  -10.1816   17.6634 C   0  0  0  0  0  0  0  0  0  0  0  0
    2.7878   -8.3822   16.2137 C   0  0  0  0  0  0  0  0  0  0  0  0
    9.4601   -2.6590   25.6528 C   0  0  0  0  0  0  0  0  0  0  0  0
   10.1182   -1.5672   23.1165 C   0  0  0  0  0  0  0  0  0  0  0  0
    1.0552   -9.6360   17.0650 C   0  0  0  0  0  0  0  0  0  0  0  0
    3.6519   -9.1783   16.9039 C   0  0  0  0  0  0  0  0  0  0  0  0
    7.8675   -7.0096   15.9415 C   0  0  0  0  0  0  0  0  0  0  0  0
    5.9733   -9.6553   17.3832 N   0  0  0  0  0  0  0  0  0  0  0  0
   10.2411   -2.9363   23.4301 C   0  0  0  0  0  0  0  0  0  0  0  0
   10.7288   -3.8197   19.9525 C   0  0  0  0  0  0  0  0  0  0  0  0
   10.1189   -5.0054   19.6987 C   0  0  0  0  0  0  0  0  0  0  0  0
  1  3  4  0
  1  7  4  0
  2 21  4  0
  2 27  4  0
  3  9  4  0
  3 10  4  0
  4  8  4  0
  4 18  4  0
  4 25  1  0
  5  9  4  0
  5 12  4  0
  6 13  1  0
  6 27  1  0
  7 28  4  0
  8 11  4  0
  9 29  4  0
 10 12  4  0
 11 24  1  0
 11 26  4  0
 12 25  1  0
 13 28  1  0
 14 20  4  0
 14 23  4  0
 15 17  4  0
 15 21  4  0
 16 19  4  0
 16 23  4  0
 17 22  4  0
 18 26  4  0
 19 24  4  0
 20 24  4  0
 22 27  4  0
 28 29  4  0
M  END
$$$$

 Created by Python create_sdf_string function

 29 33  0  0  0  0  0  0  0  0999 V2000
   10.7215   -3.3326   17.6437 C   0  0  0  0  0  0  0  0  0  0  0  0
    9.9489   -3.4675   24.6487 N   0  0  0  0  0  0  0  0  0  0  0  0
   10.0172   -4.4740   17.4101 C   0  0  0  0  0  0  0  0  0  0  0  0
    6.9051   -7.9575   16.4222 C   0  0  0  0  0  0  0  0  0  0  0  0
    8.9969   -6.3552   17.9668 N   0  0  0  0  0  0  0  0  0  0  0  0
   10.6702   -3.9051   22.4070 C   0  0  0  0  0  0  0  0  0  0  0  0
   11.0625   -3.0028   18.8894 C   0  0  0  0  0  0  0  0  0  0  0  0
    5.6180   -7.9194   16.1754 O   0  0  0  0  0  0  0  0  0  0  0  0
    9.7259   -5.3080   18.4485 C   0  0  0  0  0  0  0  0  0  0  0  0
    9.4578   -5.0200   16.3036 N   0  0  0  0  0  0  0  0  0  0  0  0
    5.0287   -8.9365   16.8223 C   0  0  0  0  0  0  0  0  0  0  0  0
    8.7742   -6.1498   16.6764 C   0  0  0  0  0  0  0  0  0  0  0  0
   10.9418   -3.4032   21.2053 O   0  0  0  0  0  0  0  0  0  0  0  0
    1.4797   -8.6258   16.2950 C   0  0  0  0  0  0  0  0  0  0  0  0
    9.2861   -1.2743   25.3585 C   0  0  0  0  0  0  0  0  0  0  0  0
    1.8892  -10.3985   17.7511 N   0  0  0  0  0  0  0  0  0  0  0  0
    9.6210   -0.6952   24.0976 C   0  0  0  0  0  0  0  0  0  0  0  0
    7.0792   -9.0217   17.1429 C   0  0  0  0  0  0  0  0  0  0  0  0
    3.1713  -10.1816   17.6634 C   0  0  0  0  0  0  0  0  0  0  0  0
    2.7878   -8.3822   16.2137 C   0  0  0  0  0  0  0  0  0  0  0  0
    9.4601   -2.6590   25.6528 C   0  0  0  0  0  0  0  0  0  0  0  0
   10.1182   -1.5672   23.1165 C   0  0  0  0  0  0  0  0  0  0  0  0
    1.0552   -9.6360   17.0650 C   0  0  0  0  0  0  0  0  0  0  0  0
    3.6519   -9.1783   16.9039 C   0  0  0  0  0  0  0  0  0  0  0  0
    7.8675   -7.0096   15.9415 C   0  0  0  0  0  0  0  0  0  0  0  0
    5.9733   -9.6553   17.3832 N   0  0  0  0  0  0  0  0  0  0  0  0
   10.2411   -2.9363   23.4301 C   0  0  0  0  0  0  0  0  0  0  0  0
   10.7288   -3.8197   19.9525 C   0  0  0  0  0  0  0  0  0  0  0  0
   10.1189   -5.0054   19.6987 C   0  0  0  0  0  0  0  0  0  0  0  0
  1  3  4  0
  1  7  4  0
  2 21  4  0
  2 27  4  0
  3  9  4  0
  3 10  4  0
  4  8  4  0
  4 18  4  0
  4 25  1  0
  5  9  4  0
  5 12  4  0
  6 13  1  0
  6 27  1  0
  7 28  4  0
  8 11  4  0
  9 29  4  0
 10 12  4  0
 11 24  1  0
 11 26  4  0
 12 25  1  0
 13 28  1  0
 14 20  4  0
 14 23  4  0
 15 17  4  0
 15 21  4  0
 16 19  4  0
 16 23  4  0
 17 22  4  0
 18 26  4  0
 19 24  4  0
 20 24  4  0
 22 27  4  0
 28 29  4  0
M  END
$$$$

 Created by Python create_sdf_string function

 29 33  0  0  0  0  0  0  0  0999 V2000
   10.7215   -3.3326   17.6437 C   0  0  0  0  0  0  0  0  0  0  0  0
    9.9489   -3.4675   24.6487 N   0  0  0  0  0  0  0  0  0  0  0  0
   10.0172   -4.4740   17.4101 C   0  0  0  0  0  0  0  0  0  0  0  0
    6.9051   -7.9575   16.4222 C   0  0  0  0  0  0  0  0  0  0  0  0
    8.9969   -6.3552   17.9668 N   0  0  0  0  0  0  0  0  0  0  0  0
   10.6702   -3.9051   22.4070 C   0  0  0  0  0  0  0  0  0  0  0  0
   11.0625   -3.0028   18.8894 C   0  0  0  0  0  0  0  0  0  0  0  0
    5.6180   -7.9194   16.1754 O   0  0  0  0  0  0  0  0  0  0  0  0
    9.7259   -5.3080   18.4485 C   0  0  0  0  0  0  0  0  0  0  0  0
    9.4578   -5.0200   16.3036 N   0  0  0  0  0  0  0  0  0  0  0  0
    5.0287   -8.9365   16.8223 C   0  0  0  0  0  0  0  0  0  0  0  0
    8.7742   -6.1498   16.6764 C   0  0  0  0  0  0  0  0  0  0  0  0
   10.9418   -3.4032   21.2053 O   0  0  0  0  0  0  0  0  0  0  0  0
    1.4797   -8.6258   16.2950 C   0  0  0  0  0  0  0  0  0  0  0  0
    9.2861   -1.2743   25.3585 C   0  0  0  0  0  0  0  0  0  0  0  0
    1.8892  -10.3985   17.7511 N   0  0  0  0  0  0  0  0  0  0  0  0
    9.6210   -0.6952   24.0976 C   0  0  0  0  0  0  0  0  0  0  0  0
    7.0792   -9.0217   17.1429 C   0  0  0  0  0  0  0  0  0  0  0  0
    3.1713  -10.1816   17.6634 C   0  0  0  0  0  0  0  0  0  0  0  0
    2.7878   -8.3822   16.2137 C   0  0  0  0  0  0  0  0  0  0  0  0
    9.4601   -2.6590   25.6528 C   0  0  0  0  0  0  0  0  0  0  0  0
   10.1182   -1.5672   23.1165 C   0  0  0  0  0  0  0  0  0  0  0  0
    1.0552   -9.6360   17.0650 C   0  0  0  0  0  0  0  0  0  0  0  0
    3.6519   -9.1783   16.9039 C   0  0  0  0  0  0  0  0  0  0  0  0
    7.8675   -7.0096   15.9415 C   0  0  0  0  0  0  0  0  0  0  0  0
    5.9733   -9.6553   17.3832 N   0  0  0  0  0  0  0  0  0  0  0  0
   10.2411   -2.9363   23.4301 C   0  0  0  0  0  0  0  0  0  0  0  0
   10.7288   -3.8197   19.9525 C   0  0  0  0  0  0  0  0  0  0  0  0
   10.1189   -5.0054   19.6987 C   0  0  0  0  0  0  0  0  0  0  0  0
  1  3  4  0
  1  7  4  0
  2 21  4  0
  2 27  4  0
  3  9  4  0
  3 10  4  0
  4  8  4  0
  4 18  4  0
  4 25  1  0
  5  9  4  0
  5 12  4  0
  6 13  1  0
  6 27  1  0
  7 28  4  0
  8 11  4  0
  9 29  4  0
 10 12  4  0
 11 24  1  0
 11 26  4  0
 12 25  1  0
 13 28  1  0
 14 20  4  0
 14 23  4  0
 15 17  4  0
 15 21  4  0
 16 19  4  0
 16 23  4  0
 17 22  4  0
 18 26  4  0
 19 24  4  0
 20 24  4  0
 22 27  4  0
 28 29  4  0
M  END
$$$$

 Created by Python create_sdf_string function

 29 33  0  0  0  0  0  0  0  0999 V2000
   10.7215   -3.3326   17.6437 C   0  0  0  0  0  0  0  0  0  0  0  0
    9.9489   -3.4675   24.6487 N   0  0  0  0  0  0  0  0  0  0  0  0
   10.0172   -4.4740   17.4101 C   0  0  0  0  0  0  0  0  0  0  0  0
    6.9051   -7.9575   16.4222 C   0  0  0  0  0  0  0  0  0  0  0  0
    8.9969   -6.3552   17.9668 N   0  0  0  0  0  0  0  0  0  0  0  0
   10.6702   -3.9051   22.4070 C   0  0  0  0  0  0  0  0  0  0  0  0
   11.0625   -3.0028   18.8894 C   0  0  0  0  0  0  0  0  0  0  0  0
    5.6180   -7.9194   16.1754 O   0  0  0  0  0  0  0  0  0  0  0  0
    9.7259   -5.3080   18.4485 C   0  0  0  0  0  0  0  0  0  0  0  0
    9.4578   -5.0200   16.3036 N   0  0  0  0  0  0  0  0  0  0  0  0
    5.0287   -8.9365   16.8223 C   0  0  0  0  0  0  0  0  0  0  0  0
    8.7742   -6.1498   16.6764 C   0  0  0  0  0  0  0  0  0  0  0  0
   10.9418   -3.4032   21.2053 O   0  0  0  0  0  0  0  0  0  0  0  0
    1.4797   -8.6258   16.2950 C   0  0  0  0  0  0  0  0  0  0  0  0
    9.2861   -1.2743   25.3585 C   0  0  0  0  0  0  0  0  0  0  0  0
    1.8892  -10.3985   17.7511 N   0  0  0  0  0  0  0  0  0  0  0  0
    9.6210   -0.6952   24.0976 C   0  0  0  0  0  0  0  0  0  0  0  0
    7.0792   -9.0217   17.1429 C   0  0  0  0  0  0  0  0  0  0  0  0
    3.1713  -10.1816   17.6634 C   0  0  0  0  0  0  0  0  0  0  0  0
    2.7878   -8.3822   16.2137 C   0  0  0  0  0  0  0  0  0  0  0  0
    9.4601   -2.6590   25.6528 C   0  0  0  0  0  0  0  0  0  0  0  0
   10.1182   -1.5672   23.1165 C   0  0  0  0  0  0  0  0  0  0  0  0
    1.0552   -9.6360   17.0650 C   0  0  0  0  0  0  0  0  0  0  0  0
    3.6519   -9.1783   16.9039 C   0  0  0  0  0  0  0  0  0  0  0  0
    7.8675   -7.0096   15.9415 C   0  0  0  0  0  0  0  0  0  0  0  0
    5.9733   -9.6553   17.3832 N   0  0  0  0  0  0  0  0  0  0  0  0
   10.2411   -2.9363   23.4301 C   0  0  0  0  0  0  0  0  0  0  0  0
   10.7288   -3.8197   19.9525 C   0  0  0  0  0  0  0  0  0  0  0  0
   10.1189   -5.0054   19.6987 C   0  0  0  0  0  0  0  0  0  0  0  0
  1  3  4  0
  1  7  4  0
  2 21  4  0
  2 27  4  0
  3  9  4  0
  3 10  4  0
  4  8  4  0
  4 18  4  0
  4 25  1  0
  5  9  4  0
  5 12  4  0
  6 13  1  0
  6 27  1  0
  7 28  4  0
  8 11  4  0
  9 29  4  0
 10 12  4  0
 11 24  1  0
 11 26  4  0
 12 25  1  0
 13 28  1  0
 14 20  4  0
 14 23  4  0
 15 17  4  0
 15 21  4  0
 16 19  4  0
 16 23  4  0
 17 22  4  0
 18 26  4  0
 19 24  4  0
 20 24  4  0
 22 27  4  0
 28 29  4  0
M  END
$$$$

 Created by Python create_sdf_string function

 29 33  0  0  0  0  0  0  0  0999 V2000
   10.7215   -3.3326   17.6437 C   0  0  0  0  0  0  0  0  0  0  0  0
    9.9489   -3.4675   24.6487 N   0  0  0  0  0  0  0  0  0  0  0  0
   10.0172   -4.4740   17.4101 C   0  0  0  0  0  0  0  0  0  0  0  0
    6.9051   -7.9575   16.4222 C   0  0  0  0  0  0  0  0  0  0  0  0
    8.9969   -6.3552   17.9668 N   0  0  0  0  0  0  0  0  0  0  0  0
   10.6702   -3.9051   22.4070 C   0  0  0  0  0  0  0  0  0  0  0  0
   11.0625   -3.0028   18.8894 C   0  0  0  0  0  0  0  0  0  0  0  0
    5.6180   -7.9194   16.1754 O   0  0  0  0  0  0  0  0  0  0  0  0
    9.7259   -5.3080   18.4485 C   0  0  0  0  0  0  0  0  0  0  0  0
    9.4578   -5.0200   16.3036 N   0  0  0  0  0  0  0  0  0  0  0  0
    5.0287   -8.9365   16.8223 C   0  0  0  0  0  0  0  0  0  0  0  0
    8.7742   -6.1498   16.6764 C   0  0  0  0  0  0  0  0  0  0  0  0
   10.9418   -3.4032   21.2053 O   0  0  0  0  0  0  0  0  0  0  0  0
    1.4797   -8.6258   16.2950 C   0  0  0  0  0  0  0  0  0  0  0  0
    9.2861   -1.2743   25.3585 C   0  0  0  0  0  0  0  0  0  0  0  0
    1.8892  -10.3985   17.7511 N   0  0  0  0  0  0  0  0  0  0  0  0
    9.6210   -0.6952   24.0976 C   0  0  0  0  0  0  0  0  0  0  0  0
    7.0792   -9.0217   17.1429 C   0  0  0  0  0  0  0  0  0  0  0  0
    3.1713  -10.1816   17.6634 C   0  0  0  0  0  0  0  0  0  0  0  0
    2.7878   -8.3822   16.2137 C   0  0  0  0  0  0  0  0  0  0  0  0
    9.4601   -2.6590   25.6528 C   0  0  0  0  0  0  0  0  0  0  0  0
   10.1182   -1.5672   23.1165 C   0  0  0  0  0  0  0  0  0  0  0  0
    1.0552   -9.6360   17.0650 C   0  0  0  0  0  0  0  0  0  0  0  0
    3.6519   -9.1783   16.9039 C   0  0  0  0  0  0  0  0  0  0  0  0
    7.8675   -7.0096   15.9415 C   0  0  0  0  0  0  0  0  0  0  0  0
    5.9733   -9.6553   17.3832 N   0  0  0  0  0  0  0  0  0  0  0  0
   10.2411   -2.9363   23.4301 C   0  0  0  0  0  0  0  0  0  0  0  0
   10.7288   -3.8197   19.9525 C   0  0  0  0  0  0  0  0  0  0  0  0
   10.1189   -5.0054   19.6987 C   0  0  0  0  0  0  0  0  0  0  0  0
  1  3  4  0
  1  7  4  0
  2 21  4  0
  2 27  4  0
  3  9  4  0
  3 10  4  0
  4  8  4  0
  4 18  4  0
  4 25  1  0
  5  9  4  0
  5 12  4  0
  6 13  1  0
  6 27  1  0
  7 28  4  0
  8 11  4  0
  9 29  4  0
 10 12  4  0
 11 24  1  0
 11 26  4  0
 12 25  1  0
 13 28  1  0
 14 20  4  0
 14 23  4  0
 15 17  4  0
 15 21  4  0
 16 19  4  0
 16 23  4  0
 17 22  4  0
 18 26  4  0
 19 24  4  0
 20 24  4  0
 22 27  4  0
 28 29  4  0
M  END
$$$$

 Created by Python create_sdf_string function

 29 33  0  0  0  0  0  0  0  0999 V2000
   10.7215   -3.3326   17.6437 C   0  0  0  0  0  0  0  0  0  0  0  0
    9.9489   -3.4675   24.6487 N   0  0  0  0  0  0  0  0  0  0  0  0
   10.0172   -4.4740   17.4101 C   0  0  0  0  0  0  0  0  0  0  0  0
    6.9051   -7.9575   16.4222 C   0  0  0  0  0  0  0  0  0  0  0  0
    8.9969   -6.3552   17.9668 N   0  0  0  0  0  0  0  0  0  0  0  0
   10.6702   -3.9051   22.4070 C   0  0  0  0  0  0  0  0  0  0  0  0
   11.0625   -3.0028   18.8894 C   0  0  0  0  0  0  0  0  0  0  0  0
    5.6180   -7.9194   16.1754 O   0  0  0  0  0  0  0  0  0  0  0  0
    9.7259   -5.3080   18.4485 C   0  0  0  0  0  0  0  0  0  0  0  0
    9.4578   -5.0200   16.3036 N   0  0  0  0  0  0  0  0  0  0  0  0
    5.0287   -8.9365   16.8223 C   0  0  0  0  0  0  0  0  0  0  0  0
    8.7742   -6.1498   16.6764 C   0  0  0  0  0  0  0  0  0  0  0  0
   10.9418   -3.4032   21.2053 O   0  0  0  0  0  0  0  0  0  0  0  0
    1.4797   -8.6258   16.2950 C   0  0  0  0  0  0  0  0  0  0  0  0
    9.2861   -1.2743   25.3585 C   0  0  0  0  0  0  0  0  0  0  0  0
    1.8892  -10.3985   17.7511 N   0  0  0  0  0  0  0  0  0  0  0  0
    9.6210   -0.6952   24.0976 C   0  0  0  0  0  0  0  0  0  0  0  0
    7.0792   -9.0217   17.1429 C   0  0  0  0  0  0  0  0  0  0  0  0
    3.1713  -10.1816   17.6634 C   0  0  0  0  0  0  0  0  0  0  0  0
    2.7878   -8.3822   16.2137 C   0  0  0  0  0  0  0  0  0  0  0  0
    9.4601   -2.6590   25.6528 C   0  0  0  0  0  0  0  0  0  0  0  0
   10.1182   -1.5672   23.1165 C   0  0  0  0  0  0  0  0  0  0  0  0
    1.0552   -9.6360   17.0650 C   0  0  0  0  0  0  0  0  0  0  0  0
    3.6519   -9.1783   16.9039 C   0  0  0  0  0  0  0  0  0  0  0  0
    7.8675   -7.0096   15.9415 C   0  0  0  0  0  0  0  0  0  0  0  0
    5.9733   -9.6553   17.3832 N   0  0  0  0  0  0  0  0  0  0  0  0
   10.2411   -2.9363   23.4301 C   0  0  0  0  0  0  0  0  0  0  0  0
   10.7288   -3.8197   19.9525 C   0  0  0  0  0  0  0  0  0  0  0  0
   10.1189   -5.0054   19.6987 C   0  0  0  0  0  0  0  0  0  0  0  0
  1  3  4  0
  1  7  4  0
  2 21  4  0
  2 27  4  0
  3  9  4  0
  3 10  4  0
  4  8  4  0
  4 18  4  0
  4 25  1  0
  5  9  4  0
  5 12  4  0
  6 13  1  0
  6 27  1  0
  7 28  4  0
  8 11  4  0
  9 29  4  0
 10 12  4  0
 11 24  1  0
 11 26  4  0
 12 25  1  0
 13 28  1  0
 14 20  4  0
 14 23  4  0
 15 17  4  0
 15 21  4  0
 16 19  4  0
 16 23  4  0
 17 22  4  0
 18 26  4  0
 19 24  4  0
 20 24  4  0
 22 27  4  0
 28 29  4  0
M  END
$$$$

 Created by Python create_sdf_string function

 29 33  0  0  0  0  0  0  0  0999 V2000
   10.7215   -3.3326   17.6437 C   0  0  0  0  0  0  0  0  0  0  0  0
    9.9489   -3.4675   24.6487 N   0  0  0  0  0  0  0  0  0  0  0  0
   10.0172   -4.4740   17.4101 C   0  0  0  0  0  0  0  0  0  0  0  0
    6.9051   -7.9575   16.4222 C   0  0  0  0  0  0  0  0  0  0  0  0
    8.9969   -6.3552   17.9668 N   0  0  0  0  0  0  0  0  0  0  0  0
   10.6702   -3.9051   22.4070 C   0  0  0  0  0  0  0  0  0  0  0  0
   11.0625   -3.0028   18.8894 C   0  0  0  0  0  0  0  0  0  0  0  0
    5.6180   -7.9194   16.1754 O   0  0  0  0  0  0  0  0  0  0  0  0
    9.7259   -5.3080   18.4485 C   0  0  0  0  0  0  0  0  0  0  0  0
    9.4578   -5.0200   16.3036 N   0  0  0  0  0  0  0  0  0  0  0  0
    5.0287   -8.9365   16.8223 C   0  0  0  0  0  0  0  0  0  0  0  0
    8.7742   -6.1498   16.6764 C   0  0  0  0  0  0  0  0  0  0  0  0
   10.9418   -3.4032   21.2053 O   0  0  0  0  0  0  0  0  0  0  0  0
    1.4797   -8.6258   16.2950 C   0  0  0  0  0  0  0  0  0  0  0  0
    9.2861   -1.2743   25.3585 C   0  0  0  0  0  0  0  0  0  0  0  0
    1.8892  -10.3985   17.7511 N   0  0  0  0  0  0  0  0  0  0  0  0
    9.6210   -0.6952   24.0976 C   0  0  0  0  0  0  0  0  0  0  0  0
    7.0792   -9.0217   17.1429 C   0  0  0  0  0  0  0  0  0  0  0  0
    3.1713  -10.1816   17.6634 C   0  0  0  0  0  0  0  0  0  0  0  0
    2.7878   -8.3822   16.2137 C   0  0  0  0  0  0  0  0  0  0  0  0
    9.4601   -2.6590   25.6528 C   0  0  0  0  0  0  0  0  0  0  0  0
   10.1182   -1.5672   23.1165 C   0  0  0  0  0  0  0  0  0  0  0  0
    1.0552   -9.6360   17.0650 C   0  0  0  0  0  0  0  0  0  0  0  0
    3.6519   -9.1783   16.9039 C   0  0  0  0  0  0  0  0  0  0  0  0
    7.8675   -7.0096   15.9415 C   0  0  0  0  0  0  0  0  0  0  0  0
    5.9733   -9.6553   17.3832 N   0  0  0  0  0  0  0  0  0  0  0  0
   10.2411   -2.9363   23.4301 C   0  0  0  0  0  0  0  0  0  0  0  0
   10.7288   -3.8197   19.9525 C   0  0  0  0  0  0  0  0  0  0  0  0
   10.1189   -5.0054   19.6987 C   0  0  0  0  0  0  0  0  0  0  0  0
  1  3  4  0
  1  7  4  0
  2 21  4  0
  2 27  4  0
  3  9  4  0
  3 10  4  0
  4  8  4  0
  4 18  4  0
  4 25  1  0
  5  9  4  0
  5 12  4  0
  6 13  1  0
  6 27  1  0
  7 28  4  0
  8 11  4  0
  9 29  4  0
 10 12  4  0
 11 24  1  0
 11 26  4  0
 12 25  1  0
 13 28  1  0
 14 20  4  0
 14 23  4  0
 15 17  4  0
 15 21  4  0
 16 19  4  0
 16 23  4  0
 17 22  4  0
 18 26  4  0
 19 24  4  0
 20 24  4  0
 22 27  4  0
 28 29  4  0
M  END
$$$$

 Created by Python create_sdf_string function

 29 33  0  0  0  0  0  0  0  0999 V2000
   10.7215   -3.3326   17.6437 C   0  0  0  0  0  0  0  0  0  0  0  0
    9.9489   -3.4675   24.6487 N   0  0  0  0  0  0  0  0  0  0  0  0
   10.0172   -4.4740   17.4101 C   0  0  0  0  0  0  0  0  0  0  0  0
    6.9051   -7.9575   16.4222 C   0  0  0  0  0  0  0  0  0  0  0  0
    8.9969   -6.3552   17.9668 N   0  0  0  0  0  0  0  0  0  0  0  0
   10.6702   -3.9051   22.4070 C   0  0  0  0  0  0  0  0  0  0  0  0
   11.0625   -3.0028   18.8894 C   0  0  0  0  0  0  0  0  0  0  0  0
    5.6180   -7.9194   16.1754 O   0  0  0  0  0  0  0  0  0  0  0  0
    9.7259   -5.3080   18.4485 C   0  0  0  0  0  0  0  0  0  0  0  0
    9.4578   -5.0200   16.3036 N   0  0  0  0  0  0  0  0  0  0  0  0
    5.0287   -8.9365   16.8223 C   0  0  0  0  0  0  0  0  0  0  0  0
    8.7742   -6.1498   16.6764 C   0  0  0  0  0  0  0  0  0  0  0  0
   10.9418   -3.4032   21.2053 O   0  0  0  0  0  0  0  0  0  0  0  0
    1.4797   -8.6258   16.2950 C   0  0  0  0  0  0  0  0  0  0  0  0
    9.2861   -1.2743   25.3585 C   0  0  0  0  0  0  0  0  0  0  0  0
    1.8892  -10.3985   17.7511 N   0  0  0  0  0  0  0  0  0  0  0  0
    9.6210   -0.6952   24.0976 C   0  0  0  0  0  0  0  0  0  0  0  0
    7.0792   -9.0217   17.1429 C   0  0  0  0  0  0  0  0  0  0  0  0
    3.1713  -10.1816   17.6634 C   0  0  0  0  0  0  0  0  0  0  0  0
    2.7878   -8.3822   16.2137 C   0  0  0  0  0  0  0  0  0  0  0  0
    9.4601   -2.6590   25.6528 C   0  0  0  0  0  0  0  0  0  0  0  0
   10.1182   -1.5672   23.1165 C   0  0  0  0  0  0  0  0  0  0  0  0
    1.0552   -9.6360   17.0650 C   0  0  0  0  0  0  0  0  0  0  0  0
    3.6519   -9.1783   16.9039 C   0  0  0  0  0  0  0  0  0  0  0  0
    7.8675   -7.0096   15.9415 C   0  0  0  0  0  0  0  0  0  0  0  0
    5.9733   -9.6553   17.3832 N   0  0  0  0  0  0  0  0  0  0  0  0
   10.2411   -2.9363   23.4301 C   0  0  0  0  0  0  0  0  0  0  0  0
   10.7288   -3.8197   19.9525 C   0  0  0  0  0  0  0  0  0  0  0  0
   10.1189   -5.0054   19.6987 C   0  0  0  0  0  0  0  0  0  0  0  0
  1  3  4  0
  1  7  4  0
  2 21  4  0
  2 27  4  0
  3  9  4  0
  3 10  4  0
  4  8  4  0
  4 18  4  0
  4 25  1  0
  5  9  4  0
  5 12  4  0
  6 13  1  0
  6 27  1  0
  7 28  4  0
  8 11  4  0
  9 29  4  0
 10 12  4  0
 11 24  1  0
 11 26  4  0
 12 25  1  0
 13 28  1  0
 14 20  4  0
 14 23  4  0
 15 17  4  0
 15 21  4  0
 16 19  4  0
 16 23  4  0
 17 22  4  0
 18 26  4  0
 19 24  4  0
 20 24  4  0
 22 27  4  0
 28 29  4  0
M  END
$$$$

 Created by Python create_sdf_string function

 29 33  0  0  0  0  0  0  0  0999 V2000
   10.7215   -3.3326   17.6437 C   0  0  0  0  0  0  0  0  0  0  0  0
    9.9489   -3.4675   24.6487 N   0  0  0  0  0  0  0  0  0  0  0  0
   10.0172   -4.4740   17.4101 C   0  0  0  0  0  0  0  0  0  0  0  0
    6.9051   -7.9575   16.4222 C   0  0  0  0  0  0  0  0  0  0  0  0
    8.9969   -6.3552   17.9668 N   0  0  0  0  0  0  0  0  0  0  0  0
   10.6702   -3.9051   22.4070 C   0  0  0  0  0  0  0  0  0  0  0  0
   11.0625   -3.0028   18.8894 C   0  0  0  0  0  0  0  0  0  0  0  0
    5.6180   -7.9194   16.1754 O   0  0  0  0  0  0  0  0  0  0  0  0
    9.7259   -5.3080   18.4485 C   0  0  0  0  0  0  0  0  0  0  0  0
    9.4578   -5.0200   16.3036 N   0  0  0  0  0  0  0  0  0  0  0  0
    5.0287   -8.9365   16.8223 C   0  0  0  0  0  0  0  0  0  0  0  0
    8.7742   -6.1498   16.6764 C   0  0  0  0  0  0  0  0  0  0  0  0
   10.9418   -3.4032   21.2053 O   0  0  0  0  0  0  0  0  0  0  0  0
    1.4797   -8.6258   16.2950 C   0  0  0  0  0  0  0  0  0  0  0  0
    9.2861   -1.2743   25.3585 C   0  0  0  0  0  0  0  0  0  0  0  0
    1.8892  -10.3985   17.7511 N   0  0  0  0  0  0  0  0  0  0  0  0
    9.6210   -0.6952   24.0976 C   0  0  0  0  0  0  0  0  0  0  0  0
    7.0792   -9.0217   17.1429 C   0  0  0  0  0  0  0  0  0  0  0  0
    3.1713  -10.1816   17.6634 C   0  0  0  0  0  0  0  0  0  0  0  0
    2.7878   -8.3822   16.2137 C   0  0  0  0  0  0  0  0  0  0  0  0
    9.4601   -2.6590   25.6528 C   0  0  0  0  0  0  0  0  0  0  0  0
   10.1182   -1.5672   23.1165 C   0  0  0  0  0  0  0  0  0  0  0  0
    1.0552   -9.6360   17.0650 C   0  0  0  0  0  0  0  0  0  0  0  0
    3.6519   -9.1783   16.9039 C   0  0  0  0  0  0  0  0  0  0  0  0
    7.8675   -7.0096   15.9415 C   0  0  0  0  0  0  0  0  0  0  0  0
    5.9733   -9.6553   17.3832 N   0  0  0  0  0  0  0  0  0  0  0  0
   10.2411   -2.9363   23.4301 C   0  0  0  0  0  0  0  0  0  0  0  0
   10.7288   -3.8197   19.9525 C   0  0  0  0  0  0  0  0  0  0  0  0
   10.1189   -5.0054   19.6987 C   0  0  0  0  0  0  0  0  0  0  0  0
  1  3  4  0
  1  7  4  0
  2 21  4  0
  2 27  4  0
  3  9  4  0
  3 10  4  0
  4  8  4  0
  4 18  4  0
  4 25  1  0
  5  9  4  0
  5 12  4  0
  6 13  1  0
  6 27  1  0
  7 28  4  0
  8 11  4  0
  9 29  4  0
 10 12  4  0
 11 24  1  0
 11 26  4  0
 12 25  1  0
 13 28  1  0
 14 20  4  0
 14 23  4  0
 15 17  4  0
 15 21  4  0
 16 19  4  0
 16 23  4  0
 17 22  4  0
 18 26  4  0
 19 24  4  0
 20 24  4  0
 22 27  4  0
 28 29  4  0
M  END
$$$$

 Created by Python create_sdf_string function

 29 33  0  0  0  0  0  0  0  0999 V2000
   10.7215   -3.3326   17.6437 C   0  0  0  0  0  0  0  0  0  0  0  0
    9.9489   -3.4675   24.6487 N   0  0  0  0  0  0  0  0  0  0  0  0
   10.0172   -4.4740   17.4101 C   0  0  0  0  0  0  0  0  0  0  0  0
    6.9051   -7.9575   16.4222 C   0  0  0  0  0  0  0  0  0  0  0  0
    8.9969   -6.3552   17.9668 N   0  0  0  0  0  0  0  0  0  0  0  0
   10.6702   -3.9051   22.4070 C   0  0  0  0  0  0  0  0  0  0  0  0
   11.0625   -3.0028   18.8894 C   0  0  0  0  0  0  0  0  0  0  0  0
    5.6180   -7.9194   16.1754 O   0  0  0  0  0  0  0  0  0  0  0  0
    9.7259   -5.3080   18.4485 C   0  0  0  0  0  0  0  0  0  0  0  0
    9.4578   -5.0200   16.3036 N   0  0  0  0  0  0  0  0  0  0  0  0
    5.0287   -8.9365   16.8223 C   0  0  0  0  0  0  0  0  0  0  0  0
    8.7742   -6.1498   16.6764 C   0  0  0  0  0  0  0  0  0  0  0  0
   10.9418   -3.4032   21.2053 O   0  0  0  0  0  0  0  0  0  0  0  0
    1.4797   -8.6258   16.2950 C   0  0  0  0  0  0  0  0  0  0  0  0
    9.2861   -1.2743   25.3585 C   0  0  0  0  0  0  0  0  0  0  0  0
    1.8892  -10.3985   17.7511 N   0  0  0  0  0  0  0  0  0  0  0  0
    9.6210   -0.6952   24.0976 C   0  0  0  0  0  0  0  0  0  0  0  0
    7.0792   -9.0217   17.1429 C   0  0  0  0  0  0  0  0  0  0  0  0
    3.1713  -10.1816   17.6634 C   0  0  0  0  0  0  0  0  0  0  0  0
    2.7878   -8.3822   16.2137 C   0  0  0  0  0  0  0  0  0  0  0  0
    9.4601   -2.6590   25.6528 C   0  0  0  0  0  0  0  0  0  0  0  0
   10.1182   -1.5672   23.1165 C   0  0  0  0  0  0  0  0  0  0  0  0
    1.0552   -9.6360   17.0650 C   0  0  0  0  0  0  0  0  0  0  0  0
    3.6519   -9.1783   16.9039 C   0  0  0  0  0  0  0  0  0  0  0  0
    7.8675   -7.0096   15.9415 C   0  0  0  0  0  0  0  0  0  0  0  0
    5.9733   -9.6553   17.3832 N   0  0  0  0  0  0  0  0  0  0  0  0
   10.2411   -2.9363   23.4301 C   0  0  0  0  0  0  0  0  0  0  0  0
   10.7288   -3.8197   19.9525 C   0  0  0  0  0  0  0  0  0  0  0  0
   10.1189   -5.0054   19.6987 C   0  0  0  0  0  0  0  0  0  0  0  0
  1  3  4  0
  1  7  4  0
  2 21  4  0
  2 27  4  0
  3  9  4  0
  3 10  4  0
  4  8  4  0
  4 18  4  0
  4 25  1  0
  5  9  4  0
  5 12  4  0
  6 13  1  0
  6 27  1  0
  7 28  4  0
  8 11  4  0
  9 29  4  0
 10 12  4  0
 11 24  1  0
 11 26  4  0
 12 25  1  0
 13 28  1  0
 14 20  4  0
 14 23  4  0
 15 17  4  0
 15 21  4  0
 16 19  4  0
 16 23  4  0
 17 22  4  0
 18 26  4  0
 19 24  4  0
 20 24  4  0
 22 27  4  0
 28 29  4  0
M  END
$$$$

 Created by Python create_sdf_string function

 29 33  0  0  0  0  0  0  0  0999 V2000
   10.7215   -3.3326   17.6437 C   0  0  0  0  0  0  0  0  0  0  0  0
    9.9489   -3.4675   24.6487 N   0  0  0  0  0  0  0  0  0  0  0  0
   10.0172   -4.4740   17.4101 C   0  0  0  0  0  0  0  0  0  0  0  0
    6.9051   -7.9575   16.4222 C   0  0  0  0  0  0  0  0  0  0  0  0
    8.9969   -6.3552   17.9668 N   0  0  0  0  0  0  0  0  0  0  0  0
   10.6702   -3.9051   22.4070 C   0  0  0  0  0  0  0  0  0  0  0  0
   11.0625   -3.0028   18.8894 C   0  0  0  0  0  0  0  0  0  0  0  0
    5.6180   -7.9194   16.1754 O   0  0  0  0  0  0  0  0  0  0  0  0
    9.7259   -5.3080   18.4485 C   0  0  0  0  0  0  0  0  0  0  0  0
    9.4578   -5.0200   16.3036 N   0  0  0  0  0  0  0  0  0  0  0  0
    5.0287   -8.9365   16.8223 C   0  0  0  0  0  0  0  0  0  0  0  0
    8.7742   -6.1498   16.6764 C   0  0  0  0  0  0  0  0  0  0  0  0
   10.9418   -3.4032   21.2053 O   0  0  0  0  0  0  0  0  0  0  0  0
    1.4797   -8.6258   16.2950 C   0  0  0  0  0  0  0  0  0  0  0  0
    9.2861   -1.2743   25.3585 C   0  0  0  0  0  0  0  0  0  0  0  0
    1.8892  -10.3985   17.7511 N   0  0  0  0  0  0  0  0  0  0  0  0
    9.6210   -0.6952   24.0976 C   0  0  0  0  0  0  0  0  0  0  0  0
    7.0792   -9.0217   17.1429 C   0  0  0  0  0  0  0  0  0  0  0  0
    3.1713  -10.1816   17.6634 C   0  0  0  0  0  0  0  0  0  0  0  0
    2.7878   -8.3822   16.2137 C   0  0  0  0  0  0  0  0  0  0  0  0
    9.4601   -2.6590   25.6528 C   0  0  0  0  0  0  0  0  0  0  0  0
   10.1182   -1.5672   23.1165 C   0  0  0  0  0  0  0  0  0  0  0  0
    1.0552   -9.6360   17.0650 C   0  0  0  0  0  0  0  0  0  0  0  0
    3.6519   -9.1783   16.9039 C   0  0  0  0  0  0  0  0  0  0  0  0
    7.8675   -7.0096   15.9415 C   0  0  0  0  0  0  0  0  0  0  0  0
    5.9733   -9.6553   17.3832 N   0  0  0  0  0  0  0  0  0  0  0  0
   10.2411   -2.9363   23.4301 C   0  0  0  0  0  0  0  0  0  0  0  0
   10.7288   -3.8197   19.9525 C   0  0  0  0  0  0  0  0  0  0  0  0
   10.1189   -5.0054   19.6987 C   0  0  0  0  0  0  0  0  0  0  0  0
  1  3  4  0
  1  7  4  0
  2 21  4  0
  2 27  4  0
  3  9  4  0
  3 10  4  0
  4  8  4  0
  4 18  4  0
  4 25  1  0
  5  9  4  0
  5 12  4  0
  6 13  1  0
  6 27  1  0
  7 28  4  0
  8 11  4  0
  9 29  4  0
 10 12  4  0
 11 24  1  0
 11 26  4  0
 12 25  1  0
 13 28  1  0
 14 20  4  0
 14 23  4  0
 15 17  4  0
 15 21  4  0
 16 19  4  0
 16 23  4  0
 17 22  4  0
 18 26  4  0
 19 24  4  0
 20 24  4  0
 22 27  4  0
 28 29  4  0
M  END
$$$$

 Created by Python create_sdf_string function

 29 33  0  0  0  0  0  0  0  0999 V2000
   10.7215   -3.3326   17.6437 C   0  0  0  0  0  0  0  0  0  0  0  0
    9.9489   -3.4675   24.6487 N   0  0  0  0  0  0  0  0  0  0  0  0
   10.0172   -4.4740   17.4101 C   0  0  0  0  0  0  0  0  0  0  0  0
    6.9051   -7.9575   16.4222 C   0  0  0  0  0  0  0  0  0  0  0  0
    8.9969   -6.3552   17.9668 N   0  0  0  0  0  0  0  0  0  0  0  0
   10.6702   -3.9051   22.4070 C   0  0  0  0  0  0  0  0  0  0  0  0
   11.0625   -3.0028   18.8894 C   0  0  0  0  0  0  0  0  0  0  0  0
    5.6180   -7.9194   16.1754 O   0  0  0  0  0  0  0  0  0  0  0  0
    9.7259   -5.3080   18.4485 C   0  0  0  0  0  0  0  0  0  0  0  0
    9.4578   -5.0200   16.3036 N   0  0  0  0  0  0  0  0  0  0  0  0
    5.0287   -8.9365   16.8223 C   0  0  0  0  0  0  0  0  0  0  0  0
    8.7742   -6.1498   16.6764 C   0  0  0  0  0  0  0  0  0  0  0  0
   10.9418   -3.4032   21.2053 O   0  0  0  0  0  0  0  0  0  0  0  0
    1.4797   -8.6258   16.2950 C   0  0  0  0  0  0  0  0  0  0  0  0
    9.2861   -1.2743   25.3585 C   0  0  0  0  0  0  0  0  0  0  0  0
    1.8892  -10.3985   17.7511 N   0  0  0  0  0  0  0  0  0  0  0  0
    9.6210   -0.6952   24.0976 C   0  0  0  0  0  0  0  0  0  0  0  0
    7.0792   -9.0217   17.1429 C   0  0  0  0  0  0  0  0  0  0  0  0
    3.1713  -10.1816   17.6634 C   0  0  0  0  0  0  0  0  0  0  0  0
    2.7878   -8.3822   16.2137 C   0  0  0  0  0  0  0  0  0  0  0  0
    9.4601   -2.6590   25.6528 C   0  0  0  0  0  0  0  0  0  0  0  0
   10.1182   -1.5672   23.1165 C   0  0  0  0  0  0  0  0  0  0  0  0
    1.0552   -9.6360   17.0650 C   0  0  0  0  0  0  0  0  0  0  0  0
    3.6519   -9.1783   16.9039 C   0  0  0  0  0  0  0  0  0  0  0  0
    7.8675   -7.0096   15.9415 C   0  0  0  0  0  0  0  0  0  0  0  0
    5.9733   -9.6553   17.3832 N   0  0  0  0  0  0  0  0  0  0  0  0
   10.2411   -2.9363   23.4301 C   0  0  0  0  0  0  0  0  0  0  0  0
   10.7288   -3.8197   19.9525 C   0  0  0  0  0  0  0  0  0  0  0  0
   10.1189   -5.0054   19.6987 C   0  0  0  0  0  0  0  0  0  0  0  0
  1  3  4  0
  1  7  4  0
  2 21  4  0
  2 27  4  0
  3  9  4  0
  3 10  4  0
  4  8  4  0
  4 18  4  0
  4 25  1  0
  5  9  4  0
  5 12  4  0
  6 13  1  0
  6 27  1  0
  7 28  4  0
  8 11  4  0
  9 29  4  0
 10 12  4  0
 11 24  1  0
 11 26  4  0
 12 25  1  0
 13 28  1  0
 14 20  4  0
 14 23  4  0
 15 17  4  0
 15 21  4  0
 16 19  4  0
 16 23  4  0
 17 22  4  0
 18 26  4  0
 19 24  4  0
 20 24  4  0
 22 27  4  0
 28 29  4  0
M  END
$$$$

 Created by Python create_sdf_string function

 29 33  0  0  0  0  0  0  0  0999 V2000
   10.7215   -3.3326   17.6437 C   0  0  0  0  0  0  0  0  0  0  0  0
    9.9489   -3.4675   24.6487 N   0  0  0  0  0  0  0  0  0  0  0  0
   10.0172   -4.4740   17.4101 C   0  0  0  0  0  0  0  0  0  0  0  0
    6.9051   -7.9575   16.4222 C   0  0  0  0  0  0  0  0  0  0  0  0
    8.9969   -6.3552   17.9668 N   0  0  0  0  0  0  0  0  0  0  0  0
   10.6702   -3.9051   22.4070 C   0  0  0  0  0  0  0  0  0  0  0  0
   11.0625   -3.0028   18.8894 C   0  0  0  0  0  0  0  0  0  0  0  0
    5.6180   -7.9194   16.1754 O   0  0  0  0  0  0  0  0  0  0  0  0
    9.7259   -5.3080   18.4485 C   0  0  0  0  0  0  0  0  0  0  0  0
    9.4578   -5.0200   16.3036 N   0  0  0  0  0  0  0  0  0  0  0  0
    5.0287   -8.9365   16.8223 C   0  0  0  0  0  0  0  0  0  0  0  0
    8.7742   -6.1498   16.6764 C   0  0  0  0  0  0  0  0  0  0  0  0
   10.9418   -3.4032   21.2053 O   0  0  0  0  0  0  0  0  0  0  0  0
    1.4797   -8.6258   16.2950 C   0  0  0  0  0  0  0  0  0  0  0  0
    9.2861   -1.2743   25.3585 C   0  0  0  0  0  0  0  0  0  0  0  0
    1.8892  -10.3985   17.7511 N   0  0  0  0  0  0  0  0  0  0  0  0
    9.6210   -0.6952   24.0976 C   0  0  0  0  0  0  0  0  0  0  0  0
    7.0792   -9.0217   17.1429 C   0  0  0  0  0  0  0  0  0  0  0  0
    3.1713  -10.1816   17.6634 C   0  0  0  0  0  0  0  0  0  0  0  0
    2.7878   -8.3822   16.2137 C   0  0  0  0  0  0  0  0  0  0  0  0
    9.4601   -2.6590   25.6528 C   0  0  0  0  0  0  0  0  0  0  0  0
   10.1182   -1.5672   23.1165 C   0  0  0  0  0  0  0  0  0  0  0  0
    1.0552   -9.6360   17.0650 C   0  0  0  0  0  0  0  0  0  0  0  0
    3.6519   -9.1783   16.9039 C   0  0  0  0  0  0  0  0  0  0  0  0
    7.8675   -7.0096   15.9415 C   0  0  0  0  0  0  0  0  0  0  0  0
    5.9733   -9.6553   17.3832 N   0  0  0  0  0  0  0  0  0  0  0  0
   10.2411   -2.9363   23.4301 C   0  0  0  0  0  0  0  0  0  0  0  0
   10.7288   -3.8197   19.9525 C   0  0  0  0  0  0  0  0  0  0  0  0
   10.1189   -5.0054   19.6987 C   0  0  0  0  0  0  0  0  0  0  0  0
  1  3  4  0
  1  7  4  0
  2 21  4  0
  2 27  4  0
  3  9  4  0
  3 10  4  0
  4  8  4  0
  4 18  4  0
  4 25  1  0
  5  9  4  0
  5 12  4  0
  6 13  1  0
  6 27  1  0
  7 28  4  0
  8 11  4  0
  9 29  4  0
 10 12  4  0
 11 24  1  0
 11 26  4  0
 12 25  1  0
 13 28  1  0
 14 20  4  0
 14 23  4  0
 15 17  4  0
 15 21  4  0
 16 19  4  0
 16 23  4  0
 17 22  4  0
 18 26  4  0
 19 24  4  0
 20 24  4  0
 22 27  4  0
 28 29  4  0
M  END
$$$$

 Created by Python create_sdf_string function

 29 33  0  0  0  0  0  0  0  0999 V2000
   10.7215   -3.3326   17.6437 C   0  0  0  0  0  0  0  0  0  0  0  0
    9.9489   -3.4675   24.6487 N   0  0  0  0  0  0  0  0  0  0  0  0
   10.0172   -4.4740   17.4101 C   0  0  0  0  0  0  0  0  0  0  0  0
    6.9051   -7.9575   16.4222 C   0  0  0  0  0  0  0  0  0  0  0  0
    8.9969   -6.3552   17.9668 N   0  0  0  0  0  0  0  0  0  0  0  0
   10.6702   -3.9051   22.4070 C   0  0  0  0  0  0  0  0  0  0  0  0
   11.0625   -3.0028   18.8894 C   0  0  0  0  0  0  0  0  0  0  0  0
    5.6180   -7.9194   16.1754 O   0  0  0  0  0  0  0  0  0  0  0  0
    9.7259   -5.3080   18.4485 C   0  0  0  0  0  0  0  0  0  0  0  0
    9.4578   -5.0200   16.3036 N   0  0  0  0  0  0  0  0  0  0  0  0
    5.0287   -8.9365   16.8223 C   0  0  0  0  0  0  0  0  0  0  0  0
    8.7742   -6.1498   16.6764 C   0  0  0  0  0  0  0  0  0  0  0  0
   10.9418   -3.4032   21.2053 O   0  0  0  0  0  0  0  0  0  0  0  0
    1.4797   -8.6258   16.2950 C   0  0  0  0  0  0  0  0  0  0  0  0
    9.2861   -1.2743   25.3585 C   0  0  0  0  0  0  0  0  0  0  0  0
    1.8892  -10.3985   17.7511 N   0  0  0  0  0  0  0  0  0  0  0  0
    9.6210   -0.6952   24.0976 C   0  0  0  0  0  0  0  0  0  0  0  0
    7.0792   -9.0217   17.1429 C   0  0  0  0  0  0  0  0  0  0  0  0
    3.1713  -10.1816   17.6634 C   0  0  0  0  0  0  0  0  0  0  0  0
    2.7878   -8.3822   16.2137 C   0  0  0  0  0  0  0  0  0  0  0  0
    9.4601   -2.6590   25.6528 C   0  0  0  0  0  0  0  0  0  0  0  0
   10.1182   -1.5672   23.1165 C   0  0  0  0  0  0  0  0  0  0  0  0
    1.0552   -9.6360   17.0650 C   0  0  0  0  0  0  0  0  0  0  0  0
    3.6519   -9.1783   16.9039 C   0  0  0  0  0  0  0  0  0  0  0  0
    7.8675   -7.0096   15.9415 C   0  0  0  0  0  0  0  0  0  0  0  0
    5.9733   -9.6553   17.3832 N   0  0  0  0  0  0  0  0  0  0  0  0
   10.2411   -2.9363   23.4301 C   0  0  0  0  0  0  0  0  0  0  0  0
   10.7288   -3.8197   19.9525 C   0  0  0  0  0  0  0  0  0  0  0  0
   10.1189   -5.0054   19.6987 C   0  0  0  0  0  0  0  0  0  0  0  0
  1  3  4  0
  1  7  4  0
  2 21  4  0
  2 27  4  0
  3  9  4  0
  3 10  4  0
  4  8  4  0
  4 18  4  0
  4 25  1  0
  5  9  4  0
  5 12  4  0
  6 13  1  0
  6 27  1  0
  7 28  4  0
  8 11  4  0
  9 29  4  0
 10 12  4  0
 11 24  1  0
 11 26  4  0
 12 25  1  0
 13 28  1  0
 14 20  4  0
 14 23  4  0
 15 17  4  0
 15 21  4  0
 16 19  4  0
 16 23  4  0
 17 22  4  0
 18 26  4  0
 19 24  4  0
 20 24  4  0
 22 27  4  0
 28 29  4  0
M  END
$$$$

 Created by Python create_sdf_string function

 29 33  0  0  0  0  0  0  0  0999 V2000
   10.7215   -3.3326   17.6437 C   0  0  0  0  0  0  0  0  0  0  0  0
    9.9489   -3.4675   24.6487 N   0  0  0  0  0  0  0  0  0  0  0  0
   10.0172   -4.4740   17.4101 C   0  0  0  0  0  0  0  0  0  0  0  0
    6.9051   -7.9575   16.4222 C   0  0  0  0  0  0  0  0  0  0  0  0
    8.9969   -6.3552   17.9668 N   0  0  0  0  0  0  0  0  0  0  0  0
   10.6702   -3.9051   22.4070 C   0  0  0  0  0  0  0  0  0  0  0  0
   11.0625   -3.0028   18.8894 C   0  0  0  0  0  0  0  0  0  0  0  0
    5.6180   -7.9194   16.1754 O   0  0  0  0  0  0  0  0  0  0  0  0
    9.7259   -5.3080   18.4485 C   0  0  0  0  0  0  0  0  0  0  0  0
    9.4578   -5.0200   16.3036 N   0  0  0  0  0  0  0  0  0  0  0  0
    5.0287   -8.9365   16.8223 C   0  0  0  0  0  0  0  0  0  0  0  0
    8.7742   -6.1498   16.6764 C   0  0  0  0  0  0  0  0  0  0  0  0
   10.9418   -3.4032   21.2053 O   0  0  0  0  0  0  0  0  0  0  0  0
    1.4797   -8.6258   16.2950 C   0  0  0  0  0  0  0  0  0  0  0  0
    9.2861   -1.2743   25.3585 C   0  0  0  0  0  0  0  0  0  0  0  0
    1.8892  -10.3985   17.7511 N   0  0  0  0  0  0  0  0  0  0  0  0
    9.6210   -0.6952   24.0976 C   0  0  0  0  0  0  0  0  0  0  0  0
    7.0792   -9.0217   17.1429 C   0  0  0  0  0  0  0  0  0  0  0  0
    3.1713  -10.1816   17.6634 C   0  0  0  0  0  0  0  0  0  0  0  0
    2.7878   -8.3822   16.2137 C   0  0  0  0  0  0  0  0  0  0  0  0
    9.4601   -2.6590   25.6528 C   0  0  0  0  0  0  0  0  0  0  0  0
   10.1182   -1.5672   23.1165 C   0  0  0  0  0  0  0  0  0  0  0  0
    1.0552   -9.6360   17.0650 C   0  0  0  0  0  0  0  0  0  0  0  0
    3.6519   -9.1783   16.9039 C   0  0  0  0  0  0  0  0  0  0  0  0
    7.8675   -7.0096   15.9415 C   0  0  0  0  0  0  0  0  0  0  0  0
    5.9733   -9.6553   17.3832 N   0  0  0  0  0  0  0  0  0  0  0  0
   10.2411   -2.9363   23.4301 C   0  0  0  0  0  0  0  0  0  0  0  0
   10.7288   -3.8197   19.9525 C   0  0  0  0  0  0  0  0  0  0  0  0
   10.1189   -5.0054   19.6987 C   0  0  0  0  0  0  0  0  0  0  0  0
  1  3  4  0
  1  7  4  0
  2 21  4  0
  2 27  4  0
  3  9  4  0
  3 10  4  0
  4  8  4  0
  4 18  4  0
  4 25  1  0
  5  9  4  0
  5 12  4  0
  6 13  1  0
  6 27  1  0
  7 28  4  0
  8 11  4  0
  9 29  4  0
 10 12  4  0
 11 24  1  0
 11 26  4  0
 12 25  1  0
 13 28  1  0
 14 20  4  0
 14 23  4  0
 15 17  4  0
 15 21  4  0
 16 19  4  0
 16 23  4  0
 17 22  4  0
 18 26  4  0
 19 24  4  0
 20 24  4  0
 22 27  4  0
 28 29  4  0
M  END
$$$$

 Created by Python create_sdf_string function

 29 33  0  0  0  0  0  0  0  0999 V2000
   10.7215   -3.3326   17.6437 C   0  0  0  0  0  0  0  0  0  0  0  0
    9.9489   -3.4675   24.6487 N   0  0  0  0  0  0  0  0  0  0  0  0
   10.0172   -4.4740   17.4101 C   0  0  0  0  0  0  0  0  0  0  0  0
    6.9051   -7.9575   16.4222 C   0  0  0  0  0  0  0  0  0  0  0  0
    8.9969   -6.3552   17.9668 N   0  0  0  0  0  0  0  0  0  0  0  0
   10.6702   -3.9051   22.4070 C   0  0  0  0  0  0  0  0  0  0  0  0
   11.0625   -3.0028   18.8894 C   0  0  0  0  0  0  0  0  0  0  0  0
    5.6180   -7.9194   16.1754 O   0  0  0  0  0  0  0  0  0  0  0  0
    9.7259   -5.3080   18.4485 C   0  0  0  0  0  0  0  0  0  0  0  0
    9.4578   -5.0200   16.3036 N   0  0  0  0  0  0  0  0  0  0  0  0
    5.0287   -8.9365   16.8223 C   0  0  0  0  0  0  0  0  0  0  0  0
    8.7742   -6.1498   16.6764 C   0  0  0  0  0  0  0  0  0  0  0  0
   10.9418   -3.4032   21.2053 O   0  0  0  0  0  0  0  0  0  0  0  0
    1.4797   -8.6258   16.2950 C   0  0  0  0  0  0  0  0  0  0  0  0
    9.2861   -1.2743   25.3585 C   0  0  0  0  0  0  0  0  0  0  0  0
    1.8892  -10.3985   17.7511 N   0  0  0  0  0  0  0  0  0  0  0  0
    9.6210   -0.6952   24.0976 C   0  0  0  0  0  0  0  0  0  0  0  0
    7.0792   -9.0217   17.1429 C   0  0  0  0  0  0  0  0  0  0  0  0
    3.1713  -10.1816   17.6634 C   0  0  0  0  0  0  0  0  0  0  0  0
    2.7878   -8.3822   16.2137 C   0  0  0  0  0  0  0  0  0  0  0  0
    9.4601   -2.6590   25.6528 C   0  0  0  0  0  0  0  0  0  0  0  0
   10.1182   -1.5672   23.1165 C   0  0  0  0  0  0  0  0  0  0  0  0
    1.0552   -9.6360   17.0650 C   0  0  0  0  0  0  0  0  0  0  0  0
    3.6519   -9.1783   16.9039 C   0  0  0  0  0  0  0  0  0  0  0  0
    7.8675   -7.0096   15.9415 C   0  0  0  0  0  0  0  0  0  0  0  0
    5.9733   -9.6553   17.3832 N   0  0  0  0  0  0  0  0  0  0  0  0
   10.2411   -2.9363   23.4301 C   0  0  0  0  0  0  0  0  0  0  0  0
   10.7288   -3.8197   19.9525 C   0  0  0  0  0  0  0  0  0  0  0  0
   10.1189   -5.0054   19.6987 C   0  0  0  0  0  0  0  0  0  0  0  0
  1  3  4  0
  1  7  4  0
  2 21  4  0
  2 27  4  0
  3  9  4  0
  3 10  4  0
  4  8  4  0
  4 18  4  0
  4 25  1  0
  5  9  4  0
  5 12  4  0
  6 13  1  0
  6 27  1  0
  7 28  4  0
  8 11  4  0
  9 29  4  0
 10 12  4  0
 11 24  1  0
 11 26  4  0
 12 25  1  0
 13 28  1  0
 14 20  4  0
 14 23  4  0
 15 17  4  0
 15 21  4  0
 16 19  4  0
 16 23  4  0
 17 22  4  0
 18 26  4  0
 19 24  4  0
 20 24  4  0
 22 27  4  0
 28 29  4  0
M  END
$$$$

 Created by Python create_sdf_string function

 29 33  0  0  0  0  0  0  0  0999 V2000
   10.7215   -3.3326   17.6437 C   0  0  0  0  0  0  0  0  0  0  0  0
    9.9489   -3.4675   24.6487 N   0  0  0  0  0  0  0  0  0  0  0  0
   10.0172   -4.4740   17.4101 C   0  0  0  0  0  0  0  0  0  0  0  0
    6.9051   -7.9575   16.4222 C   0  0  0  0  0  0  0  0  0  0  0  0
    8.9969   -6.3552   17.9668 N   0  0  0  0  0  0  0  0  0  0  0  0
   10.6702   -3.9051   22.4070 C   0  0  0  0  0  0  0  0  0  0  0  0
   11.0625   -3.0028   18.8894 C   0  0  0  0  0  0  0  0  0  0  0  0
    5.6180   -7.9194   16.1754 O   0  0  0  0  0  0  0  0  0  0  0  0
    9.7259   -5.3080   18.4485 C   0  0  0  0  0  0  0  0  0  0  0  0
    9.4578   -5.0200   16.3036 N   0  0  0  0  0  0  0  0  0  0  0  0
    5.0287   -8.9365   16.8223 C   0  0  0  0  0  0  0  0  0  0  0  0
    8.7742   -6.1498   16.6764 C   0  0  0  0  0  0  0  0  0  0  0  0
   10.9418   -3.4032   21.2053 O   0  0  0  0  0  0  0  0  0  0  0  0
    1.4797   -8.6258   16.2950 C   0  0  0  0  0  0  0  0  0  0  0  0
    9.2861   -1.2743   25.3585 C   0  0  0  0  0  0  0  0  0  0  0  0
    1.8892  -10.3985   17.7511 N   0  0  0  0  0  0  0  0  0  0  0  0
    9.6210   -0.6952   24.0976 C   0  0  0  0  0  0  0  0  0  0  0  0
    7.0792   -9.0217   17.1429 C   0  0  0  0  0  0  0  0  0  0  0  0
    3.1713  -10.1816   17.6634 C   0  0  0  0  0  0  0  0  0  0  0  0
    2.7878   -8.3822   16.2137 C   0  0  0  0  0  0  0  0  0  0  0  0
    9.4601   -2.6590   25.6528 C   0  0  0  0  0  0  0  0  0  0  0  0
   10.1182   -1.5672   23.1165 C   0  0  0  0  0  0  0  0  0  0  0  0
    1.0552   -9.6360   17.0650 C   0  0  0  0  0  0  0  0  0  0  0  0
    3.6519   -9.1783   16.9039 C   0  0  0  0  0  0  0  0  0  0  0  0
    7.8675   -7.0096   15.9415 C   0  0  0  0  0  0  0  0  0  0  0  0
    5.9733   -9.6553   17.3832 N   0  0  0  0  0  0  0  0  0  0  0  0
   10.2411   -2.9363   23.4301 C   0  0  0  0  0  0  0  0  0  0  0  0
   10.7288   -3.8197   19.9525 C   0  0  0  0  0  0  0  0  0  0  0  0
   10.1189   -5.0054   19.6987 C   0  0  0  0  0  0  0  0  0  0  0  0
  1  3  4  0
  1  7  4  0
  2 21  4  0
  2 27  4  0
  3  9  4  0
  3 10  4  0
  4  8  4  0
  4 18  4  0
  4 25  1  0
  5  9  4  0
  5 12  4  0
  6 13  1  0
  6 27  1  0
  7 28  4  0
  8 11  4  0
  9 29  4  0
 10 12  4  0
 11 24  1  0
 11 26  4  0
 12 25  1  0
 13 28  1  0
 14 20  4  0
 14 23  4  0
 15 17  4  0
 15 21  4  0
 16 19  4  0
 16 23  4  0
 17 22  4  0
 18 26  4  0
 19 24  4  0
 20 24  4  0
 22 27  4  0
 28 29  4  0
M  END
$$$$

 Created by Python create_sdf_string function

 29 33  0  0  0  0  0  0  0  0999 V2000
   10.7215   -3.3326   17.6437 C   0  0  0  0  0  0  0  0  0  0  0  0
    9.9489   -3.4675   24.6487 N   0  0  0  0  0  0  0  0  0  0  0  0
   10.0172   -4.4740   17.4101 C   0  0  0  0  0  0  0  0  0  0  0  0
    6.9051   -7.9575   16.4222 C   0  0  0  0  0  0  0  0  0  0  0  0
    8.9969   -6.3552   17.9668 N   0  0  0  0  0  0  0  0  0  0  0  0
   10.6702   -3.9051   22.4070 C   0  0  0  0  0  0  0  0  0  0  0  0
   11.0625   -3.0028   18.8894 C   0  0  0  0  0  0  0  0  0  0  0  0
    5.6180   -7.9194   16.1754 O   0  0  0  0  0  0  0  0  0  0  0  0
    9.7259   -5.3080   18.4485 C   0  0  0  0  0  0  0  0  0  0  0  0
    9.4578   -5.0200   16.3036 N   0  0  0  0  0  0  0  0  0  0  0  0
    5.0287   -8.9365   16.8223 C   0  0  0  0  0  0  0  0  0  0  0  0
    8.7742   -6.1498   16.6764 C   0  0  0  0  0  0  0  0  0  0  0  0
   10.9418   -3.4032   21.2053 O   0  0  0  0  0  0  0  0  0  0  0  0
    1.4797   -8.6258   16.2950 C   0  0  0  0  0  0  0  0  0  0  0  0
    9.2861   -1.2743   25.3585 C   0  0  0  0  0  0  0  0  0  0  0  0
    1.8892  -10.3985   17.7511 N   0  0  0  0  0  0  0  0  0  0  0  0
    9.6210   -0.6952   24.0976 C   0  0  0  0  0  0  0  0  0  0  0  0
    7.0792   -9.0217   17.1429 C   0  0  0  0  0  0  0  0  0  0  0  0
    3.1713  -10.1816   17.6634 C   0  0  0  0  0  0  0  0  0  0  0  0
    2.7878   -8.3822   16.2137 C   0  0  0  0  0  0  0  0  0  0  0  0
    9.4601   -2.6590   25.6528 C   0  0  0  0  0  0  0  0  0  0  0  0
   10.1182   -1.5672   23.1165 C   0  0  0  0  0  0  0  0  0  0  0  0
    1.0552   -9.6360   17.0650 C   0  0  0  0  0  0  0  0  0  0  0  0
    3.6519   -9.1783   16.9039 C   0  0  0  0  0  0  0  0  0  0  0  0
    7.8675   -7.0096   15.9415 C   0  0  0  0  0  0  0  0  0  0  0  0
    5.9733   -9.6553   17.3832 N   0  0  0  0  0  0  0  0  0  0  0  0
   10.2411   -2.9363   23.4301 C   0  0  0  0  0  0  0  0  0  0  0  0
   10.7288   -3.8197   19.9525 C   0  0  0  0  0  0  0  0  0  0  0  0
   10.1189   -5.0054   19.6987 C   0  0  0  0  0  0  0  0  0  0  0  0
  1  3  4  0
  1  7  4  0
  2 21  4  0
  2 27  4  0
  3  9  4  0
  3 10  4  0
  4  8  4  0
  4 18  4  0
  4 25  1  0
  5  9  4  0
  5 12  4  0
  6 13  1  0
  6 27  1  0
  7 28  4  0
  8 11  4  0
  9 29  4  0
 10 12  4  0
 11 24  1  0
 11 26  4  0
 12 25  1  0
 13 28  1  0
 14 20  4  0
 14 23  4  0
 15 17  4  0
 15 21  4  0
 16 19  4  0
 16 23  4  0
 17 22  4  0
 18 26  4  0
 19 24  4  0
 20 24  4  0
 22 27  4  0
 28 29  4  0
M  END
$$$$

 Created by Python create_sdf_string function

 29 33  0  0  0  0  0  0  0  0999 V2000
   10.7215   -3.3326   17.6437 C   0  0  0  0  0  0  0  0  0  0  0  0
    9.9489   -3.4675   24.6487 N   0  0  0  0  0  0  0  0  0  0  0  0
   10.0172   -4.4740   17.4101 C   0  0  0  0  0  0  0  0  0  0  0  0
    6.9051   -7.9575   16.4222 C   0  0  0  0  0  0  0  0  0  0  0  0
    8.9969   -6.3552   17.9668 N   0  0  0  0  0  0  0  0  0  0  0  0
   10.6702   -3.9051   22.4070 C   0  0  0  0  0  0  0  0  0  0  0  0
   11.0625   -3.0028   18.8894 C   0  0  0  0  0  0  0  0  0  0  0  0
    5.6180   -7.9194   16.1754 O   0  0  0  0  0  0  0  0  0  0  0  0
    9.7259   -5.3080   18.4485 C   0  0  0  0  0  0  0  0  0  0  0  0
    9.4578   -5.0200   16.3036 N   0  0  0  0  0  0  0  0  0  0  0  0
    5.0287   -8.9365   16.8223 C   0  0  0  0  0  0  0  0  0  0  0  0
    8.7742   -6.1498   16.6764 C   0  0  0  0  0  0  0  0  0  0  0  0
   10.9418   -3.4032   21.2053 O   0  0  0  0  0  0  0  0  0  0  0  0
    1.4797   -8.6258   16.2950 C   0  0  0  0  0  0  0  0  0  0  0  0
    9.2861   -1.2743   25.3585 C   0  0  0  0  0  0  0  0  0  0  0  0
    1.8892  -10.3985   17.7511 N   0  0  0  0  0  0  0  0  0  0  0  0
    9.6210   -0.6952   24.0976 C   0  0  0  0  0  0  0  0  0  0  0  0
    7.0792   -9.0217   17.1429 C   0  0  0  0  0  0  0  0  0  0  0  0
    3.1713  -10.1816   17.6634 C   0  0  0  0  0  0  0  0  0  0  0  0
    2.7878   -8.3822   16.2137 C   0  0  0  0  0  0  0  0  0  0  0  0
    9.4601   -2.6590   25.6528 C   0  0  0  0  0  0  0  0  0  0  0  0
   10.1182   -1.5672   23.1165 C   0  0  0  0  0  0  0  0  0  0  0  0
    1.0552   -9.6360   17.0650 C   0  0  0  0  0  0  0  0  0  0  0  0
    3.6519   -9.1783   16.9039 C   0  0  0  0  0  0  0  0  0  0  0  0
    7.8675   -7.0096   15.9415 C   0  0  0  0  0  0  0  0  0  0  0  0
    5.9733   -9.6553   17.3832 N   0  0  0  0  0  0  0  0  0  0  0  0
   10.2411   -2.9363   23.4301 C   0  0  0  0  0  0  0  0  0  0  0  0
   10.7288   -3.8197   19.9525 C   0  0  0  0  0  0  0  0  0  0  0  0
   10.1189   -5.0054   19.6987 C   0  0  0  0  0  0  0  0  0  0  0  0
  1  3  4  0
  1  7  4  0
  2 21  4  0
  2 27  4  0
  3  9  4  0
  3 10  4  0
  4  8  4  0
  4 18  4  0
  4 25  1  0
  5  9  4  0
  5 12  4  0
  6 13  1  0
  6 27  1  0
  7 28  4  0
  8 11  4  0
  9 29  4  0
 10 12  4  0
 11 24  1  0
 11 26  4  0
 12 25  1  0
 13 28  1  0
 14 20  4  0
 14 23  4  0
 15 17  4  0
 15 21  4  0
 16 19  4  0
 16 23  4  0
 17 22  4  0
 18 26  4  0
 19 24  4  0
 20 24  4  0
 22 27  4  0
 28 29  4  0
M  END
$$$$

 Created by Python create_sdf_string function

 29 33  0  0  0  0  0  0  0  0999 V2000
   10.7215   -3.3326   17.6437 C   0  0  0  0  0  0  0  0  0  0  0  0
    9.9489   -3.4675   24.6487 N   0  0  0  0  0  0  0  0  0  0  0  0
   10.0172   -4.4740   17.4101 C   0  0  0  0  0  0  0  0  0  0  0  0
    6.9051   -7.9575   16.4222 C   0  0  0  0  0  0  0  0  0  0  0  0
    8.9969   -6.3552   17.9668 N   0  0  0  0  0  0  0  0  0  0  0  0
   10.6702   -3.9051   22.4070 C   0  0  0  0  0  0  0  0  0  0  0  0
   11.0625   -3.0028   18.8894 C   0  0  0  0  0  0  0  0  0  0  0  0
    5.6180   -7.9194   16.1754 O   0  0  0  0  0  0  0  0  0  0  0  0
    9.7259   -5.3080   18.4485 C   0  0  0  0  0  0  0  0  0  0  0  0
    9.4578   -5.0200   16.3036 N   0  0  0  0  0  0  0  0  0  0  0  0
    5.0287   -8.9365   16.8223 C   0  0  0  0  0  0  0  0  0  0  0  0
    8.7742   -6.1498   16.6764 C   0  0  0  0  0  0  0  0  0  0  0  0
   10.9418   -3.4032   21.2053 O   0  0  0  0  0  0  0  0  0  0  0  0
    1.4797   -8.6258   16.2950 C   0  0  0  0  0  0  0  0  0  0  0  0
    9.2861   -1.2743   25.3585 C   0  0  0  0  0  0  0  0  0  0  0  0
    1.8892  -10.3985   17.7511 N   0  0  0  0  0  0  0  0  0  0  0  0
    9.6210   -0.6952   24.0976 C   0  0  0  0  0  0  0  0  0  0  0  0
    7.0792   -9.0217   17.1429 C   0  0  0  0  0  0  0  0  0  0  0  0
    3.1713  -10.1816   17.6634 C   0  0  0  0  0  0  0  0  0  0  0  0
    2.7878   -8.3822   16.2137 C   0  0  0  0  0  0  0  0  0  0  0  0
    9.4601   -2.6590   25.6528 C   0  0  0  0  0  0  0  0  0  0  0  0
   10.1182   -1.5672   23.1165 C   0  0  0  0  0  0  0  0  0  0  0  0
    1.0552   -9.6360   17.0650 C   0  0  0  0  0  0  0  0  0  0  0  0
    3.6519   -9.1783   16.9039 C   0  0  0  0  0  0  0  0  0  0  0  0
    7.8675   -7.0096   15.9415 C   0  0  0  0  0  0  0  0  0  0  0  0
    5.9733   -9.6553   17.3832 N   0  0  0  0  0  0  0  0  0  0  0  0
   10.2411   -2.9363   23.4301 C   0  0  0  0  0  0  0  0  0  0  0  0
   10.7288   -3.8197   19.9525 C   0  0  0  0  0  0  0  0  0  0  0  0
   10.1189   -5.0054   19.6987 C   0  0  0  0  0  0  0  0  0  0  0  0
  1  3  4  0
  1  7  4  0
  2 21  4  0
  2 27  4  0
  3  9  4  0
  3 10  4  0
  4  8  4  0
  4 18  4  0
  4 25  1  0
  5  9  4  0
  5 12  4  0
  6 13  1  0
  6 27  1  0
  7 28  4  0
  8 11  4  0
  9 29  4  0
 10 12  4  0
 11 24  1  0
 11 26  4  0
 12 25  1  0
 13 28  1  0
 14 20  4  0
 14 23  4  0
 15 17  4  0
 15 21  4  0
 16 19  4  0
 16 23  4  0
 17 22  4  0
 18 26  4  0
 19 24  4  0
 20 24  4  0
 22 27  4  0
 28 29  4  0
M  END
$$$$

 Created by Python create_sdf_string function

 29 33  0  0  0  0  0  0  0  0999 V2000
   10.7215   -3.3326   17.6437 C   0  0  0  0  0  0  0  0  0  0  0  0
    9.9489   -3.4675   24.6487 N   0  0  0  0  0  0  0  0  0  0  0  0
   10.0172   -4.4740   17.4101 C   0  0  0  0  0  0  0  0  0  0  0  0
    6.9051   -7.9575   16.4222 C   0  0  0  0  0  0  0  0  0  0  0  0
    8.9969   -6.3552   17.9668 N   0  0  0  0  0  0  0  0  0  0  0  0
   10.6702   -3.9051   22.4070 C   0  0  0  0  0  0  0  0  0  0  0  0
   11.0625   -3.0028   18.8894 C   0  0  0  0  0  0  0  0  0  0  0  0
    5.6180   -7.9194   16.1754 O   0  0  0  0  0  0  0  0  0  0  0  0
    9.7259   -5.3080   18.4485 C   0  0  0  0  0  0  0  0  0  0  0  0
    9.4578   -5.0200   16.3036 N   0  0  0  0  0  0  0  0  0  0  0  0
    5.0287   -8.9365   16.8223 C   0  0  0  0  0  0  0  0  0  0  0  0
    8.7742   -6.1498   16.6764 C   0  0  0  0  0  0  0  0  0  0  0  0
   10.9418   -3.4032   21.2053 O   0  0  0  0  0  0  0  0  0  0  0  0
    1.4797   -8.6258   16.2950 C   0  0  0  0  0  0  0  0  0  0  0  0
    9.2861   -1.2743   25.3585 C   0  0  0  0  0  0  0  0  0  0  0  0
    1.8892  -10.3985   17.7511 N   0  0  0  0  0  0  0  0  0  0  0  0
    9.6210   -0.6952   24.0976 C   0  0  0  0  0  0  0  0  0  0  0  0
    7.0792   -9.0217   17.1429 C   0  0  0  0  0  0  0  0  0  0  0  0
    3.1713  -10.1816   17.6634 C   0  0  0  0  0  0  0  0  0  0  0  0
    2.7878   -8.3822   16.2137 C   0  0  0  0  0  0  0  0  0  0  0  0
    9.4601   -2.6590   25.6528 C   0  0  0  0  0  0  0  0  0  0  0  0
   10.1182   -1.5672   23.1165 C   0  0  0  0  0  0  0  0  0  0  0  0
    1.0552   -9.6360   17.0650 C   0  0  0  0  0  0  0  0  0  0  0  0
    3.6519   -9.1783   16.9039 C   0  0  0  0  0  0  0  0  0  0  0  0
    7.8675   -7.0096   15.9415 C   0  0  0  0  0  0  0  0  0  0  0  0
    5.9733   -9.6553   17.3832 N   0  0  0  0  0  0  0  0  0  0  0  0
   10.2411   -2.9363   23.4301 C   0  0  0  0  0  0  0  0  0  0  0  0
   10.7288   -3.8197   19.9525 C   0  0  0  0  0  0  0  0  0  0  0  0
   10.1189   -5.0054   19.6987 C   0  0  0  0  0  0  0  0  0  0  0  0
  1  3  4  0
  1  7  4  0
  2 21  4  0
  2 27  4  0
  3  9  4  0
  3 10  4  0
  4  8  4  0
  4 18  4  0
  4 25  1  0
  5  9  4  0
  5 12  4  0
  6 13  1  0
  6 27  1  0
  7 28  4  0
  8 11  4  0
  9 29  4  0
 10 12  4  0
 11 24  1  0
 11 26  4  0
 12 25  1  0
 13 28  1  0
 14 20  4  0
 14 23  4  0
 15 17  4  0
 15 21  4  0
 16 19  4  0
 16 23  4  0
 17 22  4  0
 18 26  4  0
 19 24  4  0
 20 24  4  0
 22 27  4  0
 28 29  4  0
M  END
$$$$

 Created by Python create_sdf_string function

 29 33  0  0  0  0  0  0  0  0999 V2000
   10.7215   -3.3326   17.6437 C   0  0  0  0  0  0  0  0  0  0  0  0
    9.9489   -3.4675   24.6487 N   0  0  0  0  0  0  0  0  0  0  0  0
   10.0172   -4.4740   17.4101 C   0  0  0  0  0  0  0  0  0  0  0  0
    6.9051   -7.9575   16.4222 C   0  0  0  0  0  0  0  0  0  0  0  0
    8.9969   -6.3552   17.9668 N   0  0  0  0  0  0  0  0  0  0  0  0
   10.6702   -3.9051   22.4070 C   0  0  0  0  0  0  0  0  0  0  0  0
   11.0625   -3.0028   18.8894 C   0  0  0  0  0  0  0  0  0  0  0  0
    5.6180   -7.9194   16.1754 O   0  0  0  0  0  0  0  0  0  0  0  0
    9.7259   -5.3080   18.4485 C   0  0  0  0  0  0  0  0  0  0  0  0
    9.4578   -5.0200   16.3036 N   0  0  0  0  0  0  0  0  0  0  0  0
    5.0287   -8.9365   16.8223 C   0  0  0  0  0  0  0  0  0  0  0  0
    8.7742   -6.1498   16.6764 C   0  0  0  0  0  0  0  0  0  0  0  0
   10.9418   -3.4032   21.2053 O   0  0  0  0  0  0  0  0  0  0  0  0
    1.4797   -8.6258   16.2950 C   0  0  0  0  0  0  0  0  0  0  0  0
    9.2861   -1.2743   25.3585 C   0  0  0  0  0  0  0  0  0  0  0  0
    1.8892  -10.3985   17.7511 N   0  0  0  0  0  0  0  0  0  0  0  0
    9.6210   -0.6952   24.0976 C   0  0  0  0  0  0  0  0  0  0  0  0
    7.0792   -9.0217   17.1429 C   0  0  0  0  0  0  0  0  0  0  0  0
    3.1713  -10.1816   17.6634 C   0  0  0  0  0  0  0  0  0  0  0  0
    2.7878   -8.3822   16.2137 C   0  0  0  0  0  0  0  0  0  0  0  0
    9.4601   -2.6590   25.6528 C   0  0  0  0  0  0  0  0  0  0  0  0
   10.1182   -1.5672   23.1165 C   0  0  0  0  0  0  0  0  0  0  0  0
    1.0552   -9.6360   17.0650 C   0  0  0  0  0  0  0  0  0  0  0  0
    3.6519   -9.1783   16.9039 C   0  0  0  0  0  0  0  0  0  0  0  0
    7.8675   -7.0096   15.9415 C   0  0  0  0  0  0  0  0  0  0  0  0
    5.9733   -9.6553   17.3832 N   0  0  0  0  0  0  0  0  0  0  0  0
   10.2411   -2.9363   23.4301 C   0  0  0  0  0  0  0  0  0  0  0  0
   10.7288   -3.8197   19.9525 C   0  0  0  0  0  0  0  0  0  0  0  0
   10.1189   -5.0054   19.6987 C   0  0  0  0  0  0  0  0  0  0  0  0
  1  3  4  0
  1  7  4  0
  2 21  4  0
  2 27  4  0
  3  9  4  0
  3 10  4  0
  4  8  4  0
  4 18  4  0
  4 25  1  0
  5  9  4  0
  5 12  4  0
  6 13  1  0
  6 27  1  0
  7 28  4  0
  8 11  4  0
  9 29  4  0
 10 12  4  0
 11 24  1  0
 11 26  4  0
 12 25  1  0
 13 28  1  0
 14 20  4  0
 14 23  4  0
 15 17  4  0
 15 21  4  0
 16 19  4  0
 16 23  4  0
 17 22  4  0
 18 26  4  0
 19 24  4  0
 20 24  4  0
 22 27  4  0
 28 29  4  0
M  END
$$$$

 Created by Python create_sdf_string function

 29 33  0  0  0  0  0  0  0  0999 V2000
   10.7215   -3.3326   17.6437 C   0  0  0  0  0  0  0  0  0  0  0  0
    9.9489   -3.4675   24.6487 N   0  0  0  0  0  0  0  0  0  0  0  0
   10.0172   -4.4740   17.4101 C   0  0  0  0  0  0  0  0  0  0  0  0
    6.9051   -7.9575   16.4222 C   0  0  0  0  0  0  0  0  0  0  0  0
    8.9969   -6.3552   17.9668 N   0  0  0  0  0  0  0  0  0  0  0  0
   10.6702   -3.9051   22.4070 C   0  0  0  0  0  0  0  0  0  0  0  0
   11.0625   -3.0028   18.8894 C   0  0  0  0  0  0  0  0  0  0  0  0
    5.6180   -7.9194   16.1754 O   0  0  0  0  0  0  0  0  0  0  0  0
    9.7259   -5.3080   18.4485 C   0  0  0  0  0  0  0  0  0  0  0  0
    9.4578   -5.0200   16.3036 N   0  0  0  0  0  0  0  0  0  0  0  0
    5.0287   -8.9365   16.8223 C   0  0  0  0  0  0  0  0  0  0  0  0
    8.7742   -6.1498   16.6764 C   0  0  0  0  0  0  0  0  0  0  0  0
   10.9418   -3.4032   21.2053 O   0  0  0  0  0  0  0  0  0  0  0  0
    1.4797   -8.6258   16.2950 C   0  0  0  0  0  0  0  0  0  0  0  0
    9.2861   -1.2743   25.3585 C   0  0  0  0  0  0  0  0  0  0  0  0
    1.8892  -10.3985   17.7511 N   0  0  0  0  0  0  0  0  0  0  0  0
    9.6210   -0.6952   24.0976 C   0  0  0  0  0  0  0  0  0  0  0  0
    7.0792   -9.0217   17.1429 C   0  0  0  0  0  0  0  0  0  0  0  0
    3.1713  -10.1816   17.6634 C   0  0  0  0  0  0  0  0  0  0  0  0
    2.7878   -8.3822   16.2137 C   0  0  0  0  0  0  0  0  0  0  0  0
    9.4601   -2.6590   25.6528 C   0  0  0  0  0  0  0  0  0  0  0  0
   10.1182   -1.5672   23.1165 C   0  0  0  0  0  0  0  0  0  0  0  0
    1.0552   -9.6360   17.0650 C   0  0  0  0  0  0  0  0  0  0  0  0
    3.6519   -9.1783   16.9039 C   0  0  0  0  0  0  0  0  0  0  0  0
    7.8675   -7.0096   15.9415 C   0  0  0  0  0  0  0  0  0  0  0  0
    5.9733   -9.6553   17.3832 N   0  0  0  0  0  0  0  0  0  0  0  0
   10.2411   -2.9363   23.4301 C   0  0  0  0  0  0  0  0  0  0  0  0
   10.7288   -3.8197   19.9525 C   0  0  0  0  0  0  0  0  0  0  0  0
   10.1189   -5.0054   19.6987 C   0  0  0  0  0  0  0  0  0  0  0  0
  1  3  4  0
  1  7  4  0
  2 21  4  0
  2 27  4  0
  3  9  4  0
  3 10  4  0
  4  8  4  0
  4 18  4  0
  4 25  1  0
  5  9  4  0
  5 12  4  0
  6 13  1  0
  6 27  1  0
  7 28  4  0
  8 11  4  0
  9 29  4  0
 10 12  4  0
 11 24  1  0
 11 26  4  0
 12 25  1  0
 13 28  1  0
 14 20  4  0
 14 23  4  0
 15 17  4  0
 15 21  4  0
 16 19  4  0
 16 23  4  0
 17 22  4  0
 18 26  4  0
 19 24  4  0
 20 24  4  0
 22 27  4  0
 28 29  4  0
M  END
$$$$

 Created by Python create_sdf_string function

 29 33  0  0  0  0  0  0  0  0999 V2000
   10.7215   -3.3326   17.6437 C   0  0  0  0  0  0  0  0  0  0  0  0
    9.9489   -3.4675   24.6487 N   0  0  0  0  0  0  0  0  0  0  0  0
   10.0172   -4.4740   17.4101 C   0  0  0  0  0  0  0  0  0  0  0  0
    6.9051   -7.9575   16.4222 C   0  0  0  0  0  0  0  0  0  0  0  0
    8.9969   -6.3552   17.9668 N   0  0  0  0  0  0  0  0  0  0  0  0
   10.6702   -3.9051   22.4070 C   0  0  0  0  0  0  0  0  0  0  0  0
   11.0625   -3.0028   18.8894 C   0  0  0  0  0  0  0  0  0  0  0  0
    5.6180   -7.9194   16.1754 O   0  0  0  0  0  0  0  0  0  0  0  0
    9.7259   -5.3080   18.4485 C   0  0  0  0  0  0  0  0  0  0  0  0
    9.4578   -5.0200   16.3036 N   0  0  0  0  0  0  0  0  0  0  0  0
    5.0287   -8.9365   16.8223 C   0  0  0  0  0  0  0  0  0  0  0  0
    8.7742   -6.1498   16.6764 C   0  0  0  0  0  0  0  0  0  0  0  0
   10.9418   -3.4032   21.2053 O   0  0  0  0  0  0  0  0  0  0  0  0
    1.4797   -8.6258   16.2950 C   0  0  0  0  0  0  0  0  0  0  0  0
    9.2861   -1.2743   25.3585 C   0  0  0  0  0  0  0  0  0  0  0  0
    1.8892  -10.3985   17.7511 N   0  0  0  0  0  0  0  0  0  0  0  0
    9.6210   -0.6952   24.0976 C   0  0  0  0  0  0  0  0  0  0  0  0
    7.0792   -9.0217   17.1429 C   0  0  0  0  0  0  0  0  0  0  0  0
    3.1713  -10.1816   17.6634 C   0  0  0  0  0  0  0  0  0  0  0  0
    2.7878   -8.3822   16.2137 C   0  0  0  0  0  0  0  0  0  0  0  0
    9.4601   -2.6590   25.6528 C   0  0  0  0  0  0  0  0  0  0  0  0
   10.1182   -1.5672   23.1165 C   0  0  0  0  0  0  0  0  0  0  0  0
    1.0552   -9.6360   17.0650 C   0  0  0  0  0  0  0  0  0  0  0  0
    3.6519   -9.1783   16.9039 C   0  0  0  0  0  0  0  0  0  0  0  0
    7.8675   -7.0096   15.9415 C   0  0  0  0  0  0  0  0  0  0  0  0
    5.9733   -9.6553   17.3832 N   0  0  0  0  0  0  0  0  0  0  0  0
   10.2411   -2.9363   23.4301 C   0  0  0  0  0  0  0  0  0  0  0  0
   10.7288   -3.8197   19.9525 C   0  0  0  0  0  0  0  0  0  0  0  0
   10.1189   -5.0054   19.6987 C   0  0  0  0  0  0  0  0  0  0  0  0
  1  3  4  0
  1  7  4  0
  2 21  4  0
  2 27  4  0
  3  9  4  0
  3 10  4  0
  4  8  4  0
  4 18  4  0
  4 25  1  0
  5  9  4  0
  5 12  4  0
  6 13  1  0
  6 27  1  0
  7 28  4  0
  8 11  4  0
  9 29  4  0
 10 12  4  0
 11 24  1  0
 11 26  4  0
 12 25  1  0
 13 28  1  0
 14 20  4  0
 14 23  4  0
 15 17  4  0
 15 21  4  0
 16 19  4  0
 16 23  4  0
 17 22  4  0
 18 26  4  0
 19 24  4  0
 20 24  4  0
 22 27  4  0
 28 29  4  0
M  END
$$$$

 Created by Python create_sdf_string function

 29 33  0  0  0  0  0  0  0  0999 V2000
   10.7215   -3.3326   17.6437 C   0  0  0  0  0  0  0  0  0  0  0  0
    9.9489   -3.4675   24.6487 N   0  0  0  0  0  0  0  0  0  0  0  0
   10.0172   -4.4740   17.4101 C   0  0  0  0  0  0  0  0  0  0  0  0
    6.9051   -7.9575   16.4222 C   0  0  0  0  0  0  0  0  0  0  0  0
    8.9969   -6.3552   17.9668 N   0  0  0  0  0  0  0  0  0  0  0  0
   10.6702   -3.9051   22.4070 C   0  0  0  0  0  0  0  0  0  0  0  0
   11.0625   -3.0028   18.8894 C   0  0  0  0  0  0  0  0  0  0  0  0
    5.6180   -7.9194   16.1754 O   0  0  0  0  0  0  0  0  0  0  0  0
    9.7259   -5.3080   18.4485 C   0  0  0  0  0  0  0  0  0  0  0  0
    9.4578   -5.0200   16.3036 N   0  0  0  0  0  0  0  0  0  0  0  0
    5.0287   -8.9365   16.8223 C   0  0  0  0  0  0  0  0  0  0  0  0
    8.7742   -6.1498   16.6764 C   0  0  0  0  0  0  0  0  0  0  0  0
   10.9418   -3.4032   21.2053 O   0  0  0  0  0  0  0  0  0  0  0  0
    1.4797   -8.6258   16.2950 C   0  0  0  0  0  0  0  0  0  0  0  0
    9.2861   -1.2743   25.3585 C   0  0  0  0  0  0  0  0  0  0  0  0
    1.8892  -10.3985   17.7511 N   0  0  0  0  0  0  0  0  0  0  0  0
    9.6210   -0.6952   24.0976 C   0  0  0  0  0  0  0  0  0  0  0  0
    7.0792   -9.0217   17.1429 C   0  0  0  0  0  0  0  0  0  0  0  0
    3.1713  -10.1816   17.6634 C   0  0  0  0  0  0  0  0  0  0  0  0
    2.7878   -8.3822   16.2137 C   0  0  0  0  0  0  0  0  0  0  0  0
    9.4601   -2.6590   25.6528 C   0  0  0  0  0  0  0  0  0  0  0  0
   10.1182   -1.5672   23.1165 C   0  0  0  0  0  0  0  0  0  0  0  0
    1.0552   -9.6360   17.0650 C   0  0  0  0  0  0  0  0  0  0  0  0
    3.6519   -9.1783   16.9039 C   0  0  0  0  0  0  0  0  0  0  0  0
    7.8675   -7.0096   15.9415 C   0  0  0  0  0  0  0  0  0  0  0  0
    5.9733   -9.6553   17.3832 N   0  0  0  0  0  0  0  0  0  0  0  0
   10.2411   -2.9363   23.4301 C   0  0  0  0  0  0  0  0  0  0  0  0
   10.7288   -3.8197   19.9525 C   0  0  0  0  0  0  0  0  0  0  0  0
   10.1189   -5.0054   19.6987 C   0  0  0  0  0  0  0  0  0  0  0  0
  1  3  4  0
  1  7  4  0
  2 21  4  0
  2 27  4  0
  3  9  4  0
  3 10  4  0
  4  8  4  0
  4 18  4  0
  4 25  1  0
  5  9  4  0
  5 12  4  0
  6 13  1  0
  6 27  1  0
  7 28  4  0
  8 11  4  0
  9 29  4  0
 10 12  4  0
 11 24  1  0
 11 26  4  0
 12 25  1  0
 13 28  1  0
 14 20  4  0
 14 23  4  0
 15 17  4  0
 15 21  4  0
 16 19  4  0
 16 23  4  0
 17 22  4  0
 18 26  4  0
 19 24  4  0
 20 24  4  0
 22 27  4  0
 28 29  4  0
M  END
$$$$

 Created by Python create_sdf_string function

 29 33  0  0  0  0  0  0  0  0999 V2000
   10.7215   -3.3326   17.6437 C   0  0  0  0  0  0  0  0  0  0  0  0
    9.9489   -3.4675   24.6487 N   0  0  0  0  0  0  0  0  0  0  0  0
   10.0172   -4.4740   17.4101 C   0  0  0  0  0  0  0  0  0  0  0  0
    6.9051   -7.9575   16.4222 C   0  0  0  0  0  0  0  0  0  0  0  0
    8.9969   -6.3552   17.9668 N   0  0  0  0  0  0  0  0  0  0  0  0
   10.6702   -3.9051   22.4070 C   0  0  0  0  0  0  0  0  0  0  0  0
   11.0625   -3.0028   18.8894 C   0  0  0  0  0  0  0  0  0  0  0  0
    5.6180   -7.9194   16.1754 O   0  0  0  0  0  0  0  0  0  0  0  0
    9.7259   -5.3080   18.4485 C   0  0  0  0  0  0  0  0  0  0  0  0
    9.4578   -5.0200   16.3036 N   0  0  0  0  0  0  0  0  0  0  0  0
    5.0287   -8.9365   16.8223 C   0  0  0  0  0  0  0  0  0  0  0  0
    8.7742   -6.1498   16.6764 C   0  0  0  0  0  0  0  0  0  0  0  0
   10.9418   -3.4032   21.2053 O   0  0  0  0  0  0  0  0  0  0  0  0
    1.4797   -8.6258   16.2950 C   0  0  0  0  0  0  0  0  0  0  0  0
    9.2861   -1.2743   25.3585 C   0  0  0  0  0  0  0  0  0  0  0  0
    1.8892  -10.3985   17.7511 N   0  0  0  0  0  0  0  0  0  0  0  0
    9.6210   -0.6952   24.0976 C   0  0  0  0  0  0  0  0  0  0  0  0
    7.0792   -9.0217   17.1429 C   0  0  0  0  0  0  0  0  0  0  0  0
    3.1713  -10.1816   17.6634 C   0  0  0  0  0  0  0  0  0  0  0  0
    2.7878   -8.3822   16.2137 C   0  0  0  0  0  0  0  0  0  0  0  0
    9.4601   -2.6590   25.6528 C   0  0  0  0  0  0  0  0  0  0  0  0
   10.1182   -1.5672   23.1165 C   0  0  0  0  0  0  0  0  0  0  0  0
    1.0552   -9.6360   17.0650 C   0  0  0  0  0  0  0  0  0  0  0  0
    3.6519   -9.1783   16.9039 C   0  0  0  0  0  0  0  0  0  0  0  0
    7.8675   -7.0096   15.9415 C   0  0  0  0  0  0  0  0  0  0  0  0
    5.9733   -9.6553   17.3832 N   0  0  0  0  0  0  0  0  0  0  0  0
   10.2411   -2.9363   23.4301 C   0  0  0  0  0  0  0  0  0  0  0  0
   10.7288   -3.8197   19.9525 C   0  0  0  0  0  0  0  0  0  0  0  0
   10.1189   -5.0054   19.6987 C   0  0  0  0  0  0  0  0  0  0  0  0
  1  3  4  0
  1  7  4  0
  2 21  4  0
  2 27  4  0
  3  9  4  0
  3 10  4  0
  4  8  4  0
  4 18  4  0
  4 25  1  0
  5  9  4  0
  5 12  4  0
  6 13  1  0
  6 27  1  0
  7 28  4  0
  8 11  4  0
  9 29  4  0
 10 12  4  0
 11 24  1  0
 11 26  4  0
 12 25  1  0
 13 28  1  0
 14 20  4  0
 14 23  4  0
 15 17  4  0
 15 21  4  0
 16 19  4  0
 16 23  4  0
 17 22  4  0
 18 26  4  0
 19 24  4  0
 20 24  4  0
 22 27  4  0
 28 29  4  0
M  END
$$$$

 Created by Python create_sdf_string function

 29 33  0  0  0  0  0  0  0  0999 V2000
   10.7215   -3.3326   17.6437 C   0  0  0  0  0  0  0  0  0  0  0  0
    9.9489   -3.4675   24.6487 N   0  0  0  0  0  0  0  0  0  0  0  0
   10.0172   -4.4740   17.4101 C   0  0  0  0  0  0  0  0  0  0  0  0
    6.9051   -7.9575   16.4222 C   0  0  0  0  0  0  0  0  0  0  0  0
    8.9969   -6.3552   17.9668 N   0  0  0  0  0  0  0  0  0  0  0  0
   10.6702   -3.9051   22.4070 C   0  0  0  0  0  0  0  0  0  0  0  0
   11.0625   -3.0028   18.8894 C   0  0  0  0  0  0  0  0  0  0  0  0
    5.6180   -7.9194   16.1754 O   0  0  0  0  0  0  0  0  0  0  0  0
    9.7259   -5.3080   18.4485 C   0  0  0  0  0  0  0  0  0  0  0  0
    9.4578   -5.0200   16.3036 N   0  0  0  0  0  0  0  0  0  0  0  0
    5.0287   -8.9365   16.8223 C   0  0  0  0  0  0  0  0  0  0  0  0
    8.7742   -6.1498   16.6764 C   0  0  0  0  0  0  0  0  0  0  0  0
   10.9418   -3.4032   21.2053 O   0  0  0  0  0  0  0  0  0  0  0  0
    1.4797   -8.6258   16.2950 C   0  0  0  0  0  0  0  0  0  0  0  0
    9.2861   -1.2743   25.3585 C   0  0  0  0  0  0  0  0  0  0  0  0
    1.8892  -10.3985   17.7511 N   0  0  0  0  0  0  0  0  0  0  0  0
    9.6210   -0.6952   24.0976 C   0  0  0  0  0  0  0  0  0  0  0  0
    7.0792   -9.0217   17.1429 C   0  0  0  0  0  0  0  0  0  0  0  0
    3.1713  -10.1816   17.6634 C   0  0  0  0  0  0  0  0  0  0  0  0
    2.7878   -8.3822   16.2137 C   0  0  0  0  0  0  0  0  0  0  0  0
    9.4601   -2.6590   25.6528 C   0  0  0  0  0  0  0  0  0  0  0  0
   10.1182   -1.5672   23.1165 C   0  0  0  0  0  0  0  0  0  0  0  0
    1.0552   -9.6360   17.0650 C   0  0  0  0  0  0  0  0  0  0  0  0
    3.6519   -9.1783   16.9039 C   0  0  0  0  0  0  0  0  0  0  0  0
    7.8675   -7.0096   15.9415 C   0  0  0  0  0  0  0  0  0  0  0  0
    5.9733   -9.6553   17.3832 N   0  0  0  0  0  0  0  0  0  0  0  0
   10.2411   -2.9363   23.4301 C   0  0  0  0  0  0  0  0  0  0  0  0
   10.7288   -3.8197   19.9525 C   0  0  0  0  0  0  0  0  0  0  0  0
   10.1189   -5.0054   19.6987 C   0  0  0  0  0  0  0  0  0  0  0  0
  1  3  4  0
  1  7  4  0
  2 21  4  0
  2 27  4  0
  3  9  4  0
  3 10  4  0
  4  8  4  0
  4 18  4  0
  4 25  1  0
  5  9  4  0
  5 12  4  0
  6 13  1  0
  6 27  1  0
  7 28  4  0
  8 11  4  0
  9 29  4  0
 10 12  4  0
 11 24  1  0
 11 26  4  0
 12 25  1  0
 13 28  1  0
 14 20  4  0
 14 23  4  0
 15 17  4  0
 15 21  4  0
 16 19  4  0
 16 23  4  0
 17 22  4  0
 18 26  4  0
 19 24  4  0
 20 24  4  0
 22 27  4  0
 28 29  4  0
M  END
$$$$

 Created by Python create_sdf_string function

 29 33  0  0  0  0  0  0  0  0999 V2000
   10.7215   -3.3326   17.6437 C   0  0  0  0  0  0  0  0  0  0  0  0
    9.9489   -3.4675   24.6487 N   0  0  0  0  0  0  0  0  0  0  0  0
   10.0172   -4.4740   17.4101 C   0  0  0  0  0  0  0  0  0  0  0  0
    6.9051   -7.9575   16.4222 C   0  0  0  0  0  0  0  0  0  0  0  0
    8.9969   -6.3552   17.9668 N   0  0  0  0  0  0  0  0  0  0  0  0
   10.6702   -3.9051   22.4070 C   0  0  0  0  0  0  0  0  0  0  0  0
   11.0625   -3.0028   18.8894 C   0  0  0  0  0  0  0  0  0  0  0  0
    5.6180   -7.9194   16.1754 O   0  0  0  0  0  0  0  0  0  0  0  0
    9.7259   -5.3080   18.4485 C   0  0  0  0  0  0  0  0  0  0  0  0
    9.4578   -5.0200   16.3036 N   0  0  0  0  0  0  0  0  0  0  0  0
    5.0287   -8.9365   16.8223 C   0  0  0  0  0  0  0  0  0  0  0  0
    8.7742   -6.1498   16.6764 C   0  0  0  0  0  0  0  0  0  0  0  0
   10.9418   -3.4032   21.2053 O   0  0  0  0  0  0  0  0  0  0  0  0
    1.4797   -8.6258   16.2950 C   0  0  0  0  0  0  0  0  0  0  0  0
    9.2861   -1.2743   25.3585 C   0  0  0  0  0  0  0  0  0  0  0  0
    1.8892  -10.3985   17.7511 N   0  0  0  0  0  0  0  0  0  0  0  0
    9.6210   -0.6952   24.0976 C   0  0  0  0  0  0  0  0  0  0  0  0
    7.0792   -9.0217   17.1429 C   0  0  0  0  0  0  0  0  0  0  0  0
    3.1713  -10.1816   17.6634 C   0  0  0  0  0  0  0  0  0  0  0  0
    2.7878   -8.3822   16.2137 C   0  0  0  0  0  0  0  0  0  0  0  0
    9.4601   -2.6590   25.6528 C   0  0  0  0  0  0  0  0  0  0  0  0
   10.1182   -1.5672   23.1165 C   0  0  0  0  0  0  0  0  0  0  0  0
    1.0552   -9.6360   17.0650 C   0  0  0  0  0  0  0  0  0  0  0  0
    3.6519   -9.1783   16.9039 C   0  0  0  0  0  0  0  0  0  0  0  0
    7.8675   -7.0096   15.9415 C   0  0  0  0  0  0  0  0  0  0  0  0
    5.9733   -9.6553   17.3832 N   0  0  0  0  0  0  0  0  0  0  0  0
   10.2411   -2.9363   23.4301 C   0  0  0  0  0  0  0  0  0  0  0  0
   10.7288   -3.8197   19.9525 C   0  0  0  0  0  0  0  0  0  0  0  0
   10.1189   -5.0054   19.6987 C   0  0  0  0  0  0  0  0  0  0  0  0
  1  3  4  0
  1  7  4  0
  2 21  4  0
  2 27  4  0
  3  9  4  0
  3 10  4  0
  4  8  4  0
  4 18  4  0
  4 25  1  0
  5  9  4  0
  5 12  4  0
  6 13  1  0
  6 27  1  0
  7 28  4  0
  8 11  4  0
  9 29  4  0
 10 12  4  0
 11 24  1  0
 11 26  4  0
 12 25  1  0
 13 28  1  0
 14 20  4  0
 14 23  4  0
 15 17  4  0
 15 21  4  0
 16 19  4  0
 16 23  4  0
 17 22  4  0
 18 26  4  0
 19 24  4  0
 20 24  4  0
 22 27  4  0
 28 29  4  0
M  END
$$$$

 Created by Python create_sdf_string function

 29 33  0  0  0  0  0  0  0  0999 V2000
   10.7215   -3.3326   17.6437 C   0  0  0  0  0  0  0  0  0  0  0  0
    9.9489   -3.4675   24.6487 N   0  0  0  0  0  0  0  0  0  0  0  0
   10.0172   -4.4740   17.4101 C   0  0  0  0  0  0  0  0  0  0  0  0
    6.9051   -7.9575   16.4222 C   0  0  0  0  0  0  0  0  0  0  0  0
    8.9969   -6.3552   17.9668 N   0  0  0  0  0  0  0  0  0  0  0  0
   10.6702   -3.9051   22.4070 C   0  0  0  0  0  0  0  0  0  0  0  0
   11.0625   -3.0028   18.8894 C   0  0  0  0  0  0  0  0  0  0  0  0
    5.6180   -7.9194   16.1754 O   0  0  0  0  0  0  0  0  0  0  0  0
    9.7259   -5.3080   18.4485 C   0  0  0  0  0  0  0  0  0  0  0  0
    9.4578   -5.0200   16.3036 N   0  0  0  0  0  0  0  0  0  0  0  0
    5.0287   -8.9365   16.8223 C   0  0  0  0  0  0  0  0  0  0  0  0
    8.7742   -6.1498   16.6764 C   0  0  0  0  0  0  0  0  0  0  0  0
   10.9418   -3.4032   21.2053 O   0  0  0  0  0  0  0  0  0  0  0  0
    1.4797   -8.6258   16.2950 C   0  0  0  0  0  0  0  0  0  0  0  0
    9.2861   -1.2743   25.3585 C   0  0  0  0  0  0  0  0  0  0  0  0
    1.8892  -10.3985   17.7511 N   0  0  0  0  0  0  0  0  0  0  0  0
    9.6210   -0.6952   24.0976 C   0  0  0  0  0  0  0  0  0  0  0  0
    7.0792   -9.0217   17.1429 C   0  0  0  0  0  0  0  0  0  0  0  0
    3.1713  -10.1816   17.6634 C   0  0  0  0  0  0  0  0  0  0  0  0
    2.7878   -8.3822   16.2137 C   0  0  0  0  0  0  0  0  0  0  0  0
    9.4601   -2.6590   25.6528 C   0  0  0  0  0  0  0  0  0  0  0  0
   10.1182   -1.5672   23.1165 C   0  0  0  0  0  0  0  0  0  0  0  0
    1.0552   -9.6360   17.0650 C   0  0  0  0  0  0  0  0  0  0  0  0
    3.6519   -9.1783   16.9039 C   0  0  0  0  0  0  0  0  0  0  0  0
    7.8675   -7.0096   15.9415 C   0  0  0  0  0  0  0  0  0  0  0  0
    5.9733   -9.6553   17.3832 N   0  0  0  0  0  0  0  0  0  0  0  0
   10.2411   -2.9363   23.4301 C   0  0  0  0  0  0  0  0  0  0  0  0
   10.7288   -3.8197   19.9525 C   0  0  0  0  0  0  0  0  0  0  0  0
   10.1189   -5.0054   19.6987 C   0  0  0  0  0  0  0  0  0  0  0  0
  1  3  4  0
  1  7  4  0
  2 21  4  0
  2 27  4  0
  3  9  4  0
  3 10  4  0
  4  8  4  0
  4 18  4  0
  4 25  1  0
  5  9  4  0
  5 12  4  0
  6 13  1  0
  6 27  1  0
  7 28  4  0
  8 11  4  0
  9 29  4  0
 10 12  4  0
 11 24  1  0
 11 26  4  0
 12 25  1  0
 13 28  1  0
 14 20  4  0
 14 23  4  0
 15 17  4  0
 15 21  4  0
 16 19  4  0
 16 23  4  0
 17 22  4  0
 18 26  4  0
 19 24  4  0
 20 24  4  0
 22 27  4  0
 28 29  4  0
M  END
$$$$

 Created by Python create_sdf_string function

 29 33  0  0  0  0  0  0  0  0999 V2000
   10.7215   -3.3326   17.6437 C   0  0  0  0  0  0  0  0  0  0  0  0
    9.9489   -3.4675   24.6487 N   0  0  0  0  0  0  0  0  0  0  0  0
   10.0172   -4.4740   17.4101 C   0  0  0  0  0  0  0  0  0  0  0  0
    6.9051   -7.9575   16.4222 C   0  0  0  0  0  0  0  0  0  0  0  0
    8.9969   -6.3552   17.9668 N   0  0  0  0  0  0  0  0  0  0  0  0
   10.6702   -3.9051   22.4070 C   0  0  0  0  0  0  0  0  0  0  0  0
   11.0625   -3.0028   18.8894 C   0  0  0  0  0  0  0  0  0  0  0  0
    5.6180   -7.9194   16.1754 O   0  0  0  0  0  0  0  0  0  0  0  0
    9.7259   -5.3080   18.4485 C   0  0  0  0  0  0  0  0  0  0  0  0
    9.4578   -5.0200   16.3036 N   0  0  0  0  0  0  0  0  0  0  0  0
    5.0287   -8.9365   16.8223 C   0  0  0  0  0  0  0  0  0  0  0  0
    8.7742   -6.1498   16.6764 C   0  0  0  0  0  0  0  0  0  0  0  0
   10.9418   -3.4032   21.2053 O   0  0  0  0  0  0  0  0  0  0  0  0
    1.4797   -8.6258   16.2950 C   0  0  0  0  0  0  0  0  0  0  0  0
    9.2861   -1.2743   25.3585 C   0  0  0  0  0  0  0  0  0  0  0  0
    1.8892  -10.3985   17.7511 N   0  0  0  0  0  0  0  0  0  0  0  0
    9.6210   -0.6952   24.0976 C   0  0  0  0  0  0  0  0  0  0  0  0
    7.0792   -9.0217   17.1429 C   0  0  0  0  0  0  0  0  0  0  0  0
    3.1713  -10.1816   17.6634 C   0  0  0  0  0  0  0  0  0  0  0  0
    2.7878   -8.3822   16.2137 C   0  0  0  0  0  0  0  0  0  0  0  0
    9.4601   -2.6590   25.6528 C   0  0  0  0  0  0  0  0  0  0  0  0
   10.1182   -1.5672   23.1165 C   0  0  0  0  0  0  0  0  0  0  0  0
    1.0552   -9.6360   17.0650 C   0  0  0  0  0  0  0  0  0  0  0  0
    3.6519   -9.1783   16.9039 C   0  0  0  0  0  0  0  0  0  0  0  0
    7.8675   -7.0096   15.9415 C   0  0  0  0  0  0  0  0  0  0  0  0
    5.9733   -9.6553   17.3832 N   0  0  0  0  0  0  0  0  0  0  0  0
   10.2411   -2.9363   23.4301 C   0  0  0  0  0  0  0  0  0  0  0  0
   10.7288   -3.8197   19.9525 C   0  0  0  0  0  0  0  0  0  0  0  0
   10.1189   -5.0054   19.6987 C   0  0  0  0  0  0  0  0  0  0  0  0
  1  3  4  0
  1  7  4  0
  2 21  4  0
  2 27  4  0
  3  9  4  0
  3 10  4  0
  4  8  4  0
  4 18  4  0
  4 25  1  0
  5  9  4  0
  5 12  4  0
  6 13  1  0
  6 27  1  0
  7 28  4  0
  8 11  4  0
  9 29  4  0
 10 12  4  0
 11 24  1  0
 11 26  4  0
 12 25  1  0
 13 28  1  0
 14 20  4  0
 14 23  4  0
 15 17  4  0
 15 21  4  0
 16 19  4  0
 16 23  4  0
 17 22  4  0
 18 26  4  0
 19 24  4  0
 20 24  4  0
 22 27  4  0
 28 29  4  0
M  END
$$$$

 Created by Python create_sdf_string function

 29 33  0  0  0  0  0  0  0  0999 V2000
   10.7215   -3.3326   17.6437 C   0  0  0  0  0  0  0  0  0  0  0  0
    9.9489   -3.4675   24.6487 N   0  0  0  0  0  0  0  0  0  0  0  0
   10.0172   -4.4740   17.4101 C   0  0  0  0  0  0  0  0  0  0  0  0
    6.9051   -7.9575   16.4222 C   0  0  0  0  0  0  0  0  0  0  0  0
    8.9969   -6.3552   17.9668 N   0  0  0  0  0  0  0  0  0  0  0  0
   10.6702   -3.9051   22.4070 C   0  0  0  0  0  0  0  0  0  0  0  0
   11.0625   -3.0028   18.8894 C   0  0  0  0  0  0  0  0  0  0  0  0
    5.6180   -7.9194   16.1754 O   0  0  0  0  0  0  0  0  0  0  0  0
    9.7259   -5.3080   18.4485 C   0  0  0  0  0  0  0  0  0  0  0  0
    9.4578   -5.0200   16.3036 N   0  0  0  0  0  0  0  0  0  0  0  0
    5.0287   -8.9365   16.8223 C   0  0  0  0  0  0  0  0  0  0  0  0
    8.7742   -6.1498   16.6764 C   0  0  0  0  0  0  0  0  0  0  0  0
   10.9418   -3.4032   21.2053 O   0  0  0  0  0  0  0  0  0  0  0  0
    1.4797   -8.6258   16.2950 C   0  0  0  0  0  0  0  0  0  0  0  0
    9.2861   -1.2743   25.3585 C   0  0  0  0  0  0  0  0  0  0  0  0
    1.8892  -10.3985   17.7511 N   0  0  0  0  0  0  0  0  0  0  0  0
    9.6210   -0.6952   24.0976 C   0  0  0  0  0  0  0  0  0  0  0  0
    7.0792   -9.0217   17.1429 C   0  0  0  0  0  0  0  0  0  0  0  0
    3.1713  -10.1816   17.6634 C   0  0  0  0  0  0  0  0  0  0  0  0
    2.7878   -8.3822   16.2137 C   0  0  0  0  0  0  0  0  0  0  0  0
    9.4601   -2.6590   25.6528 C   0  0  0  0  0  0  0  0  0  0  0  0
   10.1182   -1.5672   23.1165 C   0  0  0  0  0  0  0  0  0  0  0  0
    1.0552   -9.6360   17.0650 C   0  0  0  0  0  0  0  0  0  0  0  0
    3.6519   -9.1783   16.9039 C   0  0  0  0  0  0  0  0  0  0  0  0
    7.8675   -7.0096   15.9415 C   0  0  0  0  0  0  0  0  0  0  0  0
    5.9733   -9.6553   17.3832 N   0  0  0  0  0  0  0  0  0  0  0  0
   10.2411   -2.9363   23.4301 C   0  0  0  0  0  0  0  0  0  0  0  0
   10.7288   -3.8197   19.9525 C   0  0  0  0  0  0  0  0  0  0  0  0
   10.1189   -5.0054   19.6987 C   0  0  0  0  0  0  0  0  0  0  0  0
  1  3  4  0
  1  7  4  0
  2 21  4  0
  2 27  4  0
  3  9  4  0
  3 10  4  0
  4  8  4  0
  4 18  4  0
  4 25  1  0
  5  9  4  0
  5 12  4  0
  6 13  1  0
  6 27  1  0
  7 28  4  0
  8 11  4  0
  9 29  4  0
 10 12  4  0
 11 24  1  0
 11 26  4  0
 12 25  1  0
 13 28  1  0
 14 20  4  0
 14 23  4  0
 15 17  4  0
 15 21  4  0
 16 19  4  0
 16 23  4  0
 17 22  4  0
 18 26  4  0
 19 24  4  0
 20 24  4  0
 22 27  4  0
 28 29  4  0
M  END
$$$$

 Created by Python create_sdf_string function

 29 33  0  0  0  0  0  0  0  0999 V2000
   10.7215   -3.3326   17.6437 C   0  0  0  0  0  0  0  0  0  0  0  0
    9.9489   -3.4675   24.6487 N   0  0  0  0  0  0  0  0  0  0  0  0
   10.0172   -4.4740   17.4101 C   0  0  0  0  0  0  0  0  0  0  0  0
    6.9051   -7.9575   16.4222 C   0  0  0  0  0  0  0  0  0  0  0  0
    8.9969   -6.3552   17.9668 N   0  0  0  0  0  0  0  0  0  0  0  0
   10.6702   -3.9051   22.4070 C   0  0  0  0  0  0  0  0  0  0  0  0
   11.0625   -3.0028   18.8894 C   0  0  0  0  0  0  0  0  0  0  0  0
    5.6180   -7.9194   16.1754 O   0  0  0  0  0  0  0  0  0  0  0  0
    9.7259   -5.3080   18.4485 C   0  0  0  0  0  0  0  0  0  0  0  0
    9.4578   -5.0200   16.3036 N   0  0  0  0  0  0  0  0  0  0  0  0
    5.0287   -8.9365   16.8223 C   0  0  0  0  0  0  0  0  0  0  0  0
    8.7742   -6.1498   16.6764 C   0  0  0  0  0  0  0  0  0  0  0  0
   10.9418   -3.4032   21.2053 O   0  0  0  0  0  0  0  0  0  0  0  0
    1.4797   -8.6258   16.2950 C   0  0  0  0  0  0  0  0  0  0  0  0
    9.2861   -1.2743   25.3585 C   0  0  0  0  0  0  0  0  0  0  0  0
    1.8892  -10.3985   17.7511 N   0  0  0  0  0  0  0  0  0  0  0  0
    9.6210   -0.6952   24.0976 C   0  0  0  0  0  0  0  0  0  0  0  0
    7.0792   -9.0217   17.1429 C   0  0  0  0  0  0  0  0  0  0  0  0
    3.1713  -10.1816   17.6634 C   0  0  0  0  0  0  0  0  0  0  0  0
    2.7878   -8.3822   16.2137 C   0  0  0  0  0  0  0  0  0  0  0  0
    9.4601   -2.6590   25.6528 C   0  0  0  0  0  0  0  0  0  0  0  0
   10.1182   -1.5672   23.1165 C   0  0  0  0  0  0  0  0  0  0  0  0
    1.0552   -9.6360   17.0650 C   0  0  0  0  0  0  0  0  0  0  0  0
    3.6519   -9.1783   16.9039 C   0  0  0  0  0  0  0  0  0  0  0  0
    7.8675   -7.0096   15.9415 C   0  0  0  0  0  0  0  0  0  0  0  0
    5.9733   -9.6553   17.3832 N   0  0  0  0  0  0  0  0  0  0  0  0
   10.2411   -2.9363   23.4301 C   0  0  0  0  0  0  0  0  0  0  0  0
   10.7288   -3.8197   19.9525 C   0  0  0  0  0  0  0  0  0  0  0  0
   10.1189   -5.0054   19.6987 C   0  0  0  0  0  0  0  0  0  0  0  0
  1  3  4  0
  1  7  4  0
  2 21  4  0
  2 27  4  0
  3  9  4  0
  3 10  4  0
  4  8  4  0
  4 18  4  0
  4 25  1  0
  5  9  4  0
  5 12  4  0
  6 13  1  0
  6 27  1  0
  7 28  4  0
  8 11  4  0
  9 29  4  0
 10 12  4  0
 11 24  1  0
 11 26  4  0
 12 25  1  0
 13 28  1  0
 14 20  4  0
 14 23  4  0
 15 17  4  0
 15 21  4  0
 16 19  4  0
 16 23  4  0
 17 22  4  0
 18 26  4  0
 19 24  4  0
 20 24  4  0
 22 27  4  0
 28 29  4  0
M  END
$$$$

 Created by Python create_sdf_string function

 29 33  0  0  0  0  0  0  0  0999 V2000
   10.7215   -3.3326   17.6437 C   0  0  0  0  0  0  0  0  0  0  0  0
    9.9489   -3.4675   24.6487 N   0  0  0  0  0  0  0  0  0  0  0  0
   10.0172   -4.4740   17.4101 C   0  0  0  0  0  0  0  0  0  0  0  0
    6.9051   -7.9575   16.4222 C   0  0  0  0  0  0  0  0  0  0  0  0
    8.9969   -6.3552   17.9668 N   0  0  0  0  0  0  0  0  0  0  0  0
   10.6702   -3.9051   22.4070 C   0  0  0  0  0  0  0  0  0  0  0  0
   11.0625   -3.0028   18.8894 C   0  0  0  0  0  0  0  0  0  0  0  0
    5.6180   -7.9194   16.1754 O   0  0  0  0  0  0  0  0  0  0  0  0
    9.7259   -5.3080   18.4485 C   0  0  0  0  0  0  0  0  0  0  0  0
    9.4578   -5.0200   16.3036 N   0  0  0  0  0  0  0  0  0  0  0  0
    5.0287   -8.9365   16.8223 C   0  0  0  0  0  0  0  0  0  0  0  0
    8.7742   -6.1498   16.6764 C   0  0  0  0  0  0  0  0  0  0  0  0
   10.9418   -3.4032   21.2053 O   0  0  0  0  0  0  0  0  0  0  0  0
    1.4797   -8.6258   16.2950 C   0  0  0  0  0  0  0  0  0  0  0  0
    9.2861   -1.2743   25.3585 C   0  0  0  0  0  0  0  0  0  0  0  0
    1.8892  -10.3985   17.7511 N   0  0  0  0  0  0  0  0  0  0  0  0
    9.6210   -0.6952   24.0976 C   0  0  0  0  0  0  0  0  0  0  0  0
    7.0792   -9.0217   17.1429 C   0  0  0  0  0  0  0  0  0  0  0  0
    3.1713  -10.1816   17.6634 C   0  0  0  0  0  0  0  0  0  0  0  0
    2.7878   -8.3822   16.2137 C   0  0  0  0  0  0  0  0  0  0  0  0
    9.4601   -2.6590   25.6528 C   0  0  0  0  0  0  0  0  0  0  0  0
   10.1182   -1.5672   23.1165 C   0  0  0  0  0  0  0  0  0  0  0  0
    1.0552   -9.6360   17.0650 C   0  0  0  0  0  0  0  0  0  0  0  0
    3.6519   -9.1783   16.9039 C   0  0  0  0  0  0  0  0  0  0  0  0
    7.8675   -7.0096   15.9415 C   0  0  0  0  0  0  0  0  0  0  0  0
    5.9733   -9.6553   17.3832 N   0  0  0  0  0  0  0  0  0  0  0  0
   10.2411   -2.9363   23.4301 C   0  0  0  0  0  0  0  0  0  0  0  0
   10.7288   -3.8197   19.9525 C   0  0  0  0  0  0  0  0  0  0  0  0
   10.1189   -5.0054   19.6987 C   0  0  0  0  0  0  0  0  0  0  0  0
  1  3  4  0
  1  7  4  0
  2 21  4  0
  2 27  4  0
  3  9  4  0
  3 10  4  0
  4  8  4  0
  4 18  4  0
  4 25  1  0
  5  9  4  0
  5 12  4  0
  6 13  1  0
  6 27  1  0
  7 28  4  0
  8 11  4  0
  9 29  4  0
 10 12  4  0
 11 24  1  0
 11 26  4  0
 12 25  1  0
 13 28  1  0
 14 20  4  0
 14 23  4  0
 15 17  4  0
 15 21  4  0
 16 19  4  0
 16 23  4  0
 17 22  4  0
 18 26  4  0
 19 24  4  0
 20 24  4  0
 22 27  4  0
 28 29  4  0
M  END
$$$$

 Created by Python create_sdf_string function

 29 33  0  0  0  0  0  0  0  0999 V2000
   10.7215   -3.3326   17.6437 C   0  0  0  0  0  0  0  0  0  0  0  0
    9.9489   -3.4675   24.6487 N   0  0  0  0  0  0  0  0  0  0  0  0
   10.0172   -4.4740   17.4101 C   0  0  0  0  0  0  0  0  0  0  0  0
    6.9051   -7.9575   16.4222 C   0  0  0  0  0  0  0  0  0  0  0  0
    8.9969   -6.3552   17.9668 N   0  0  0  0  0  0  0  0  0  0  0  0
   10.6702   -3.9051   22.4070 C   0  0  0  0  0  0  0  0  0  0  0  0
   11.0625   -3.0028   18.8894 C   0  0  0  0  0  0  0  0  0  0  0  0
    5.6180   -7.9194   16.1754 O   0  0  0  0  0  0  0  0  0  0  0  0
    9.7259   -5.3080   18.4485 C   0  0  0  0  0  0  0  0  0  0  0  0
    9.4578   -5.0200   16.3036 N   0  0  0  0  0  0  0  0  0  0  0  0
    5.0287   -8.9365   16.8223 C   0  0  0  0  0  0  0  0  0  0  0  0
    8.7742   -6.1498   16.6764 C   0  0  0  0  0  0  0  0  0  0  0  0
   10.9418   -3.4032   21.2053 O   0  0  0  0  0  0  0  0  0  0  0  0
    1.4797   -8.6258   16.2950 C   0  0  0  0  0  0  0  0  0  0  0  0
    9.2861   -1.2743   25.3585 C   0  0  0  0  0  0  0  0  0  0  0  0
    1.8892  -10.3985   17.7511 N   0  0  0  0  0  0  0  0  0  0  0  0
    9.6210   -0.6952   24.0976 C   0  0  0  0  0  0  0  0  0  0  0  0
    7.0792   -9.0217   17.1429 C   0  0  0  0  0  0  0  0  0  0  0  0
    3.1713  -10.1816   17.6634 C   0  0  0  0  0  0  0  0  0  0  0  0
    2.7878   -8.3822   16.2137 C   0  0  0  0  0  0  0  0  0  0  0  0
    9.4601   -2.6590   25.6528 C   0  0  0  0  0  0  0  0  0  0  0  0
   10.1182   -1.5672   23.1165 C   0  0  0  0  0  0  0  0  0  0  0  0
    1.0552   -9.6360   17.0650 C   0  0  0  0  0  0  0  0  0  0  0  0
    3.6519   -9.1783   16.9039 C   0  0  0  0  0  0  0  0  0  0  0  0
    7.8675   -7.0096   15.9415 C   0  0  0  0  0  0  0  0  0  0  0  0
    5.9733   -9.6553   17.3832 N   0  0  0  0  0  0  0  0  0  0  0  0
   10.2411   -2.9363   23.4301 C   0  0  0  0  0  0  0  0  0  0  0  0
   10.7288   -3.8197   19.9525 C   0  0  0  0  0  0  0  0  0  0  0  0
   10.1189   -5.0054   19.6987 C   0  0  0  0  0  0  0  0  0  0  0  0
  1  3  4  0
  1  7  4  0
  2 21  4  0
  2 27  4  0
  3  9  4  0
  3 10  4  0
  4  8  4  0
  4 18  4  0
  4 25  1  0
  5  9  4  0
  5 12  4  0
  6 13  1  0
  6 27  1  0
  7 28  4  0
  8 11  4  0
  9 29  4  0
 10 12  4  0
 11 24  1  0
 11 26  4  0
 12 25  1  0
 13 28  1  0
 14 20  4  0
 14 23  4  0
 15 17  4  0
 15 21  4  0
 16 19  4  0
 16 23  4  0
 17 22  4  0
 18 26  4  0
 19 24  4  0
 20 24  4  0
 22 27  4  0
 28 29  4  0
M  END
$$$$

 Created by Python create_sdf_string function

 29 33  0  0  0  0  0  0  0  0999 V2000
   10.7215   -3.3326   17.6437 C   0  0  0  0  0  0  0  0  0  0  0  0
    9.9489   -3.4675   24.6487 N   0  0  0  0  0  0  0  0  0  0  0  0
   10.0172   -4.4740   17.4101 C   0  0  0  0  0  0  0  0  0  0  0  0
    6.9051   -7.9575   16.4222 C   0  0  0  0  0  0  0  0  0  0  0  0
    8.9969   -6.3552   17.9668 N   0  0  0  0  0  0  0  0  0  0  0  0
   10.6702   -3.9051   22.4070 C   0  0  0  0  0  0  0  0  0  0  0  0
   11.0625   -3.0028   18.8894 C   0  0  0  0  0  0  0  0  0  0  0  0
    5.6180   -7.9194   16.1754 O   0  0  0  0  0  0  0  0  0  0  0  0
    9.7259   -5.3080   18.4485 C   0  0  0  0  0  0  0  0  0  0  0  0
    9.4578   -5.0200   16.3036 N   0  0  0  0  0  0  0  0  0  0  0  0
    5.0287   -8.9365   16.8223 C   0  0  0  0  0  0  0  0  0  0  0  0
    8.7742   -6.1498   16.6764 C   0  0  0  0  0  0  0  0  0  0  0  0
   10.9418   -3.4032   21.2053 O   0  0  0  0  0  0  0  0  0  0  0  0
    1.4797   -8.6258   16.2950 C   0  0  0  0  0  0  0  0  0  0  0  0
    9.2861   -1.2743   25.3585 C   0  0  0  0  0  0  0  0  0  0  0  0
    1.8892  -10.3985   17.7511 N   0  0  0  0  0  0  0  0  0  0  0  0
    9.6210   -0.6952   24.0976 C   0  0  0  0  0  0  0  0  0  0  0  0
    7.0792   -9.0217   17.1429 C   0  0  0  0  0  0  0  0  0  0  0  0
    3.1713  -10.1816   17.6634 C   0  0  0  0  0  0  0  0  0  0  0  0
    2.7878   -8.3822   16.2137 C   0  0  0  0  0  0  0  0  0  0  0  0
    9.4601   -2.6590   25.6528 C   0  0  0  0  0  0  0  0  0  0  0  0
   10.1182   -1.5672   23.1165 C   0  0  0  0  0  0  0  0  0  0  0  0
    1.0552   -9.6360   17.0650 C   0  0  0  0  0  0  0  0  0  0  0  0
    3.6519   -9.1783   16.9039 C   0  0  0  0  0  0  0  0  0  0  0  0
    7.8675   -7.0096   15.9415 C   0  0  0  0  0  0  0  0  0  0  0  0
    5.9733   -9.6553   17.3832 N   0  0  0  0  0  0  0  0  0  0  0  0
   10.2411   -2.9363   23.4301 C   0  0  0  0  0  0  0  0  0  0  0  0
   10.7288   -3.8197   19.9525 C   0  0  0  0  0  0  0  0  0  0  0  0
   10.1189   -5.0054   19.6987 C   0  0  0  0  0  0  0  0  0  0  0  0
  1  3  4  0
  1  7  4  0
  2 21  4  0
  2 27  4  0
  3  9  4  0
  3 10  4  0
  4  8  4  0
  4 18  4  0
  4 25  1  0
  5  9  4  0
  5 12  4  0
  6 13  1  0
  6 27  1  0
  7 28  4  0
  8 11  4  0
  9 29  4  0
 10 12  4  0
 11 24  1  0
 11 26  4  0
 12 25  1  0
 13 28  1  0
 14 20  4  0
 14 23  4  0
 15 17  4  0
 15 21  4  0
 16 19  4  0
 16 23  4  0
 17 22  4  0
 18 26  4  0
 19 24  4  0
 20 24  4  0
 22 27  4  0
 28 29  4  0
M  END
$$$$

 Created by Python create_sdf_string function

 29 33  0  0  0  0  0  0  0  0999 V2000
   10.7215   -3.3326   17.6437 C   0  0  0  0  0  0  0  0  0  0  0  0
    9.9489   -3.4675   24.6487 N   0  0  0  0  0  0  0  0  0  0  0  0
   10.0172   -4.4740   17.4101 C   0  0  0  0  0  0  0  0  0  0  0  0
    6.9051   -7.9575   16.4222 C   0  0  0  0  0  0  0  0  0  0  0  0
    8.9969   -6.3552   17.9668 N   0  0  0  0  0  0  0  0  0  0  0  0
   10.6702   -3.9051   22.4070 C   0  0  0  0  0  0  0  0  0  0  0  0
   11.0625   -3.0028   18.8894 C   0  0  0  0  0  0  0  0  0  0  0  0
    5.6180   -7.9194   16.1754 O   0  0  0  0  0  0  0  0  0  0  0  0
    9.7259   -5.3080   18.4485 C   0  0  0  0  0  0  0  0  0  0  0  0
    9.4578   -5.0200   16.3036 N   0  0  0  0  0  0  0  0  0  0  0  0
    5.0287   -8.9365   16.8223 C   0  0  0  0  0  0  0  0  0  0  0  0
    8.7742   -6.1498   16.6764 C   0  0  0  0  0  0  0  0  0  0  0  0
   10.9418   -3.4032   21.2053 O   0  0  0  0  0  0  0  0  0  0  0  0
    1.4797   -8.6258   16.2950 C   0  0  0  0  0  0  0  0  0  0  0  0
    9.2861   -1.2743   25.3585 C   0  0  0  0  0  0  0  0  0  0  0  0
    1.8892  -10.3985   17.7511 N   0  0  0  0  0  0  0  0  0  0  0  0
    9.6210   -0.6952   24.0976 C   0  0  0  0  0  0  0  0  0  0  0  0
    7.0792   -9.0217   17.1429 C   0  0  0  0  0  0  0  0  0  0  0  0
    3.1713  -10.1816   17.6634 C   0  0  0  0  0  0  0  0  0  0  0  0
    2.7878   -8.3822   16.2137 C   0  0  0  0  0  0  0  0  0  0  0  0
    9.4601   -2.6590   25.6528 C   0  0  0  0  0  0  0  0  0  0  0  0
   10.1182   -1.5672   23.1165 C   0  0  0  0  0  0  0  0  0  0  0  0
    1.0552   -9.6360   17.0650 C   0  0  0  0  0  0  0  0  0  0  0  0
    3.6519   -9.1783   16.9039 C   0  0  0  0  0  0  0  0  0  0  0  0
    7.8675   -7.0096   15.9415 C   0  0  0  0  0  0  0  0  0  0  0  0
    5.9733   -9.6553   17.3832 N   0  0  0  0  0  0  0  0  0  0  0  0
   10.2411   -2.9363   23.4301 C   0  0  0  0  0  0  0  0  0  0  0  0
   10.7288   -3.8197   19.9525 C   0  0  0  0  0  0  0  0  0  0  0  0
   10.1189   -5.0054   19.6987 C   0  0  0  0  0  0  0  0  0  0  0  0
  1  3  4  0
  1  7  4  0
  2 21  4  0
  2 27  4  0
  3  9  4  0
  3 10  4  0
  4  8  4  0
  4 18  4  0
  4 25  1  0
  5  9  4  0
  5 12  4  0
  6 13  1  0
  6 27  1  0
  7 28  4  0
  8 11  4  0
  9 29  4  0
 10 12  4  0
 11 24  1  0
 11 26  4  0
 12 25  1  0
 13 28  1  0
 14 20  4  0
 14 23  4  0
 15 17  4  0
 15 21  4  0
 16 19  4  0
 16 23  4  0
 17 22  4  0
 18 26  4  0
 19 24  4  0
 20 24  4  0
 22 27  4  0
 28 29  4  0
M  END
$$$$

 Created by Python create_sdf_string function

 29 33  0  0  0  0  0  0  0  0999 V2000
   10.7215   -3.3326   17.6437 C   0  0  0  0  0  0  0  0  0  0  0  0
    9.9489   -3.4675   24.6487 N   0  0  0  0  0  0  0  0  0  0  0  0
   10.0172   -4.4740   17.4101 C   0  0  0  0  0  0  0  0  0  0  0  0
    6.9051   -7.9575   16.4222 C   0  0  0  0  0  0  0  0  0  0  0  0
    8.9969   -6.3552   17.9668 N   0  0  0  0  0  0  0  0  0  0  0  0
   10.6702   -3.9051   22.4070 C   0  0  0  0  0  0  0  0  0  0  0  0
   11.0625   -3.0028   18.8894 C   0  0  0  0  0  0  0  0  0  0  0  0
    5.6180   -7.9194   16.1754 O   0  0  0  0  0  0  0  0  0  0  0  0
    9.7259   -5.3080   18.4485 C   0  0  0  0  0  0  0  0  0  0  0  0
    9.4578   -5.0200   16.3036 N   0  0  0  0  0  0  0  0  0  0  0  0
    5.0287   -8.9365   16.8223 C   0  0  0  0  0  0  0  0  0  0  0  0
    8.7742   -6.1498   16.6764 C   0  0  0  0  0  0  0  0  0  0  0  0
   10.9418   -3.4032   21.2053 O   0  0  0  0  0  0  0  0  0  0  0  0
    1.4797   -8.6258   16.2950 C   0  0  0  0  0  0  0  0  0  0  0  0
    9.2861   -1.2743   25.3585 C   0  0  0  0  0  0  0  0  0  0  0  0
    1.8892  -10.3985   17.7511 N   0  0  0  0  0  0  0  0  0  0  0  0
    9.6210   -0.6952   24.0976 C   0  0  0  0  0  0  0  0  0  0  0  0
    7.0792   -9.0217   17.1429 C   0  0  0  0  0  0  0  0  0  0  0  0
    3.1713  -10.1816   17.6634 C   0  0  0  0  0  0  0  0  0  0  0  0
    2.7878   -8.3822   16.2137 C   0  0  0  0  0  0  0  0  0  0  0  0
    9.4601   -2.6590   25.6528 C   0  0  0  0  0  0  0  0  0  0  0  0
   10.1182   -1.5672   23.1165 C   0  0  0  0  0  0  0  0  0  0  0  0
    1.0552   -9.6360   17.0650 C   0  0  0  0  0  0  0  0  0  0  0  0
    3.6519   -9.1783   16.9039 C   0  0  0  0  0  0  0  0  0  0  0  0
    7.8675   -7.0096   15.9415 C   0  0  0  0  0  0  0  0  0  0  0  0
    5.9733   -9.6553   17.3832 N   0  0  0  0  0  0  0  0  0  0  0  0
   10.2411   -2.9363   23.4301 C   0  0  0  0  0  0  0  0  0  0  0  0
   10.7288   -3.8197   19.9525 C   0  0  0  0  0  0  0  0  0  0  0  0
   10.1189   -5.0054   19.6987 C   0  0  0  0  0  0  0  0  0  0  0  0
  1  3  4  0
  1  7  4  0
  2 21  4  0
  2 27  4  0
  3  9  4  0
  3 10  4  0
  4  8  4  0
  4 18  4  0
  4 25  1  0
  5  9  4  0
  5 12  4  0
  6 13  1  0
  6 27  1  0
  7 28  4  0
  8 11  4  0
  9 29  4  0
 10 12  4  0
 11 24  1  0
 11 26  4  0
 12 25  1  0
 13 28  1  0
 14 20  4  0
 14 23  4  0
 15 17  4  0
 15 21  4  0
 16 19  4  0
 16 23  4  0
 17 22  4  0
 18 26  4  0
 19 24  4  0
 20 24  4  0
 22 27  4  0
 28 29  4  0
M  END
$$$$

 Created by Python create_sdf_string function

 29 33  0  0  0  0  0  0  0  0999 V2000
   10.7215   -3.3326   17.6437 C   0  0  0  0  0  0  0  0  0  0  0  0
    9.9489   -3.4675   24.6487 N   0  0  0  0  0  0  0  0  0  0  0  0
   10.0172   -4.4740   17.4101 C   0  0  0  0  0  0  0  0  0  0  0  0
    6.9051   -7.9575   16.4222 C   0  0  0  0  0  0  0  0  0  0  0  0
    8.9969   -6.3552   17.9668 N   0  0  0  0  0  0  0  0  0  0  0  0
   10.6702   -3.9051   22.4070 C   0  0  0  0  0  0  0  0  0  0  0  0
   11.0625   -3.0028   18.8894 C   0  0  0  0  0  0  0  0  0  0  0  0
    5.6180   -7.9194   16.1754 O   0  0  0  0  0  0  0  0  0  0  0  0
    9.7259   -5.3080   18.4485 C   0  0  0  0  0  0  0  0  0  0  0  0
    9.4578   -5.0200   16.3036 N   0  0  0  0  0  0  0  0  0  0  0  0
    5.0287   -8.9365   16.8223 C   0  0  0  0  0  0  0  0  0  0  0  0
    8.7742   -6.1498   16.6764 C   0  0  0  0  0  0  0  0  0  0  0  0
   10.9418   -3.4032   21.2053 O   0  0  0  0  0  0  0  0  0  0  0  0
    1.4797   -8.6258   16.2950 C   0  0  0  0  0  0  0  0  0  0  0  0
    9.2861   -1.2743   25.3585 C   0  0  0  0  0  0  0  0  0  0  0  0
    1.8892  -10.3985   17.7511 N   0  0  0  0  0  0  0  0  0  0  0  0
    9.6210   -0.6952   24.0976 C   0  0  0  0  0  0  0  0  0  0  0  0
    7.0792   -9.0217   17.1429 C   0  0  0  0  0  0  0  0  0  0  0  0
    3.1713  -10.1816   17.6634 C   0  0  0  0  0  0  0  0  0  0  0  0
    2.7878   -8.3822   16.2137 C   0  0  0  0  0  0  0  0  0  0  0  0
    9.4601   -2.6590   25.6528 C   0  0  0  0  0  0  0  0  0  0  0  0
   10.1182   -1.5672   23.1165 C   0  0  0  0  0  0  0  0  0  0  0  0
    1.0552   -9.6360   17.0650 C   0  0  0  0  0  0  0  0  0  0  0  0
    3.6519   -9.1783   16.9039 C   0  0  0  0  0  0  0  0  0  0  0  0
    7.8675   -7.0096   15.9415 C   0  0  0  0  0  0  0  0  0  0  0  0
    5.9733   -9.6553   17.3832 N   0  0  0  0  0  0  0  0  0  0  0  0
   10.2411   -2.9363   23.4301 C   0  0  0  0  0  0  0  0  0  0  0  0
   10.7288   -3.8197   19.9525 C   0  0  0  0  0  0  0  0  0  0  0  0
   10.1189   -5.0054   19.6987 C   0  0  0  0  0  0  0  0  0  0  0  0
  1  3  4  0
  1  7  4  0
  2 21  4  0
  2 27  4  0
  3  9  4  0
  3 10  4  0
  4  8  4  0
  4 18  4  0
  4 25  1  0
  5  9  4  0
  5 12  4  0
  6 13  1  0
  6 27  1  0
  7 28  4  0
  8 11  4  0
  9 29  4  0
 10 12  4  0
 11 24  1  0
 11 26  4  0
 12 25  1  0
 13 28  1  0
 14 20  4  0
 14 23  4  0
 15 17  4  0
 15 21  4  0
 16 19  4  0
 16 23  4  0
 17 22  4  0
 18 26  4  0
 19 24  4  0
 20 24  4  0
 22 27  4  0
 28 29  4  0
M  END
$$$$

 Created by Python create_sdf_string function

 29 33  0  0  0  0  0  0  0  0999 V2000
   10.7215   -3.3326   17.6437 C   0  0  0  0  0  0  0  0  0  0  0  0
    9.9489   -3.4675   24.6487 N   0  0  0  0  0  0  0  0  0  0  0  0
   10.0172   -4.4740   17.4101 C   0  0  0  0  0  0  0  0  0  0  0  0
    6.9051   -7.9575   16.4222 C   0  0  0  0  0  0  0  0  0  0  0  0
    8.9969   -6.3552   17.9668 N   0  0  0  0  0  0  0  0  0  0  0  0
   10.6702   -3.9051   22.4070 C   0  0  0  0  0  0  0  0  0  0  0  0
   11.0625   -3.0028   18.8894 C   0  0  0  0  0  0  0  0  0  0  0  0
    5.6180   -7.9194   16.1754 O   0  0  0  0  0  0  0  0  0  0  0  0
    9.7259   -5.3080   18.4485 C   0  0  0  0  0  0  0  0  0  0  0  0
    9.4578   -5.0200   16.3036 N   0  0  0  0  0  0  0  0  0  0  0  0
    5.0287   -8.9365   16.8223 C   0  0  0  0  0  0  0  0  0  0  0  0
    8.7742   -6.1498   16.6764 C   0  0  0  0  0  0  0  0  0  0  0  0
   10.9418   -3.4032   21.2053 O   0  0  0  0  0  0  0  0  0  0  0  0
    1.4797   -8.6258   16.2950 C   0  0  0  0  0  0  0  0  0  0  0  0
    9.2861   -1.2743   25.3585 C   0  0  0  0  0  0  0  0  0  0  0  0
    1.8892  -10.3985   17.7511 N   0  0  0  0  0  0  0  0  0  0  0  0
    9.6210   -0.6952   24.0976 C   0  0  0  0  0  0  0  0  0  0  0  0
    7.0792   -9.0217   17.1429 C   0  0  0  0  0  0  0  0  0  0  0  0
    3.1713  -10.1816   17.6634 C   0  0  0  0  0  0  0  0  0  0  0  0
    2.7878   -8.3822   16.2137 C   0  0  0  0  0  0  0  0  0  0  0  0
    9.4601   -2.6590   25.6528 C   0  0  0  0  0  0  0  0  0  0  0  0
   10.1182   -1.5672   23.1165 C   0  0  0  0  0  0  0  0  0  0  0  0
    1.0552   -9.6360   17.0650 C   0  0  0  0  0  0  0  0  0  0  0  0
    3.6519   -9.1783   16.9039 C   0  0  0  0  0  0  0  0  0  0  0  0
    7.8675   -7.0096   15.9415 C   0  0  0  0  0  0  0  0  0  0  0  0
    5.9733   -9.6553   17.3832 N   0  0  0  0  0  0  0  0  0  0  0  0
   10.2411   -2.9363   23.4301 C   0  0  0  0  0  0  0  0  0  0  0  0
   10.7288   -3.8197   19.9525 C   0  0  0  0  0  0  0  0  0  0  0  0
   10.1189   -5.0054   19.6987 C   0  0  0  0  0  0  0  0  0  0  0  0
  1  3  4  0
  1  7  4  0
  2 21  4  0
  2 27  4  0
  3  9  4  0
  3 10  4  0
  4  8  4  0
  4 18  4  0
  4 25  1  0
  5  9  4  0
  5 12  4  0
  6 13  1  0
  6 27  1  0
  7 28  4  0
  8 11  4  0
  9 29  4  0
 10 12  4  0
 11 24  1  0
 11 26  4  0
 12 25  1  0
 13 28  1  0
 14 20  4  0
 14 23  4  0
 15 17  4  0
 15 21  4  0
 16 19  4  0
 16 23  4  0
 17 22  4  0
 18 26  4  0
 19 24  4  0
 20 24  4  0
 22 27  4  0
 28 29  4  0
M  END
$$$$

 Created by Python create_sdf_string function

 29 33  0  0  0  0  0  0  0  0999 V2000
   10.7215   -3.3326   17.6437 C   0  0  0  0  0  0  0  0  0  0  0  0
    9.9489   -3.4675   24.6487 N   0  0  0  0  0  0  0  0  0  0  0  0
   10.0172   -4.4740   17.4101 C   0  0  0  0  0  0  0  0  0  0  0  0
    6.9051   -7.9575   16.4222 C   0  0  0  0  0  0  0  0  0  0  0  0
    8.9969   -6.3552   17.9668 N   0  0  0  0  0  0  0  0  0  0  0  0
   10.6702   -3.9051   22.4070 C   0  0  0  0  0  0  0  0  0  0  0  0
   11.0625   -3.0028   18.8894 C   0  0  0  0  0  0  0  0  0  0  0  0
    5.6180   -7.9194   16.1754 O   0  0  0  0  0  0  0  0  0  0  0  0
    9.7259   -5.3080   18.4485 C   0  0  0  0  0  0  0  0  0  0  0  0
    9.4578   -5.0200   16.3036 N   0  0  0  0  0  0  0  0  0  0  0  0
    5.0287   -8.9365   16.8223 C   0  0  0  0  0  0  0  0  0  0  0  0
    8.7742   -6.1498   16.6764 C   0  0  0  0  0  0  0  0  0  0  0  0
   10.9418   -3.4032   21.2053 O   0  0  0  0  0  0  0  0  0  0  0  0
    1.4797   -8.6258   16.2950 C   0  0  0  0  0  0  0  0  0  0  0  0
    9.2861   -1.2743   25.3585 C   0  0  0  0  0  0  0  0  0  0  0  0
    1.8892  -10.3985   17.7511 N   0  0  0  0  0  0  0  0  0  0  0  0
    9.6210   -0.6952   24.0976 C   0  0  0  0  0  0  0  0  0  0  0  0
    7.0792   -9.0217   17.1429 C   0  0  0  0  0  0  0  0  0  0  0  0
    3.1713  -10.1816   17.6634 C   0  0  0  0  0  0  0  0  0  0  0  0
    2.7878   -8.3822   16.2137 C   0  0  0  0  0  0  0  0  0  0  0  0
    9.4601   -2.6590   25.6528 C   0  0  0  0  0  0  0  0  0  0  0  0
   10.1182   -1.5672   23.1165 C   0  0  0  0  0  0  0  0  0  0  0  0
    1.0552   -9.6360   17.0650 C   0  0  0  0  0  0  0  0  0  0  0  0
    3.6519   -9.1783   16.9039 C   0  0  0  0  0  0  0  0  0  0  0  0
    7.8675   -7.0096   15.9415 C   0  0  0  0  0  0  0  0  0  0  0  0
    5.9733   -9.6553   17.3832 N   0  0  0  0  0  0  0  0  0  0  0  0
   10.2411   -2.9363   23.4301 C   0  0  0  0  0  0  0  0  0  0  0  0
   10.7288   -3.8197   19.9525 C   0  0  0  0  0  0  0  0  0  0  0  0
   10.1189   -5.0054   19.6987 C   0  0  0  0  0  0  0  0  0  0  0  0
  1  3  4  0
  1  7  4  0
  2 21  4  0
  2 27  4  0
  3  9  4  0
  3 10  4  0
  4  8  4  0
  4 18  4  0
  4 25  1  0
  5  9  4  0
  5 12  4  0
  6 13  1  0
  6 27  1  0
  7 28  4  0
  8 11  4  0
  9 29  4  0
 10 12  4  0
 11 24  1  0
 11 26  4  0
 12 25  1  0
 13 28  1  0
 14 20  4  0
 14 23  4  0
 15 17  4  0
 15 21  4  0
 16 19  4  0
 16 23  4  0
 17 22  4  0
 18 26  4  0
 19 24  4  0
 20 24  4  0
 22 27  4  0
 28 29  4  0
M  END
$$$$

 Created by Python create_sdf_string function

 29 33  0  0  0  0  0  0  0  0999 V2000
   10.7215   -3.3326   17.6437 C   0  0  0  0  0  0  0  0  0  0  0  0
    9.9489   -3.4675   24.6487 N   0  0  0  0  0  0  0  0  0  0  0  0
   10.0172   -4.4740   17.4101 C   0  0  0  0  0  0  0  0  0  0  0  0
    6.9051   -7.9575   16.4222 C   0  0  0  0  0  0  0  0  0  0  0  0
    8.9969   -6.3552   17.9668 N   0  0  0  0  0  0  0  0  0  0  0  0
   10.6702   -3.9051   22.4070 C   0  0  0  0  0  0  0  0  0  0  0  0
   11.0625   -3.0028   18.8894 C   0  0  0  0  0  0  0  0  0  0  0  0
    5.6180   -7.9194   16.1754 O   0  0  0  0  0  0  0  0  0  0  0  0
    9.7259   -5.3080   18.4485 C   0  0  0  0  0  0  0  0  0  0  0  0
    9.4578   -5.0200   16.3036 N   0  0  0  0  0  0  0  0  0  0  0  0
    5.0287   -8.9365   16.8223 C   0  0  0  0  0  0  0  0  0  0  0  0
    8.7742   -6.1498   16.6764 C   0  0  0  0  0  0  0  0  0  0  0  0
   10.9418   -3.4032   21.2053 O   0  0  0  0  0  0  0  0  0  0  0  0
    1.4797   -8.6258   16.2950 C   0  0  0  0  0  0  0  0  0  0  0  0
    9.2861   -1.2743   25.3585 C   0  0  0  0  0  0  0  0  0  0  0  0
    1.8892  -10.3985   17.7511 N   0  0  0  0  0  0  0  0  0  0  0  0
    9.6210   -0.6952   24.0976 C   0  0  0  0  0  0  0  0  0  0  0  0
    7.0792   -9.0217   17.1429 C   0  0  0  0  0  0  0  0  0  0  0  0
    3.1713  -10.1816   17.6634 C   0  0  0  0  0  0  0  0  0  0  0  0
    2.7878   -8.3822   16.2137 C   0  0  0  0  0  0  0  0  0  0  0  0
    9.4601   -2.6590   25.6528 C   0  0  0  0  0  0  0  0  0  0  0  0
   10.1182   -1.5672   23.1165 C   0  0  0  0  0  0  0  0  0  0  0  0
    1.0552   -9.6360   17.0650 C   0  0  0  0  0  0  0  0  0  0  0  0
    3.6519   -9.1783   16.9039 C   0  0  0  0  0  0  0  0  0  0  0  0
    7.8675   -7.0096   15.9415 C   0  0  0  0  0  0  0  0  0  0  0  0
    5.9733   -9.6553   17.3832 N   0  0  0  0  0  0  0  0  0  0  0  0
   10.2411   -2.9363   23.4301 C   0  0  0  0  0  0  0  0  0  0  0  0
   10.7288   -3.8197   19.9525 C   0  0  0  0  0  0  0  0  0  0  0  0
   10.1189   -5.0054   19.6987 C   0  0  0  0  0  0  0  0  0  0  0  0
  1  3  4  0
  1  7  4  0
  2 21  4  0
  2 27  4  0
  3  9  4  0
  3 10  4  0
  4  8  4  0
  4 18  4  0
  4 25  1  0
  5  9  4  0
  5 12  4  0
  6 13  1  0
  6 27  1  0
  7 28  4  0
  8 11  4  0
  9 29  4  0
 10 12  4  0
 11 24  1  0
 11 26  4  0
 12 25  1  0
 13 28  1  0
 14 20  4  0
 14 23  4  0
 15 17  4  0
 15 21  4  0
 16 19  4  0
 16 23  4  0
 17 22  4  0
 18 26  4  0
 19 24  4  0
 20 24  4  0
 22 27  4  0
 28 29  4  0
M  END
$$$$

 Created by Python create_sdf_string function

 29 33  0  0  0  0  0  0  0  0999 V2000
   10.7215   -3.3326   17.6437 C   0  0  0  0  0  0  0  0  0  0  0  0
    9.9489   -3.4675   24.6487 N   0  0  0  0  0  0  0  0  0  0  0  0
   10.0172   -4.4740   17.4101 C   0  0  0  0  0  0  0  0  0  0  0  0
    6.9051   -7.9575   16.4222 C   0  0  0  0  0  0  0  0  0  0  0  0
    8.9969   -6.3552   17.9668 N   0  0  0  0  0  0  0  0  0  0  0  0
   10.6702   -3.9051   22.4070 C   0  0  0  0  0  0  0  0  0  0  0  0
   11.0625   -3.0028   18.8894 C   0  0  0  0  0  0  0  0  0  0  0  0
    5.6180   -7.9194   16.1754 O   0  0  0  0  0  0  0  0  0  0  0  0
    9.7259   -5.3080   18.4485 C   0  0  0  0  0  0  0  0  0  0  0  0
    9.4578   -5.0200   16.3036 N   0  0  0  0  0  0  0  0  0  0  0  0
    5.0287   -8.9365   16.8223 C   0  0  0  0  0  0  0  0  0  0  0  0
    8.7742   -6.1498   16.6764 C   0  0  0  0  0  0  0  0  0  0  0  0
   10.9418   -3.4032   21.2053 O   0  0  0  0  0  0  0  0  0  0  0  0
    1.4797   -8.6258   16.2950 C   0  0  0  0  0  0  0  0  0  0  0  0
    9.2861   -1.2743   25.3585 C   0  0  0  0  0  0  0  0  0  0  0  0
    1.8892  -10.3985   17.7511 N   0  0  0  0  0  0  0  0  0  0  0  0
    9.6210   -0.6952   24.0976 C   0  0  0  0  0  0  0  0  0  0  0  0
    7.0792   -9.0217   17.1429 C   0  0  0  0  0  0  0  0  0  0  0  0
    3.1713  -10.1816   17.6634 C   0  0  0  0  0  0  0  0  0  0  0  0
    2.7878   -8.3822   16.2137 C   0  0  0  0  0  0  0  0  0  0  0  0
    9.4601   -2.6590   25.6528 C   0  0  0  0  0  0  0  0  0  0  0  0
   10.1182   -1.5672   23.1165 C   0  0  0  0  0  0  0  0  0  0  0  0
    1.0552   -9.6360   17.0650 C   0  0  0  0  0  0  0  0  0  0  0  0
    3.6519   -9.1783   16.9039 C   0  0  0  0  0  0  0  0  0  0  0  0
    7.8675   -7.0096   15.9415 C   0  0  0  0  0  0  0  0  0  0  0  0
    5.9733   -9.6553   17.3832 N   0  0  0  0  0  0  0  0  0  0  0  0
   10.2411   -2.9363   23.4301 C   0  0  0  0  0  0  0  0  0  0  0  0
   10.7288   -3.8197   19.9525 C   0  0  0  0  0  0  0  0  0  0  0  0
   10.1189   -5.0054   19.6987 C   0  0  0  0  0  0  0  0  0  0  0  0
  1  3  4  0
  1  7  4  0
  2 21  4  0
  2 27  4  0
  3  9  4  0
  3 10  4  0
  4  8  4  0
  4 18  4  0
  4 25  1  0
  5  9  4  0
  5 12  4  0
  6 13  1  0
  6 27  1  0
  7 28  4  0
  8 11  4  0
  9 29  4  0
 10 12  4  0
 11 24  1  0
 11 26  4  0
 12 25  1  0
 13 28  1  0
 14 20  4  0
 14 23  4  0
 15 17  4  0
 15 21  4  0
 16 19  4  0
 16 23  4  0
 17 22  4  0
 18 26  4  0
 19 24  4  0
 20 24  4  0
 22 27  4  0
 28 29  4  0
M  END
$$$$

 Created by Python create_sdf_string function

 29 33  0  0  0  0  0  0  0  0999 V2000
   10.7215   -3.3326   17.6437 C   0  0  0  0  0  0  0  0  0  0  0  0
    9.9489   -3.4675   24.6487 N   0  0  0  0  0  0  0  0  0  0  0  0
   10.0172   -4.4740   17.4101 C   0  0  0  0  0  0  0  0  0  0  0  0
    6.9051   -7.9575   16.4222 C   0  0  0  0  0  0  0  0  0  0  0  0
    8.9969   -6.3552   17.9668 N   0  0  0  0  0  0  0  0  0  0  0  0
   10.6702   -3.9051   22.4070 C   0  0  0  0  0  0  0  0  0  0  0  0
   11.0625   -3.0028   18.8894 C   0  0  0  0  0  0  0  0  0  0  0  0
    5.6180   -7.9194   16.1754 O   0  0  0  0  0  0  0  0  0  0  0  0
    9.7259   -5.3080   18.4485 C   0  0  0  0  0  0  0  0  0  0  0  0
    9.4578   -5.0200   16.3036 N   0  0  0  0  0  0  0  0  0  0  0  0
    5.0287   -8.9365   16.8223 C   0  0  0  0  0  0  0  0  0  0  0  0
    8.7742   -6.1498   16.6764 C   0  0  0  0  0  0  0  0  0  0  0  0
   10.9418   -3.4032   21.2053 O   0  0  0  0  0  0  0  0  0  0  0  0
    1.4797   -8.6258   16.2950 C   0  0  0  0  0  0  0  0  0  0  0  0
    9.2861   -1.2743   25.3585 C   0  0  0  0  0  0  0  0  0  0  0  0
    1.8892  -10.3985   17.7511 N   0  0  0  0  0  0  0  0  0  0  0  0
    9.6210   -0.6952   24.0976 C   0  0  0  0  0  0  0  0  0  0  0  0
    7.0792   -9.0217   17.1429 C   0  0  0  0  0  0  0  0  0  0  0  0
    3.1713  -10.1816   17.6634 C   0  0  0  0  0  0  0  0  0  0  0  0
    2.7878   -8.3822   16.2137 C   0  0  0  0  0  0  0  0  0  0  0  0
    9.4601   -2.6590   25.6528 C   0  0  0  0  0  0  0  0  0  0  0  0
   10.1182   -1.5672   23.1165 C   0  0  0  0  0  0  0  0  0  0  0  0
    1.0552   -9.6360   17.0650 C   0  0  0  0  0  0  0  0  0  0  0  0
    3.6519   -9.1783   16.9039 C   0  0  0  0  0  0  0  0  0  0  0  0
    7.8675   -7.0096   15.9415 C   0  0  0  0  0  0  0  0  0  0  0  0
    5.9733   -9.6553   17.3832 N   0  0  0  0  0  0  0  0  0  0  0  0
   10.2411   -2.9363   23.4301 C   0  0  0  0  0  0  0  0  0  0  0  0
   10.7288   -3.8197   19.9525 C   0  0  0  0  0  0  0  0  0  0  0  0
   10.1189   -5.0054   19.6987 C   0  0  0  0  0  0  0  0  0  0  0  0
  1  3  4  0
  1  7  4  0
  2 21  4  0
  2 27  4  0
  3  9  4  0
  3 10  4  0
  4  8  4  0
  4 18  4  0
  4 25  1  0
  5  9  4  0
  5 12  4  0
  6 13  1  0
  6 27  1  0
  7 28  4  0
  8 11  4  0
  9 29  4  0
 10 12  4  0
 11 24  1  0
 11 26  4  0
 12 25  1  0
 13 28  1  0
 14 20  4  0
 14 23  4  0
 15 17  4  0
 15 21  4  0
 16 19  4  0
 16 23  4  0
 17 22  4  0
 18 26  4  0
 19 24  4  0
 20 24  4  0
 22 27  4  0
 28 29  4  0
M  END
$$$$

 Created by Python create_sdf_string function

 29 33  0  0  0  0  0  0  0  0999 V2000
   10.7215   -3.3326   17.6437 C   0  0  0  0  0  0  0  0  0  0  0  0
    9.9489   -3.4675   24.6487 N   0  0  0  0  0  0  0  0  0  0  0  0
   10.0172   -4.4740   17.4101 C   0  0  0  0  0  0  0  0  0  0  0  0
    6.9051   -7.9575   16.4222 C   0  0  0  0  0  0  0  0  0  0  0  0
    8.9969   -6.3552   17.9668 N   0  0  0  0  0  0  0  0  0  0  0  0
   10.6702   -3.9051   22.4070 C   0  0  0  0  0  0  0  0  0  0  0  0
   11.0625   -3.0028   18.8894 C   0  0  0  0  0  0  0  0  0  0  0  0
    5.6180   -7.9194   16.1754 O   0  0  0  0  0  0  0  0  0  0  0  0
    9.7259   -5.3080   18.4485 C   0  0  0  0  0  0  0  0  0  0  0  0
    9.4578   -5.0200   16.3036 N   0  0  0  0  0  0  0  0  0  0  0  0
    5.0287   -8.9365   16.8223 C   0  0  0  0  0  0  0  0  0  0  0  0
    8.7742   -6.1498   16.6764 C   0  0  0  0  0  0  0  0  0  0  0  0
   10.9418   -3.4032   21.2053 O   0  0  0  0  0  0  0  0  0  0  0  0
    1.4797   -8.6258   16.2950 C   0  0  0  0  0  0  0  0  0  0  0  0
    9.2861   -1.2743   25.3585 C   0  0  0  0  0  0  0  0  0  0  0  0
    1.8892  -10.3985   17.7511 N   0  0  0  0  0  0  0  0  0  0  0  0
    9.6210   -0.6952   24.0976 C   0  0  0  0  0  0  0  0  0  0  0  0
    7.0792   -9.0217   17.1429 C   0  0  0  0  0  0  0  0  0  0  0  0
    3.1713  -10.1816   17.6634 C   0  0  0  0  0  0  0  0  0  0  0  0
    2.7878   -8.3822   16.2137 C   0  0  0  0  0  0  0  0  0  0  0  0
    9.4601   -2.6590   25.6528 C   0  0  0  0  0  0  0  0  0  0  0  0
   10.1182   -1.5672   23.1165 C   0  0  0  0  0  0  0  0  0  0  0  0
    1.0552   -9.6360   17.0650 C   0  0  0  0  0  0  0  0  0  0  0  0
    3.6519   -9.1783   16.9039 C   0  0  0  0  0  0  0  0  0  0  0  0
    7.8675   -7.0096   15.9415 C   0  0  0  0  0  0  0  0  0  0  0  0
    5.9733   -9.6553   17.3832 N   0  0  0  0  0  0  0  0  0  0  0  0
   10.2411   -2.9363   23.4301 C   0  0  0  0  0  0  0  0  0  0  0  0
   10.7288   -3.8197   19.9525 C   0  0  0  0  0  0  0  0  0  0  0  0
   10.1189   -5.0054   19.6987 C   0  0  0  0  0  0  0  0  0  0  0  0
  1  3  4  0
  1  7  4  0
  2 21  4  0
  2 27  4  0
  3  9  4  0
  3 10  4  0
  4  8  4  0
  4 18  4  0
  4 25  1  0
  5  9  4  0
  5 12  4  0
  6 13  1  0
  6 27  1  0
  7 28  4  0
  8 11  4  0
  9 29  4  0
 10 12  4  0
 11 24  1  0
 11 26  4  0
 12 25  1  0
 13 28  1  0
 14 20  4  0
 14 23  4  0
 15 17  4  0
 15 21  4  0
 16 19  4  0
 16 23  4  0
 17 22  4  0
 18 26  4  0
 19 24  4  0
 20 24  4  0
 22 27  4  0
 28 29  4  0
M  END
$$$$

 Created by Python create_sdf_string function

 29 33  0  0  0  0  0  0  0  0999 V2000
   10.7215   -3.3326   17.6437 C   0  0  0  0  0  0  0  0  0  0  0  0
    9.9489   -3.4675   24.6487 N   0  0  0  0  0  0  0  0  0  0  0  0
   10.0172   -4.4740   17.4101 C   0  0  0  0  0  0  0  0  0  0  0  0
    6.9051   -7.9575   16.4222 C   0  0  0  0  0  0  0  0  0  0  0  0
    8.9969   -6.3552   17.9668 N   0  0  0  0  0  0  0  0  0  0  0  0
   10.6702   -3.9051   22.4070 C   0  0  0  0  0  0  0  0  0  0  0  0
   11.0625   -3.0028   18.8894 C   0  0  0  0  0  0  0  0  0  0  0  0
    5.6180   -7.9194   16.1754 O   0  0  0  0  0  0  0  0  0  0  0  0
    9.7259   -5.3080   18.4485 C   0  0  0  0  0  0  0  0  0  0  0  0
    9.4578   -5.0200   16.3036 N   0  0  0  0  0  0  0  0  0  0  0  0
    5.0287   -8.9365   16.8223 C   0  0  0  0  0  0  0  0  0  0  0  0
    8.7742   -6.1498   16.6764 C   0  0  0  0  0  0  0  0  0  0  0  0
   10.9418   -3.4032   21.2053 O   0  0  0  0  0  0  0  0  0  0  0  0
    1.4797   -8.6258   16.2950 C   0  0  0  0  0  0  0  0  0  0  0  0
    9.2861   -1.2743   25.3585 C   0  0  0  0  0  0  0  0  0  0  0  0
    1.8892  -10.3985   17.7511 N   0  0  0  0  0  0  0  0  0  0  0  0
    9.6210   -0.6952   24.0976 C   0  0  0  0  0  0  0  0  0  0  0  0
    7.0792   -9.0217   17.1429 C   0  0  0  0  0  0  0  0  0  0  0  0
    3.1713  -10.1816   17.6634 C   0  0  0  0  0  0  0  0  0  0  0  0
    2.7878   -8.3822   16.2137 C   0  0  0  0  0  0  0  0  0  0  0  0
    9.4601   -2.6590   25.6528 C   0  0  0  0  0  0  0  0  0  0  0  0
   10.1182   -1.5672   23.1165 C   0  0  0  0  0  0  0  0  0  0  0  0
    1.0552   -9.6360   17.0650 C   0  0  0  0  0  0  0  0  0  0  0  0
    3.6519   -9.1783   16.9039 C   0  0  0  0  0  0  0  0  0  0  0  0
    7.8675   -7.0096   15.9415 C   0  0  0  0  0  0  0  0  0  0  0  0
    5.9733   -9.6553   17.3832 N   0  0  0  0  0  0  0  0  0  0  0  0
   10.2411   -2.9363   23.4301 C   0  0  0  0  0  0  0  0  0  0  0  0
   10.7288   -3.8197   19.9525 C   0  0  0  0  0  0  0  0  0  0  0  0
   10.1189   -5.0054   19.6987 C   0  0  0  0  0  0  0  0  0  0  0  0
  1  3  4  0
  1  7  4  0
  2 21  4  0
  2 27  4  0
  3  9  4  0
  3 10  4  0
  4  8  4  0
  4 18  4  0
  4 25  1  0
  5  9  4  0
  5 12  4  0
  6 13  1  0
  6 27  1  0
  7 28  4  0
  8 11  4  0
  9 29  4  0
 10 12  4  0
 11 24  1  0
 11 26  4  0
 12 25  1  0
 13 28  1  0
 14 20  4  0
 14 23  4  0
 15 17  4  0
 15 21  4  0
 16 19  4  0
 16 23  4  0
 17 22  4  0
 18 26  4  0
 19 24  4  0
 20 24  4  0
 22 27  4  0
 28 29  4  0
M  END
$$$$

 Created by Python create_sdf_string function

 29 33  0  0  0  0  0  0  0  0999 V2000
   10.7215   -3.3326   17.6437 C   0  0  0  0  0  0  0  0  0  0  0  0
    9.9489   -3.4675   24.6487 N   0  0  0  0  0  0  0  0  0  0  0  0
   10.0172   -4.4740   17.4101 C   0  0  0  0  0  0  0  0  0  0  0  0
    6.9051   -7.9575   16.4222 C   0  0  0  0  0  0  0  0  0  0  0  0
    8.9969   -6.3552   17.9668 N   0  0  0  0  0  0  0  0  0  0  0  0
   10.6702   -3.9051   22.4070 C   0  0  0  0  0  0  0  0  0  0  0  0
   11.0625   -3.0028   18.8894 C   0  0  0  0  0  0  0  0  0  0  0  0
    5.6180   -7.9194   16.1754 O   0  0  0  0  0  0  0  0  0  0  0  0
    9.7259   -5.3080   18.4485 C   0  0  0  0  0  0  0  0  0  0  0  0
    9.4578   -5.0200   16.3036 N   0  0  0  0  0  0  0  0  0  0  0  0
    5.0287   -8.9365   16.8223 C   0  0  0  0  0  0  0  0  0  0  0  0
    8.7742   -6.1498   16.6764 C   0  0  0  0  0  0  0  0  0  0  0  0
   10.9418   -3.4032   21.2053 O   0  0  0  0  0  0  0  0  0  0  0  0
    1.4797   -8.6258   16.2950 C   0  0  0  0  0  0  0  0  0  0  0  0
    9.2861   -1.2743   25.3585 C   0  0  0  0  0  0  0  0  0  0  0  0
    1.8892  -10.3985   17.7511 N   0  0  0  0  0  0  0  0  0  0  0  0
    9.6210   -0.6952   24.0976 C   0  0  0  0  0  0  0  0  0  0  0  0
    7.0792   -9.0217   17.1429 C   0  0  0  0  0  0  0  0  0  0  0  0
    3.1713  -10.1816   17.6634 C   0  0  0  0  0  0  0  0  0  0  0  0
    2.7878   -8.3822   16.2137 C   0  0  0  0  0  0  0  0  0  0  0  0
    9.4601   -2.6590   25.6528 C   0  0  0  0  0  0  0  0  0  0  0  0
   10.1182   -1.5672   23.1165 C   0  0  0  0  0  0  0  0  0  0  0  0
    1.0552   -9.6360   17.0650 C   0  0  0  0  0  0  0  0  0  0  0  0
    3.6519   -9.1783   16.9039 C   0  0  0  0  0  0  0  0  0  0  0  0
    7.8675   -7.0096   15.9415 C   0  0  0  0  0  0  0  0  0  0  0  0
    5.9733   -9.6553   17.3832 N   0  0  0  0  0  0  0  0  0  0  0  0
   10.2411   -2.9363   23.4301 C   0  0  0  0  0  0  0  0  0  0  0  0
   10.7288   -3.8197   19.9525 C   0  0  0  0  0  0  0  0  0  0  0  0
   10.1189   -5.0054   19.6987 C   0  0  0  0  0  0  0  0  0  0  0  0
  1  3  4  0
  1  7  4  0
  2 21  4  0
  2 27  4  0
  3  9  4  0
  3 10  4  0
  4  8  4  0
  4 18  4  0
  4 25  1  0
  5  9  4  0
  5 12  4  0
  6 13  1  0
  6 27  1  0
  7 28  4  0
  8 11  4  0
  9 29  4  0
 10 12  4  0
 11 24  1  0
 11 26  4  0
 12 25  1  0
 13 28  1  0
 14 20  4  0
 14 23  4  0
 15 17  4  0
 15 21  4  0
 16 19  4  0
 16 23  4  0
 17 22  4  0
 18 26  4  0
 19 24  4  0
 20 24  4  0
 22 27  4  0
 28 29  4  0
M  END
$$$$

 Created by Python create_sdf_string function

 29 33  0  0  0  0  0  0  0  0999 V2000
   10.7215   -3.3326   17.6437 C   0  0  0  0  0  0  0  0  0  0  0  0
    9.9489   -3.4675   24.6487 N   0  0  0  0  0  0  0  0  0  0  0  0
   10.0172   -4.4740   17.4101 C   0  0  0  0  0  0  0  0  0  0  0  0
    6.9051   -7.9575   16.4222 C   0  0  0  0  0  0  0  0  0  0  0  0
    8.9969   -6.3552   17.9668 N   0  0  0  0  0  0  0  0  0  0  0  0
   10.6702   -3.9051   22.4070 C   0  0  0  0  0  0  0  0  0  0  0  0
   11.0625   -3.0028   18.8894 C   0  0  0  0  0  0  0  0  0  0  0  0
    5.6180   -7.9194   16.1754 O   0  0  0  0  0  0  0  0  0  0  0  0
    9.7259   -5.3080   18.4485 C   0  0  0  0  0  0  0  0  0  0  0  0
    9.4578   -5.0200   16.3036 N   0  0  0  0  0  0  0  0  0  0  0  0
    5.0287   -8.9365   16.8223 C   0  0  0  0  0  0  0  0  0  0  0  0
    8.7742   -6.1498   16.6764 C   0  0  0  0  0  0  0  0  0  0  0  0
   10.9418   -3.4032   21.2053 O   0  0  0  0  0  0  0  0  0  0  0  0
    1.4797   -8.6258   16.2950 C   0  0  0  0  0  0  0  0  0  0  0  0
    9.2861   -1.2743   25.3585 C   0  0  0  0  0  0  0  0  0  0  0  0
    1.8892  -10.3985   17.7511 N   0  0  0  0  0  0  0  0  0  0  0  0
    9.6210   -0.6952   24.0976 C   0  0  0  0  0  0  0  0  0  0  0  0
    7.0792   -9.0217   17.1429 C   0  0  0  0  0  0  0  0  0  0  0  0
    3.1713  -10.1816   17.6634 C   0  0  0  0  0  0  0  0  0  0  0  0
    2.7878   -8.3822   16.2137 C   0  0  0  0  0  0  0  0  0  0  0  0
    9.4601   -2.6590   25.6528 C   0  0  0  0  0  0  0  0  0  0  0  0
   10.1182   -1.5672   23.1165 C   0  0  0  0  0  0  0  0  0  0  0  0
    1.0552   -9.6360   17.0650 C   0  0  0  0  0  0  0  0  0  0  0  0
    3.6519   -9.1783   16.9039 C   0  0  0  0  0  0  0  0  0  0  0  0
    7.8675   -7.0096   15.9415 C   0  0  0  0  0  0  0  0  0  0  0  0
    5.9733   -9.6553   17.3832 N   0  0  0  0  0  0  0  0  0  0  0  0
   10.2411   -2.9363   23.4301 C   0  0  0  0  0  0  0  0  0  0  0  0
   10.7288   -3.8197   19.9525 C   0  0  0  0  0  0  0  0  0  0  0  0
   10.1189   -5.0054   19.6987 C   0  0  0  0  0  0  0  0  0  0  0  0
  1  3  4  0
  1  7  4  0
  2 21  4  0
  2 27  4  0
  3  9  4  0
  3 10  4  0
  4  8  4  0
  4 18  4  0
  4 25  1  0
  5  9  4  0
  5 12  4  0
  6 13  1  0
  6 27  1  0
  7 28  4  0
  8 11  4  0
  9 29  4  0
 10 12  4  0
 11 24  1  0
 11 26  4  0
 12 25  1  0
 13 28  1  0
 14 20  4  0
 14 23  4  0
 15 17  4  0
 15 21  4  0
 16 19  4  0
 16 23  4  0
 17 22  4  0
 18 26  4  0
 19 24  4  0
 20 24  4  0
 22 27  4  0
 28 29  4  0
M  END
$$$$

 Created by Python create_sdf_string function

 29 33  0  0  0  0  0  0  0  0999 V2000
   10.7215   -3.3326   17.6437 C   0  0  0  0  0  0  0  0  0  0  0  0
    9.9489   -3.4675   24.6487 N   0  0  0  0  0  0  0  0  0  0  0  0
   10.0172   -4.4740   17.4101 C   0  0  0  0  0  0  0  0  0  0  0  0
    6.9051   -7.9575   16.4222 C   0  0  0  0  0  0  0  0  0  0  0  0
    8.9969   -6.3552   17.9668 N   0  0  0  0  0  0  0  0  0  0  0  0
   10.6702   -3.9051   22.4070 C   0  0  0  0  0  0  0  0  0  0  0  0
   11.0625   -3.0028   18.8894 C   0  0  0  0  0  0  0  0  0  0  0  0
    5.6180   -7.9194   16.1754 O   0  0  0  0  0  0  0  0  0  0  0  0
    9.7259   -5.3080   18.4485 C   0  0  0  0  0  0  0  0  0  0  0  0
    9.4578   -5.0200   16.3036 N   0  0  0  0  0  0  0  0  0  0  0  0
    5.0287   -8.9365   16.8223 C   0  0  0  0  0  0  0  0  0  0  0  0
    8.7742   -6.1498   16.6764 C   0  0  0  0  0  0  0  0  0  0  0  0
   10.9418   -3.4032   21.2053 O   0  0  0  0  0  0  0  0  0  0  0  0
    1.4797   -8.6258   16.2950 C   0  0  0  0  0  0  0  0  0  0  0  0
    9.2861   -1.2743   25.3585 C   0  0  0  0  0  0  0  0  0  0  0  0
    1.8892  -10.3985   17.7511 N   0  0  0  0  0  0  0  0  0  0  0  0
    9.6210   -0.6952   24.0976 C   0  0  0  0  0  0  0  0  0  0  0  0
    7.0792   -9.0217   17.1429 C   0  0  0  0  0  0  0  0  0  0  0  0
    3.1713  -10.1816   17.6634 C   0  0  0  0  0  0  0  0  0  0  0  0
    2.7878   -8.3822   16.2137 C   0  0  0  0  0  0  0  0  0  0  0  0
    9.4601   -2.6590   25.6528 C   0  0  0  0  0  0  0  0  0  0  0  0
   10.1182   -1.5672   23.1165 C   0  0  0  0  0  0  0  0  0  0  0  0
    1.0552   -9.6360   17.0650 C   0  0  0  0  0  0  0  0  0  0  0  0
    3.6519   -9.1783   16.9039 C   0  0  0  0  0  0  0  0  0  0  0  0
    7.8675   -7.0096   15.9415 C   0  0  0  0  0  0  0  0  0  0  0  0
    5.9733   -9.6553   17.3832 N   0  0  0  0  0  0  0  0  0  0  0  0
   10.2411   -2.9363   23.4301 C   0  0  0  0  0  0  0  0  0  0  0  0
   10.7288   -3.8197   19.9525 C   0  0  0  0  0  0  0  0  0  0  0  0
   10.1189   -5.0054   19.6987 C   0  0  0  0  0  0  0  0  0  0  0  0
  1  3  4  0
  1  7  4  0
  2 21  4  0
  2 27  4  0
  3  9  4  0
  3 10  4  0
  4  8  4  0
  4 18  4  0
  4 25  1  0
  5  9  4  0
  5 12  4  0
  6 13  1  0
  6 27  1  0
  7 28  4  0
  8 11  4  0
  9 29  4  0
 10 12  4  0
 11 24  1  0
 11 26  4  0
 12 25  1  0
 13 28  1  0
 14 20  4  0
 14 23  4  0
 15 17  4  0
 15 21  4  0
 16 19  4  0
 16 23  4  0
 17 22  4  0
 18 26  4  0
 19 24  4  0
 20 24  4  0
 22 27  4  0
 28 29  4  0
M  END
$$$$

 Created by Python create_sdf_string function

 29 33  0  0  0  0  0  0  0  0999 V2000
   10.7215   -3.3326   17.6437 C   0  0  0  0  0  0  0  0  0  0  0  0
    9.9489   -3.4675   24.6487 N   0  0  0  0  0  0  0  0  0  0  0  0
   10.0172   -4.4740   17.4101 C   0  0  0  0  0  0  0  0  0  0  0  0
    6.9051   -7.9575   16.4222 C   0  0  0  0  0  0  0  0  0  0  0  0
    8.9969   -6.3552   17.9668 N   0  0  0  0  0  0  0  0  0  0  0  0
   10.6702   -3.9051   22.4070 C   0  0  0  0  0  0  0  0  0  0  0  0
   11.0625   -3.0028   18.8894 C   0  0  0  0  0  0  0  0  0  0  0  0
    5.6180   -7.9194   16.1754 O   0  0  0  0  0  0  0  0  0  0  0  0
    9.7259   -5.3080   18.4485 C   0  0  0  0  0  0  0  0  0  0  0  0
    9.4578   -5.0200   16.3036 N   0  0  0  0  0  0  0  0  0  0  0  0
    5.0287   -8.9365   16.8223 C   0  0  0  0  0  0  0  0  0  0  0  0
    8.7742   -6.1498   16.6764 C   0  0  0  0  0  0  0  0  0  0  0  0
   10.9418   -3.4032   21.2053 O   0  0  0  0  0  0  0  0  0  0  0  0
    1.4797   -8.6258   16.2950 C   0  0  0  0  0  0  0  0  0  0  0  0
    9.2861   -1.2743   25.3585 C   0  0  0  0  0  0  0  0  0  0  0  0
    1.8892  -10.3985   17.7511 N   0  0  0  0  0  0  0  0  0  0  0  0
    9.6210   -0.6952   24.0976 C   0  0  0  0  0  0  0  0  0  0  0  0
    7.0792   -9.0217   17.1429 C   0  0  0  0  0  0  0  0  0  0  0  0
    3.1713  -10.1816   17.6634 C   0  0  0  0  0  0  0  0  0  0  0  0
    2.7878   -8.3822   16.2137 C   0  0  0  0  0  0  0  0  0  0  0  0
    9.4601   -2.6590   25.6528 C   0  0  0  0  0  0  0  0  0  0  0  0
   10.1182   -1.5672   23.1165 C   0  0  0  0  0  0  0  0  0  0  0  0
    1.0552   -9.6360   17.0650 C   0  0  0  0  0  0  0  0  0  0  0  0
    3.6519   -9.1783   16.9039 C   0  0  0  0  0  0  0  0  0  0  0  0
    7.8675   -7.0096   15.9415 C   0  0  0  0  0  0  0  0  0  0  0  0
    5.9733   -9.6553   17.3832 N   0  0  0  0  0  0  0  0  0  0  0  0
   10.2411   -2.9363   23.4301 C   0  0  0  0  0  0  0  0  0  0  0  0
   10.7288   -3.8197   19.9525 C   0  0  0  0  0  0  0  0  0  0  0  0
   10.1189   -5.0054   19.6987 C   0  0  0  0  0  0  0  0  0  0  0  0
  1  3  4  0
  1  7  4  0
  2 21  4  0
  2 27  4  0
  3  9  4  0
  3 10  4  0
  4  8  4  0
  4 18  4  0
  4 25  1  0
  5  9  4  0
  5 12  4  0
  6 13  1  0
  6 27  1  0
  7 28  4  0
  8 11  4  0
  9 29  4  0
 10 12  4  0
 11 24  1  0
 11 26  4  0
 12 25  1  0
 13 28  1  0
 14 20  4  0
 14 23  4  0
 15 17  4  0
 15 21  4  0
 16 19  4  0
 16 23  4  0
 17 22  4  0
 18 26  4  0
 19 24  4  0
 20 24  4  0
 22 27  4  0
 28 29  4  0
M  END
$$$$

 Created by Python create_sdf_string function

 29 33  0  0  0  0  0  0  0  0999 V2000
   10.7215   -3.3326   17.6437 C   0  0  0  0  0  0  0  0  0  0  0  0
    9.9489   -3.4675   24.6487 N   0  0  0  0  0  0  0  0  0  0  0  0
   10.0172   -4.4740   17.4101 C   0  0  0  0  0  0  0  0  0  0  0  0
    6.9051   -7.9575   16.4222 C   0  0  0  0  0  0  0  0  0  0  0  0
    8.9969   -6.3552   17.9668 N   0  0  0  0  0  0  0  0  0  0  0  0
   10.6702   -3.9051   22.4070 C   0  0  0  0  0  0  0  0  0  0  0  0
   11.0625   -3.0028   18.8894 C   0  0  0  0  0  0  0  0  0  0  0  0
    5.6180   -7.9194   16.1754 O   0  0  0  0  0  0  0  0  0  0  0  0
    9.7259   -5.3080   18.4485 C   0  0  0  0  0  0  0  0  0  0  0  0
    9.4578   -5.0200   16.3036 N   0  0  0  0  0  0  0  0  0  0  0  0
    5.0287   -8.9365   16.8223 C   0  0  0  0  0  0  0  0  0  0  0  0
    8.7742   -6.1498   16.6764 C   0  0  0  0  0  0  0  0  0  0  0  0
   10.9418   -3.4032   21.2053 O   0  0  0  0  0  0  0  0  0  0  0  0
    1.4797   -8.6258   16.2950 C   0  0  0  0  0  0  0  0  0  0  0  0
    9.2861   -1.2743   25.3585 C   0  0  0  0  0  0  0  0  0  0  0  0
    1.8892  -10.3985   17.7511 N   0  0  0  0  0  0  0  0  0  0  0  0
    9.6210   -0.6952   24.0976 C   0  0  0  0  0  0  0  0  0  0  0  0
    7.0792   -9.0217   17.1429 C   0  0  0  0  0  0  0  0  0  0  0  0
    3.1713  -10.1816   17.6634 C   0  0  0  0  0  0  0  0  0  0  0  0
    2.7878   -8.3822   16.2137 C   0  0  0  0  0  0  0  0  0  0  0  0
    9.4601   -2.6590   25.6528 C   0  0  0  0  0  0  0  0  0  0  0  0
   10.1182   -1.5672   23.1165 C   0  0  0  0  0  0  0  0  0  0  0  0
    1.0552   -9.6360   17.0650 C   0  0  0  0  0  0  0  0  0  0  0  0
    3.6519   -9.1783   16.9039 C   0  0  0  0  0  0  0  0  0  0  0  0
    7.8675   -7.0096   15.9415 C   0  0  0  0  0  0  0  0  0  0  0  0
    5.9733   -9.6553   17.3832 N   0  0  0  0  0  0  0  0  0  0  0  0
   10.2411   -2.9363   23.4301 C   0  0  0  0  0  0  0  0  0  0  0  0
   10.7288   -3.8197   19.9525 C   0  0  0  0  0  0  0  0  0  0  0  0
   10.1189   -5.0054   19.6987 C   0  0  0  0  0  0  0  0  0  0  0  0
  1  3  4  0
  1  7  4  0
  2 21  4  0
  2 27  4  0
  3  9  4  0
  3 10  4  0
  4  8  4  0
  4 18  4  0
  4 25  1  0
  5  9  4  0
  5 12  4  0
  6 13  1  0
  6 27  1  0
  7 28  4  0
  8 11  4  0
  9 29  4  0
 10 12  4  0
 11 24  1  0
 11 26  4  0
 12 25  1  0
 13 28  1  0
 14 20  4  0
 14 23  4  0
 15 17  4  0
 15 21  4  0
 16 19  4  0
 16 23  4  0
 17 22  4  0
 18 26  4  0
 19 24  4  0
 20 24  4  0
 22 27  4  0
 28 29  4  0
M  END
$$$$

 Created by Python create_sdf_string function

 29 33  0  0  0  0  0  0  0  0999 V2000
   10.7215   -3.3326   17.6437 C   0  0  0  0  0  0  0  0  0  0  0  0
    9.9489   -3.4675   24.6487 N   0  0  0  0  0  0  0  0  0  0  0  0
   10.0172   -4.4740   17.4101 C   0  0  0  0  0  0  0  0  0  0  0  0
    6.9051   -7.9575   16.4222 C   0  0  0  0  0  0  0  0  0  0  0  0
    8.9969   -6.3552   17.9668 N   0  0  0  0  0  0  0  0  0  0  0  0
   10.6702   -3.9051   22.4070 C   0  0  0  0  0  0  0  0  0  0  0  0
   11.0625   -3.0028   18.8894 C   0  0  0  0  0  0  0  0  0  0  0  0
    5.6180   -7.9194   16.1754 O   0  0  0  0  0  0  0  0  0  0  0  0
    9.7259   -5.3080   18.4485 C   0  0  0  0  0  0  0  0  0  0  0  0
    9.4578   -5.0200   16.3036 N   0  0  0  0  0  0  0  0  0  0  0  0
    5.0287   -8.9365   16.8223 C   0  0  0  0  0  0  0  0  0  0  0  0
    8.7742   -6.1498   16.6764 C   0  0  0  0  0  0  0  0  0  0  0  0
   10.9418   -3.4032   21.2053 O   0  0  0  0  0  0  0  0  0  0  0  0
    1.4797   -8.6258   16.2950 C   0  0  0  0  0  0  0  0  0  0  0  0
    9.2861   -1.2743   25.3585 C   0  0  0  0  0  0  0  0  0  0  0  0
    1.8892  -10.3985   17.7511 N   0  0  0  0  0  0  0  0  0  0  0  0
    9.6210   -0.6952   24.0976 C   0  0  0  0  0  0  0  0  0  0  0  0
    7.0792   -9.0217   17.1429 C   0  0  0  0  0  0  0  0  0  0  0  0
    3.1713  -10.1816   17.6634 C   0  0  0  0  0  0  0  0  0  0  0  0
    2.7878   -8.3822   16.2137 C   0  0  0  0  0  0  0  0  0  0  0  0
    9.4601   -2.6590   25.6528 C   0  0  0  0  0  0  0  0  0  0  0  0
   10.1182   -1.5672   23.1165 C   0  0  0  0  0  0  0  0  0  0  0  0
    1.0552   -9.6360   17.0650 C   0  0  0  0  0  0  0  0  0  0  0  0
    3.6519   -9.1783   16.9039 C   0  0  0  0  0  0  0  0  0  0  0  0
    7.8675   -7.0096   15.9415 C   0  0  0  0  0  0  0  0  0  0  0  0
    5.9733   -9.6553   17.3832 N   0  0  0  0  0  0  0  0  0  0  0  0
   10.2411   -2.9363   23.4301 C   0  0  0  0  0  0  0  0  0  0  0  0
   10.7288   -3.8197   19.9525 C   0  0  0  0  0  0  0  0  0  0  0  0
   10.1189   -5.0054   19.6987 C   0  0  0  0  0  0  0  0  0  0  0  0
  1  3  4  0
  1  7  4  0
  2 21  4  0
  2 27  4  0
  3  9  4  0
  3 10  4  0
  4  8  4  0
  4 18  4  0
  4 25  1  0
  5  9  4  0
  5 12  4  0
  6 13  1  0
  6 27  1  0
  7 28  4  0
  8 11  4  0
  9 29  4  0
 10 12  4  0
 11 24  1  0
 11 26  4  0
 12 25  1  0
 13 28  1  0
 14 20  4  0
 14 23  4  0
 15 17  4  0
 15 21  4  0
 16 19  4  0
 16 23  4  0
 17 22  4  0
 18 26  4  0
 19 24  4  0
 20 24  4  0
 22 27  4  0
 28 29  4  0
M  END
$$$$

 Created by Python create_sdf_string function

 29 33  0  0  0  0  0  0  0  0999 V2000
   10.7215   -3.3326   17.6437 C   0  0  0  0  0  0  0  0  0  0  0  0
    9.9489   -3.4675   24.6487 N   0  0  0  0  0  0  0  0  0  0  0  0
   10.0172   -4.4740   17.4101 C   0  0  0  0  0  0  0  0  0  0  0  0
    6.9051   -7.9575   16.4222 C   0  0  0  0  0  0  0  0  0  0  0  0
    8.9969   -6.3552   17.9668 N   0  0  0  0  0  0  0  0  0  0  0  0
   10.6702   -3.9051   22.4070 C   0  0  0  0  0  0  0  0  0  0  0  0
   11.0625   -3.0028   18.8894 C   0  0  0  0  0  0  0  0  0  0  0  0
    5.6180   -7.9194   16.1754 O   0  0  0  0  0  0  0  0  0  0  0  0
    9.7259   -5.3080   18.4485 C   0  0  0  0  0  0  0  0  0  0  0  0
    9.4578   -5.0200   16.3036 N   0  0  0  0  0  0  0  0  0  0  0  0
    5.0287   -8.9365   16.8223 C   0  0  0  0  0  0  0  0  0  0  0  0
    8.7742   -6.1498   16.6764 C   0  0  0  0  0  0  0  0  0  0  0  0
   10.9418   -3.4032   21.2053 O   0  0  0  0  0  0  0  0  0  0  0  0
    1.4797   -8.6258   16.2950 C   0  0  0  0  0  0  0  0  0  0  0  0
    9.2861   -1.2743   25.3585 C   0  0  0  0  0  0  0  0  0  0  0  0
    1.8892  -10.3985   17.7511 N   0  0  0  0  0  0  0  0  0  0  0  0
    9.6210   -0.6952   24.0976 C   0  0  0  0  0  0  0  0  0  0  0  0
    7.0792   -9.0217   17.1429 C   0  0  0  0  0  0  0  0  0  0  0  0
    3.1713  -10.1816   17.6634 C   0  0  0  0  0  0  0  0  0  0  0  0
    2.7878   -8.3822   16.2137 C   0  0  0  0  0  0  0  0  0  0  0  0
    9.4601   -2.6590   25.6528 C   0  0  0  0  0  0  0  0  0  0  0  0
   10.1182   -1.5672   23.1165 C   0  0  0  0  0  0  0  0  0  0  0  0
    1.0552   -9.6360   17.0650 C   0  0  0  0  0  0  0  0  0  0  0  0
    3.6519   -9.1783   16.9039 C   0  0  0  0  0  0  0  0  0  0  0  0
    7.8675   -7.0096   15.9415 C   0  0  0  0  0  0  0  0  0  0  0  0
    5.9733   -9.6553   17.3832 N   0  0  0  0  0  0  0  0  0  0  0  0
   10.2411   -2.9363   23.4301 C   0  0  0  0  0  0  0  0  0  0  0  0
   10.7288   -3.8197   19.9525 C   0  0  0  0  0  0  0  0  0  0  0  0
   10.1189   -5.0054   19.6987 C   0  0  0  0  0  0  0  0  0  0  0  0
  1  3  4  0
  1  7  4  0
  2 21  4  0
  2 27  4  0
  3  9  4  0
  3 10  4  0
  4  8  4  0
  4 18  4  0
  4 25  1  0
  5  9  4  0
  5 12  4  0
  6 13  1  0
  6 27  1  0
  7 28  4  0
  8 11  4  0
  9 29  4  0
 10 12  4  0
 11 24  1  0
 11 26  4  0
 12 25  1  0
 13 28  1  0
 14 20  4  0
 14 23  4  0
 15 17  4  0
 15 21  4  0
 16 19  4  0
 16 23  4  0
 17 22  4  0
 18 26  4  0
 19 24  4  0
 20 24  4  0
 22 27  4  0
 28 29  4  0
M  END
$$$$

 Created by Python create_sdf_string function

 29 33  0  0  0  0  0  0  0  0999 V2000
   10.7215   -3.3326   17.6437 C   0  0  0  0  0  0  0  0  0  0  0  0
    9.9489   -3.4675   24.6487 N   0  0  0  0  0  0  0  0  0  0  0  0
   10.0172   -4.4740   17.4101 C   0  0  0  0  0  0  0  0  0  0  0  0
    6.9051   -7.9575   16.4222 C   0  0  0  0  0  0  0  0  0  0  0  0
    8.9969   -6.3552   17.9668 N   0  0  0  0  0  0  0  0  0  0  0  0
   10.6702   -3.9051   22.4070 C   0  0  0  0  0  0  0  0  0  0  0  0
   11.0625   -3.0028   18.8894 C   0  0  0  0  0  0  0  0  0  0  0  0
    5.6180   -7.9194   16.1754 O   0  0  0  0  0  0  0  0  0  0  0  0
    9.7259   -5.3080   18.4485 C   0  0  0  0  0  0  0  0  0  0  0  0
    9.4578   -5.0200   16.3036 N   0  0  0  0  0  0  0  0  0  0  0  0
    5.0287   -8.9365   16.8223 C   0  0  0  0  0  0  0  0  0  0  0  0
    8.7742   -6.1498   16.6764 C   0  0  0  0  0  0  0  0  0  0  0  0
   10.9418   -3.4032   21.2053 O   0  0  0  0  0  0  0  0  0  0  0  0
    1.4797   -8.6258   16.2950 C   0  0  0  0  0  0  0  0  0  0  0  0
    9.2861   -1.2743   25.3585 C   0  0  0  0  0  0  0  0  0  0  0  0
    1.8892  -10.3985   17.7511 N   0  0  0  0  0  0  0  0  0  0  0  0
    9.6210   -0.6952   24.0976 C   0  0  0  0  0  0  0  0  0  0  0  0
    7.0792   -9.0217   17.1429 C   0  0  0  0  0  0  0  0  0  0  0  0
    3.1713  -10.1816   17.6634 C   0  0  0  0  0  0  0  0  0  0  0  0
    2.7878   -8.3822   16.2137 C   0  0  0  0  0  0  0  0  0  0  0  0
    9.4601   -2.6590   25.6528 C   0  0  0  0  0  0  0  0  0  0  0  0
   10.1182   -1.5672   23.1165 C   0  0  0  0  0  0  0  0  0  0  0  0
    1.0552   -9.6360   17.0650 C   0  0  0  0  0  0  0  0  0  0  0  0
    3.6519   -9.1783   16.9039 C   0  0  0  0  0  0  0  0  0  0  0  0
    7.8675   -7.0096   15.9415 C   0  0  0  0  0  0  0  0  0  0  0  0
    5.9733   -9.6553   17.3832 N   0  0  0  0  0  0  0  0  0  0  0  0
   10.2411   -2.9363   23.4301 C   0  0  0  0  0  0  0  0  0  0  0  0
   10.7288   -3.8197   19.9525 C   0  0  0  0  0  0  0  0  0  0  0  0
   10.1189   -5.0054   19.6987 C   0  0  0  0  0  0  0  0  0  0  0  0
  1  3  4  0
  1  7  4  0
  2 21  4  0
  2 27  4  0
  3  9  4  0
  3 10  4  0
  4  8  4  0
  4 18  4  0
  4 25  1  0
  5  9  4  0
  5 12  4  0
  6 13  1  0
  6 27  1  0
  7 28  4  0
  8 11  4  0
  9 29  4  0
 10 12  4  0
 11 24  1  0
 11 26  4  0
 12 25  1  0
 13 28  1  0
 14 20  4  0
 14 23  4  0
 15 17  4  0
 15 21  4  0
 16 19  4  0
 16 23  4  0
 17 22  4  0
 18 26  4  0
 19 24  4  0
 20 24  4  0
 22 27  4  0
 28 29  4  0
M  END
$$$$

 Created by Python create_sdf_string function

 29 33  0  0  0  0  0  0  0  0999 V2000
   10.7215   -3.3326   17.6437 C   0  0  0  0  0  0  0  0  0  0  0  0
    9.9489   -3.4675   24.6487 N   0  0  0  0  0  0  0  0  0  0  0  0
   10.0172   -4.4740   17.4101 C   0  0  0  0  0  0  0  0  0  0  0  0
    6.9051   -7.9575   16.4222 C   0  0  0  0  0  0  0  0  0  0  0  0
    8.9969   -6.3552   17.9668 N   0  0  0  0  0  0  0  0  0  0  0  0
   10.6702   -3.9051   22.4070 C   0  0  0  0  0  0  0  0  0  0  0  0
   11.0625   -3.0028   18.8894 C   0  0  0  0  0  0  0  0  0  0  0  0
    5.6180   -7.9194   16.1754 O   0  0  0  0  0  0  0  0  0  0  0  0
    9.7259   -5.3080   18.4485 C   0  0  0  0  0  0  0  0  0  0  0  0
    9.4578   -5.0200   16.3036 N   0  0  0  0  0  0  0  0  0  0  0  0
    5.0287   -8.9365   16.8223 C   0  0  0  0  0  0  0  0  0  0  0  0
    8.7742   -6.1498   16.6764 C   0  0  0  0  0  0  0  0  0  0  0  0
   10.9418   -3.4032   21.2053 O   0  0  0  0  0  0  0  0  0  0  0  0
    1.4797   -8.6258   16.2950 C   0  0  0  0  0  0  0  0  0  0  0  0
    9.2861   -1.2743   25.3585 C   0  0  0  0  0  0  0  0  0  0  0  0
    1.8892  -10.3985   17.7511 N   0  0  0  0  0  0  0  0  0  0  0  0
    9.6210   -0.6952   24.0976 C   0  0  0  0  0  0  0  0  0  0  0  0
    7.0792   -9.0217   17.1429 C   0  0  0  0  0  0  0  0  0  0  0  0
    3.1713  -10.1816   17.6634 C   0  0  0  0  0  0  0  0  0  0  0  0
    2.7878   -8.3822   16.2137 C   0  0  0  0  0  0  0  0  0  0  0  0
    9.4601   -2.6590   25.6528 C   0  0  0  0  0  0  0  0  0  0  0  0
   10.1182   -1.5672   23.1165 C   0  0  0  0  0  0  0  0  0  0  0  0
    1.0552   -9.6360   17.0650 C   0  0  0  0  0  0  0  0  0  0  0  0
    3.6519   -9.1783   16.9039 C   0  0  0  0  0  0  0  0  0  0  0  0
    7.8675   -7.0096   15.9415 C   0  0  0  0  0  0  0  0  0  0  0  0
    5.9733   -9.6553   17.3832 N   0  0  0  0  0  0  0  0  0  0  0  0
   10.2411   -2.9363   23.4301 C   0  0  0  0  0  0  0  0  0  0  0  0
   10.7288   -3.8197   19.9525 C   0  0  0  0  0  0  0  0  0  0  0  0
   10.1189   -5.0054   19.6987 C   0  0  0  0  0  0  0  0  0  0  0  0
  1  3  4  0
  1  7  4  0
  2 21  4  0
  2 27  4  0
  3  9  4  0
  3 10  4  0
  4  8  4  0
  4 18  4  0
  4 25  1  0
  5  9  4  0
  5 12  4  0
  6 13  1  0
  6 27  1  0
  7 28  4  0
  8 11  4  0
  9 29  4  0
 10 12  4  0
 11 24  1  0
 11 26  4  0
 12 25  1  0
 13 28  1  0
 14 20  4  0
 14 23  4  0
 15 17  4  0
 15 21  4  0
 16 19  4  0
 16 23  4  0
 17 22  4  0
 18 26  4  0
 19 24  4  0
 20 24  4  0
 22 27  4  0
 28 29  4  0
M  END
$$$$

 Created by Python create_sdf_string function

 29 33  0  0  0  0  0  0  0  0999 V2000
   10.7215   -3.3326   17.6437 C   0  0  0  0  0  0  0  0  0  0  0  0
    9.9489   -3.4675   24.6487 N   0  0  0  0  0  0  0  0  0  0  0  0
   10.0172   -4.4740   17.4101 C   0  0  0  0  0  0  0  0  0  0  0  0
    6.9051   -7.9575   16.4222 C   0  0  0  0  0  0  0  0  0  0  0  0
    8.9969   -6.3552   17.9668 N   0  0  0  0  0  0  0  0  0  0  0  0
   10.6702   -3.9051   22.4070 C   0  0  0  0  0  0  0  0  0  0  0  0
   11.0625   -3.0028   18.8894 C   0  0  0  0  0  0  0  0  0  0  0  0
    5.6180   -7.9194   16.1754 O   0  0  0  0  0  0  0  0  0  0  0  0
    9.7259   -5.3080   18.4485 C   0  0  0  0  0  0  0  0  0  0  0  0
    9.4578   -5.0200   16.3036 N   0  0  0  0  0  0  0  0  0  0  0  0
    5.0287   -8.9365   16.8223 C   0  0  0  0  0  0  0  0  0  0  0  0
    8.7742   -6.1498   16.6764 C   0  0  0  0  0  0  0  0  0  0  0  0
   10.9418   -3.4032   21.2053 O   0  0  0  0  0  0  0  0  0  0  0  0
    1.4797   -8.6258   16.2950 C   0  0  0  0  0  0  0  0  0  0  0  0
    9.2861   -1.2743   25.3585 C   0  0  0  0  0  0  0  0  0  0  0  0
    1.8892  -10.3985   17.7511 N   0  0  0  0  0  0  0  0  0  0  0  0
    9.6210   -0.6952   24.0976 C   0  0  0  0  0  0  0  0  0  0  0  0
    7.0792   -9.0217   17.1429 C   0  0  0  0  0  0  0  0  0  0  0  0
    3.1713  -10.1816   17.6634 C   0  0  0  0  0  0  0  0  0  0  0  0
    2.7878   -8.3822   16.2137 C   0  0  0  0  0  0  0  0  0  0  0  0
    9.4601   -2.6590   25.6528 C   0  0  0  0  0  0  0  0  0  0  0  0
   10.1182   -1.5672   23.1165 C   0  0  0  0  0  0  0  0  0  0  0  0
    1.0552   -9.6360   17.0650 C   0  0  0  0  0  0  0  0  0  0  0  0
    3.6519   -9.1783   16.9039 C   0  0  0  0  0  0  0  0  0  0  0  0
    7.8675   -7.0096   15.9415 C   0  0  0  0  0  0  0  0  0  0  0  0
    5.9733   -9.6553   17.3832 N   0  0  0  0  0  0  0  0  0  0  0  0
   10.2411   -2.9363   23.4301 C   0  0  0  0  0  0  0  0  0  0  0  0
   10.7288   -3.8197   19.9525 C   0  0  0  0  0  0  0  0  0  0  0  0
   10.1189   -5.0054   19.6987 C   0  0  0  0  0  0  0  0  0  0  0  0
  1  3  4  0
  1  7  4  0
  2 21  4  0
  2 27  4  0
  3  9  4  0
  3 10  4  0
  4  8  4  0
  4 18  4  0
  4 25  1  0
  5  9  4  0
  5 12  4  0
  6 13  1  0
  6 27  1  0
  7 28  4  0
  8 11  4  0
  9 29  4  0
 10 12  4  0
 11 24  1  0
 11 26  4  0
 12 25  1  0
 13 28  1  0
 14 20  4  0
 14 23  4  0
 15 17  4  0
 15 21  4  0
 16 19  4  0
 16 23  4  0
 17 22  4  0
 18 26  4  0
 19 24  4  0
 20 24  4  0
 22 27  4  0
 28 29  4  0
M  END
$$$$

 Created by Python create_sdf_string function

 29 33  0  0  0  0  0  0  0  0999 V2000
   10.7215   -3.3326   17.6437 C   0  0  0  0  0  0  0  0  0  0  0  0
    9.9489   -3.4675   24.6487 N   0  0  0  0  0  0  0  0  0  0  0  0
   10.0172   -4.4740   17.4101 C   0  0  0  0  0  0  0  0  0  0  0  0
    6.9051   -7.9575   16.4222 C   0  0  0  0  0  0  0  0  0  0  0  0
    8.9969   -6.3552   17.9668 N   0  0  0  0  0  0  0  0  0  0  0  0
   10.6702   -3.9051   22.4070 C   0  0  0  0  0  0  0  0  0  0  0  0
   11.0625   -3.0028   18.8894 C   0  0  0  0  0  0  0  0  0  0  0  0
    5.6180   -7.9194   16.1754 O   0  0  0  0  0  0  0  0  0  0  0  0
    9.7259   -5.3080   18.4485 C   0  0  0  0  0  0  0  0  0  0  0  0
    9.4578   -5.0200   16.3036 N   0  0  0  0  0  0  0  0  0  0  0  0
    5.0287   -8.9365   16.8223 C   0  0  0  0  0  0  0  0  0  0  0  0
    8.7742   -6.1498   16.6764 C   0  0  0  0  0  0  0  0  0  0  0  0
   10.9418   -3.4032   21.2053 O   0  0  0  0  0  0  0  0  0  0  0  0
    1.4797   -8.6258   16.2950 C   0  0  0  0  0  0  0  0  0  0  0  0
    9.2861   -1.2743   25.3585 C   0  0  0  0  0  0  0  0  0  0  0  0
    1.8892  -10.3985   17.7511 N   0  0  0  0  0  0  0  0  0  0  0  0
    9.6210   -0.6952   24.0976 C   0  0  0  0  0  0  0  0  0  0  0  0
    7.0792   -9.0217   17.1429 C   0  0  0  0  0  0  0  0  0  0  0  0
    3.1713  -10.1816   17.6634 C   0  0  0  0  0  0  0  0  0  0  0  0
    2.7878   -8.3822   16.2137 C   0  0  0  0  0  0  0  0  0  0  0  0
    9.4601   -2.6590   25.6528 C   0  0  0  0  0  0  0  0  0  0  0  0
   10.1182   -1.5672   23.1165 C   0  0  0  0  0  0  0  0  0  0  0  0
    1.0552   -9.6360   17.0650 C   0  0  0  0  0  0  0  0  0  0  0  0
    3.6519   -9.1783   16.9039 C   0  0  0  0  0  0  0  0  0  0  0  0
    7.8675   -7.0096   15.9415 C   0  0  0  0  0  0  0  0  0  0  0  0
    5.9733   -9.6553   17.3832 N   0  0  0  0  0  0  0  0  0  0  0  0
   10.2411   -2.9363   23.4301 C   0  0  0  0  0  0  0  0  0  0  0  0
   10.7288   -3.8197   19.9525 C   0  0  0  0  0  0  0  0  0  0  0  0
   10.1189   -5.0054   19.6987 C   0  0  0  0  0  0  0  0  0  0  0  0
  1  3  4  0
  1  7  4  0
  2 21  4  0
  2 27  4  0
  3  9  4  0
  3 10  4  0
  4  8  4  0
  4 18  4  0
  4 25  1  0
  5  9  4  0
  5 12  4  0
  6 13  1  0
  6 27  1  0
  7 28  4  0
  8 11  4  0
  9 29  4  0
 10 12  4  0
 11 24  1  0
 11 26  4  0
 12 25  1  0
 13 28  1  0
 14 20  4  0
 14 23  4  0
 15 17  4  0
 15 21  4  0
 16 19  4  0
 16 23  4  0
 17 22  4  0
 18 26  4  0
 19 24  4  0
 20 24  4  0
 22 27  4  0
 28 29  4  0
M  END
$$$$

 Created by Python create_sdf_string function

 29 33  0  0  0  0  0  0  0  0999 V2000
   10.7215   -3.3326   17.6437 C   0  0  0  0  0  0  0  0  0  0  0  0
    9.9489   -3.4675   24.6487 N   0  0  0  0  0  0  0  0  0  0  0  0
   10.0172   -4.4740   17.4101 C   0  0  0  0  0  0  0  0  0  0  0  0
    6.9051   -7.9575   16.4222 C   0  0  0  0  0  0  0  0  0  0  0  0
    8.9969   -6.3552   17.9668 N   0  0  0  0  0  0  0  0  0  0  0  0
   10.6702   -3.9051   22.4070 C   0  0  0  0  0  0  0  0  0  0  0  0
   11.0625   -3.0028   18.8894 C   0  0  0  0  0  0  0  0  0  0  0  0
    5.6180   -7.9194   16.1754 O   0  0  0  0  0  0  0  0  0  0  0  0
    9.7259   -5.3080   18.4485 C   0  0  0  0  0  0  0  0  0  0  0  0
    9.4578   -5.0200   16.3036 N   0  0  0  0  0  0  0  0  0  0  0  0
    5.0287   -8.9365   16.8223 C   0  0  0  0  0  0  0  0  0  0  0  0
    8.7742   -6.1498   16.6764 C   0  0  0  0  0  0  0  0  0  0  0  0
   10.9418   -3.4032   21.2053 O   0  0  0  0  0  0  0  0  0  0  0  0
    1.4797   -8.6258   16.2950 C   0  0  0  0  0  0  0  0  0  0  0  0
    9.2861   -1.2743   25.3585 C   0  0  0  0  0  0  0  0  0  0  0  0
    1.8892  -10.3985   17.7511 N   0  0  0  0  0  0  0  0  0  0  0  0
    9.6210   -0.6952   24.0976 C   0  0  0  0  0  0  0  0  0  0  0  0
    7.0792   -9.0217   17.1429 C   0  0  0  0  0  0  0  0  0  0  0  0
    3.1713  -10.1816   17.6634 C   0  0  0  0  0  0  0  0  0  0  0  0
    2.7878   -8.3822   16.2137 C   0  0  0  0  0  0  0  0  0  0  0  0
    9.4601   -2.6590   25.6528 C   0  0  0  0  0  0  0  0  0  0  0  0
   10.1182   -1.5672   23.1165 C   0  0  0  0  0  0  0  0  0  0  0  0
    1.0552   -9.6360   17.0650 C   0  0  0  0  0  0  0  0  0  0  0  0
    3.6519   -9.1783   16.9039 C   0  0  0  0  0  0  0  0  0  0  0  0
    7.8675   -7.0096   15.9415 C   0  0  0  0  0  0  0  0  0  0  0  0
    5.9733   -9.6553   17.3832 N   0  0  0  0  0  0  0  0  0  0  0  0
   10.2411   -2.9363   23.4301 C   0  0  0  0  0  0  0  0  0  0  0  0
   10.7288   -3.8197   19.9525 C   0  0  0  0  0  0  0  0  0  0  0  0
   10.1189   -5.0054   19.6987 C   0  0  0  0  0  0  0  0  0  0  0  0
  1  3  4  0
  1  7  4  0
  2 21  4  0
  2 27  4  0
  3  9  4  0
  3 10  4  0
  4  8  4  0
  4 18  4  0
  4 25  1  0
  5  9  4  0
  5 12  4  0
  6 13  1  0
  6 27  1  0
  7 28  4  0
  8 11  4  0
  9 29  4  0
 10 12  4  0
 11 24  1  0
 11 26  4  0
 12 25  1  0
 13 28  1  0
 14 20  4  0
 14 23  4  0
 15 17  4  0
 15 21  4  0
 16 19  4  0
 16 23  4  0
 17 22  4  0
 18 26  4  0
 19 24  4  0
 20 24  4  0
 22 27  4  0
 28 29  4  0
M  END
$$$$

 Created by Python create_sdf_string function

 29 33  0  0  0  0  0  0  0  0999 V2000
   10.7215   -3.3326   17.6437 C   0  0  0  0  0  0  0  0  0  0  0  0
    9.9489   -3.4675   24.6487 N   0  0  0  0  0  0  0  0  0  0  0  0
   10.0172   -4.4740   17.4101 C   0  0  0  0  0  0  0  0  0  0  0  0
    6.9051   -7.9575   16.4222 C   0  0  0  0  0  0  0  0  0  0  0  0
    8.9969   -6.3552   17.9668 N   0  0  0  0  0  0  0  0  0  0  0  0
   10.6702   -3.9051   22.4070 C   0  0  0  0  0  0  0  0  0  0  0  0
   11.0625   -3.0028   18.8894 C   0  0  0  0  0  0  0  0  0  0  0  0
    5.6180   -7.9194   16.1754 O   0  0  0  0  0  0  0  0  0  0  0  0
    9.7259   -5.3080   18.4485 C   0  0  0  0  0  0  0  0  0  0  0  0
    9.4578   -5.0200   16.3036 N   0  0  0  0  0  0  0  0  0  0  0  0
    5.0287   -8.9365   16.8223 C   0  0  0  0  0  0  0  0  0  0  0  0
    8.7742   -6.1498   16.6764 C   0  0  0  0  0  0  0  0  0  0  0  0
   10.9418   -3.4032   21.2053 O   0  0  0  0  0  0  0  0  0  0  0  0
    1.4797   -8.6258   16.2950 C   0  0  0  0  0  0  0  0  0  0  0  0
    9.2861   -1.2743   25.3585 C   0  0  0  0  0  0  0  0  0  0  0  0
    1.8892  -10.3985   17.7511 N   0  0  0  0  0  0  0  0  0  0  0  0
    9.6210   -0.6952   24.0976 C   0  0  0  0  0  0  0  0  0  0  0  0
    7.0792   -9.0217   17.1429 C   0  0  0  0  0  0  0  0  0  0  0  0
    3.1713  -10.1816   17.6634 C   0  0  0  0  0  0  0  0  0  0  0  0
    2.7878   -8.3822   16.2137 C   0  0  0  0  0  0  0  0  0  0  0  0
    9.4601   -2.6590   25.6528 C   0  0  0  0  0  0  0  0  0  0  0  0
   10.1182   -1.5672   23.1165 C   0  0  0  0  0  0  0  0  0  0  0  0
    1.0552   -9.6360   17.0650 C   0  0  0  0  0  0  0  0  0  0  0  0
    3.6519   -9.1783   16.9039 C   0  0  0  0  0  0  0  0  0  0  0  0
    7.8675   -7.0096   15.9415 C   0  0  0  0  0  0  0  0  0  0  0  0
    5.9733   -9.6553   17.3832 N   0  0  0  0  0  0  0  0  0  0  0  0
   10.2411   -2.9363   23.4301 C   0  0  0  0  0  0  0  0  0  0  0  0
   10.7288   -3.8197   19.9525 C   0  0  0  0  0  0  0  0  0  0  0  0
   10.1189   -5.0054   19.6987 C   0  0  0  0  0  0  0  0  0  0  0  0
  1  3  4  0
  1  7  4  0
  2 21  4  0
  2 27  4  0
  3  9  4  0
  3 10  4  0
  4  8  4  0
  4 18  4  0
  4 25  1  0
  5  9  4  0
  5 12  4  0
  6 13  1  0
  6 27  1  0
  7 28  4  0
  8 11  4  0
  9 29  4  0
 10 12  4  0
 11 24  1  0
 11 26  4  0
 12 25  1  0
 13 28  1  0
 14 20  4  0
 14 23  4  0
 15 17  4  0
 15 21  4  0
 16 19  4  0
 16 23  4  0
 17 22  4  0
 18 26  4  0
 19 24  4  0
 20 24  4  0
 22 27  4  0
 28 29  4  0
M  END
$$$$

 Created by Python create_sdf_string function

 29 33  0  0  0  0  0  0  0  0999 V2000
   10.7215   -3.3326   17.6437 C   0  0  0  0  0  0  0  0  0  0  0  0
    9.9489   -3.4675   24.6487 N   0  0  0  0  0  0  0  0  0  0  0  0
   10.0172   -4.4740   17.4101 C   0  0  0  0  0  0  0  0  0  0  0  0
    6.9051   -7.9575   16.4222 C   0  0  0  0  0  0  0  0  0  0  0  0
    8.9969   -6.3552   17.9668 N   0  0  0  0  0  0  0  0  0  0  0  0
   10.6702   -3.9051   22.4070 C   0  0  0  0  0  0  0  0  0  0  0  0
   11.0625   -3.0028   18.8894 C   0  0  0  0  0  0  0  0  0  0  0  0
    5.6180   -7.9194   16.1754 O   0  0  0  0  0  0  0  0  0  0  0  0
    9.7259   -5.3080   18.4485 C   0  0  0  0  0  0  0  0  0  0  0  0
    9.4578   -5.0200   16.3036 N   0  0  0  0  0  0  0  0  0  0  0  0
    5.0287   -8.9365   16.8223 C   0  0  0  0  0  0  0  0  0  0  0  0
    8.7742   -6.1498   16.6764 C   0  0  0  0  0  0  0  0  0  0  0  0
   10.9418   -3.4032   21.2053 O   0  0  0  0  0  0  0  0  0  0  0  0
    1.4797   -8.6258   16.2950 C   0  0  0  0  0  0  0  0  0  0  0  0
    9.2861   -1.2743   25.3585 C   0  0  0  0  0  0  0  0  0  0  0  0
    1.8892  -10.3985   17.7511 N   0  0  0  0  0  0  0  0  0  0  0  0
    9.6210   -0.6952   24.0976 C   0  0  0  0  0  0  0  0  0  0  0  0
    7.0792   -9.0217   17.1429 C   0  0  0  0  0  0  0  0  0  0  0  0
    3.1713  -10.1816   17.6634 C   0  0  0  0  0  0  0  0  0  0  0  0
    2.7878   -8.3822   16.2137 C   0  0  0  0  0  0  0  0  0  0  0  0
    9.4601   -2.6590   25.6528 C   0  0  0  0  0  0  0  0  0  0  0  0
   10.1182   -1.5672   23.1165 C   0  0  0  0  0  0  0  0  0  0  0  0
    1.0552   -9.6360   17.0650 C   0  0  0  0  0  0  0  0  0  0  0  0
    3.6519   -9.1783   16.9039 C   0  0  0  0  0  0  0  0  0  0  0  0
    7.8675   -7.0096   15.9415 C   0  0  0  0  0  0  0  0  0  0  0  0
    5.9733   -9.6553   17.3832 N   0  0  0  0  0  0  0  0  0  0  0  0
   10.2411   -2.9363   23.4301 C   0  0  0  0  0  0  0  0  0  0  0  0
   10.7288   -3.8197   19.9525 C   0  0  0  0  0  0  0  0  0  0  0  0
   10.1189   -5.0054   19.6987 C   0  0  0  0  0  0  0  0  0  0  0  0
  1  3  4  0
  1  7  4  0
  2 21  4  0
  2 27  4  0
  3  9  4  0
  3 10  4  0
  4  8  4  0
  4 18  4  0
  4 25  1  0
  5  9  4  0
  5 12  4  0
  6 13  1  0
  6 27  1  0
  7 28  4  0
  8 11  4  0
  9 29  4  0
 10 12  4  0
 11 24  1  0
 11 26  4  0
 12 25  1  0
 13 28  1  0
 14 20  4  0
 14 23  4  0
 15 17  4  0
 15 21  4  0
 16 19  4  0
 16 23  4  0
 17 22  4  0
 18 26  4  0
 19 24  4  0
 20 24  4  0
 22 27  4  0
 28 29  4  0
M  END
$$$$

 Created by Python create_sdf_string function

 29 33  0  0  0  0  0  0  0  0999 V2000
   10.7215   -3.3326   17.6437 C   0  0  0  0  0  0  0  0  0  0  0  0
    9.9489   -3.4675   24.6487 N   0  0  0  0  0  0  0  0  0  0  0  0
   10.0172   -4.4740   17.4101 C   0  0  0  0  0  0  0  0  0  0  0  0
    6.9051   -7.9575   16.4222 C   0  0  0  0  0  0  0  0  0  0  0  0
    8.9969   -6.3552   17.9668 N   0  0  0  0  0  0  0  0  0  0  0  0
   10.6702   -3.9051   22.4070 C   0  0  0  0  0  0  0  0  0  0  0  0
   11.0625   -3.0028   18.8894 C   0  0  0  0  0  0  0  0  0  0  0  0
    5.6180   -7.9194   16.1754 O   0  0  0  0  0  0  0  0  0  0  0  0
    9.7259   -5.3080   18.4485 C   0  0  0  0  0  0  0  0  0  0  0  0
    9.4578   -5.0200   16.3036 N   0  0  0  0  0  0  0  0  0  0  0  0
    5.0287   -8.9365   16.8223 C   0  0  0  0  0  0  0  0  0  0  0  0
    8.7742   -6.1498   16.6764 C   0  0  0  0  0  0  0  0  0  0  0  0
   10.9418   -3.4032   21.2053 O   0  0  0  0  0  0  0  0  0  0  0  0
    1.4797   -8.6258   16.2950 C   0  0  0  0  0  0  0  0  0  0  0  0
    9.2861   -1.2743   25.3585 C   0  0  0  0  0  0  0  0  0  0  0  0
    1.8892  -10.3985   17.7511 N   0  0  0  0  0  0  0  0  0  0  0  0
    9.6210   -0.6952   24.0976 C   0  0  0  0  0  0  0  0  0  0  0  0
    7.0792   -9.0217   17.1429 C   0  0  0  0  0  0  0  0  0  0  0  0
    3.1713  -10.1816   17.6634 C   0  0  0  0  0  0  0  0  0  0  0  0
    2.7878   -8.3822   16.2137 C   0  0  0  0  0  0  0  0  0  0  0  0
    9.4601   -2.6590   25.6528 C   0  0  0  0  0  0  0  0  0  0  0  0
   10.1182   -1.5672   23.1165 C   0  0  0  0  0  0  0  0  0  0  0  0
    1.0552   -9.6360   17.0650 C   0  0  0  0  0  0  0  0  0  0  0  0
    3.6519   -9.1783   16.9039 C   0  0  0  0  0  0  0  0  0  0  0  0
    7.8675   -7.0096   15.9415 C   0  0  0  0  0  0  0  0  0  0  0  0
    5.9733   -9.6553   17.3832 N   0  0  0  0  0  0  0  0  0  0  0  0
   10.2411   -2.9363   23.4301 C   0  0  0  0  0  0  0  0  0  0  0  0
   10.7288   -3.8197   19.9525 C   0  0  0  0  0  0  0  0  0  0  0  0
   10.1189   -5.0054   19.6987 C   0  0  0  0  0  0  0  0  0  0  0  0
  1  3  4  0
  1  7  4  0
  2 21  4  0
  2 27  4  0
  3  9  4  0
  3 10  4  0
  4  8  4  0
  4 18  4  0
  4 25  1  0
  5  9  4  0
  5 12  4  0
  6 13  1  0
  6 27  1  0
  7 28  4  0
  8 11  4  0
  9 29  4  0
 10 12  4  0
 11 24  1  0
 11 26  4  0
 12 25  1  0
 13 28  1  0
 14 20  4  0
 14 23  4  0
 15 17  4  0
 15 21  4  0
 16 19  4  0
 16 23  4  0
 17 22  4  0
 18 26  4  0
 19 24  4  0
 20 24  4  0
 22 27  4  0
 28 29  4  0
M  END
$$$$

 Created by Python create_sdf_string function

 29 33  0  0  0  0  0  0  0  0999 V2000
   10.7215   -3.3326   17.6437 C   0  0  0  0  0  0  0  0  0  0  0  0
    9.9489   -3.4675   24.6487 N   0  0  0  0  0  0  0  0  0  0  0  0
   10.0172   -4.4740   17.4101 C   0  0  0  0  0  0  0  0  0  0  0  0
    6.9051   -7.9575   16.4222 C   0  0  0  0  0  0  0  0  0  0  0  0
    8.9969   -6.3552   17.9668 N   0  0  0  0  0  0  0  0  0  0  0  0
   10.6702   -3.9051   22.4070 C   0  0  0  0  0  0  0  0  0  0  0  0
   11.0625   -3.0028   18.8894 C   0  0  0  0  0  0  0  0  0  0  0  0
    5.6180   -7.9194   16.1754 O   0  0  0  0  0  0  0  0  0  0  0  0
    9.7259   -5.3080   18.4485 C   0  0  0  0  0  0  0  0  0  0  0  0
    9.4578   -5.0200   16.3036 N   0  0  0  0  0  0  0  0  0  0  0  0
    5.0287   -8.9365   16.8223 C   0  0  0  0  0  0  0  0  0  0  0  0
    8.7742   -6.1498   16.6764 C   0  0  0  0  0  0  0  0  0  0  0  0
   10.9418   -3.4032   21.2053 O   0  0  0  0  0  0  0  0  0  0  0  0
    1.4797   -8.6258   16.2950 C   0  0  0  0  0  0  0  0  0  0  0  0
    9.2861   -1.2743   25.3585 C   0  0  0  0  0  0  0  0  0  0  0  0
    1.8892  -10.3985   17.7511 N   0  0  0  0  0  0  0  0  0  0  0  0
    9.6210   -0.6952   24.0976 C   0  0  0  0  0  0  0  0  0  0  0  0
    7.0792   -9.0217   17.1429 C   0  0  0  0  0  0  0  0  0  0  0  0
    3.1713  -10.1816   17.6634 C   0  0  0  0  0  0  0  0  0  0  0  0
    2.7878   -8.3822   16.2137 C   0  0  0  0  0  0  0  0  0  0  0  0
    9.4601   -2.6590   25.6528 C   0  0  0  0  0  0  0  0  0  0  0  0
   10.1182   -1.5672   23.1165 C   0  0  0  0  0  0  0  0  0  0  0  0
    1.0552   -9.6360   17.0650 C   0  0  0  0  0  0  0  0  0  0  0  0
    3.6519   -9.1783   16.9039 C   0  0  0  0  0  0  0  0  0  0  0  0
    7.8675   -7.0096   15.9415 C   0  0  0  0  0  0  0  0  0  0  0  0
    5.9733   -9.6553   17.3832 N   0  0  0  0  0  0  0  0  0  0  0  0
   10.2411   -2.9363   23.4301 C   0  0  0  0  0  0  0  0  0  0  0  0
   10.7288   -3.8197   19.9525 C   0  0  0  0  0  0  0  0  0  0  0  0
   10.1189   -5.0054   19.6987 C   0  0  0  0  0  0  0  0  0  0  0  0
  1  3  4  0
  1  7  4  0
  2 21  4  0
  2 27  4  0
  3  9  4  0
  3 10  4  0
  4  8  4  0
  4 18  4  0
  4 25  1  0
  5  9  4  0
  5 12  4  0
  6 13  1  0
  6 27  1  0
  7 28  4  0
  8 11  4  0
  9 29  4  0
 10 12  4  0
 11 24  1  0
 11 26  4  0
 12 25  1  0
 13 28  1  0
 14 20  4  0
 14 23  4  0
 15 17  4  0
 15 21  4  0
 16 19  4  0
 16 23  4  0
 17 22  4  0
 18 26  4  0
 19 24  4  0
 20 24  4  0
 22 27  4  0
 28 29  4  0
M  END
$$$$

 Created by Python create_sdf_string function

 29 33  0  0  0  0  0  0  0  0999 V2000
   10.7215   -3.3326   17.6437 C   0  0  0  0  0  0  0  0  0  0  0  0
    9.9489   -3.4675   24.6487 N   0  0  0  0  0  0  0  0  0  0  0  0
   10.0172   -4.4740   17.4101 C   0  0  0  0  0  0  0  0  0  0  0  0
    6.9051   -7.9575   16.4222 C   0  0  0  0  0  0  0  0  0  0  0  0
    8.9969   -6.3552   17.9668 N   0  0  0  0  0  0  0  0  0  0  0  0
   10.6702   -3.9051   22.4070 C   0  0  0  0  0  0  0  0  0  0  0  0
   11.0625   -3.0028   18.8894 C   0  0  0  0  0  0  0  0  0  0  0  0
    5.6180   -7.9194   16.1754 O   0  0  0  0  0  0  0  0  0  0  0  0
    9.7259   -5.3080   18.4485 C   0  0  0  0  0  0  0  0  0  0  0  0
    9.4578   -5.0200   16.3036 N   0  0  0  0  0  0  0  0  0  0  0  0
    5.0287   -8.9365   16.8223 C   0  0  0  0  0  0  0  0  0  0  0  0
    8.7742   -6.1498   16.6764 C   0  0  0  0  0  0  0  0  0  0  0  0
   10.9418   -3.4032   21.2053 O   0  0  0  0  0  0  0  0  0  0  0  0
    1.4797   -8.6258   16.2950 C   0  0  0  0  0  0  0  0  0  0  0  0
    9.2861   -1.2743   25.3585 C   0  0  0  0  0  0  0  0  0  0  0  0
    1.8892  -10.3985   17.7511 N   0  0  0  0  0  0  0  0  0  0  0  0
    9.6210   -0.6952   24.0976 C   0  0  0  0  0  0  0  0  0  0  0  0
    7.0792   -9.0217   17.1429 C   0  0  0  0  0  0  0  0  0  0  0  0
    3.1713  -10.1816   17.6634 C   0  0  0  0  0  0  0  0  0  0  0  0
    2.7878   -8.3822   16.2137 C   0  0  0  0  0  0  0  0  0  0  0  0
    9.4601   -2.6590   25.6528 C   0  0  0  0  0  0  0  0  0  0  0  0
   10.1182   -1.5672   23.1165 C   0  0  0  0  0  0  0  0  0  0  0  0
    1.0552   -9.6360   17.0650 C   0  0  0  0  0  0  0  0  0  0  0  0
    3.6519   -9.1783   16.9039 C   0  0  0  0  0  0  0  0  0  0  0  0
    7.8675   -7.0096   15.9415 C   0  0  0  0  0  0  0  0  0  0  0  0
    5.9733   -9.6553   17.3832 N   0  0  0  0  0  0  0  0  0  0  0  0
   10.2411   -2.9363   23.4301 C   0  0  0  0  0  0  0  0  0  0  0  0
   10.7288   -3.8197   19.9525 C   0  0  0  0  0  0  0  0  0  0  0  0
   10.1189   -5.0054   19.6987 C   0  0  0  0  0  0  0  0  0  0  0  0
  1  3  4  0
  1  7  4  0
  2 21  4  0
  2 27  4  0
  3  9  4  0
  3 10  4  0
  4  8  4  0
  4 18  4  0
  4 25  1  0
  5  9  4  0
  5 12  4  0
  6 13  1  0
  6 27  1  0
  7 28  4  0
  8 11  4  0
  9 29  4  0
 10 12  4  0
 11 24  1  0
 11 26  4  0
 12 25  1  0
 13 28  1  0
 14 20  4  0
 14 23  4  0
 15 17  4  0
 15 21  4  0
 16 19  4  0
 16 23  4  0
 17 22  4  0
 18 26  4  0
 19 24  4  0
 20 24  4  0
 22 27  4  0
 28 29  4  0
M  END
$$$$

 Created by Python create_sdf_string function

 29 33  0  0  0  0  0  0  0  0999 V2000
   10.7215   -3.3326   17.6437 C   0  0  0  0  0  0  0  0  0  0  0  0
    9.9489   -3.4675   24.6487 N   0  0  0  0  0  0  0  0  0  0  0  0
   10.0172   -4.4740   17.4101 C   0  0  0  0  0  0  0  0  0  0  0  0
    6.9051   -7.9575   16.4222 C   0  0  0  0  0  0  0  0  0  0  0  0
    8.9969   -6.3552   17.9668 N   0  0  0  0  0  0  0  0  0  0  0  0
   10.6702   -3.9051   22.4070 C   0  0  0  0  0  0  0  0  0  0  0  0
   11.0625   -3.0028   18.8894 C   0  0  0  0  0  0  0  0  0  0  0  0
    5.6180   -7.9194   16.1754 O   0  0  0  0  0  0  0  0  0  0  0  0
    9.7259   -5.3080   18.4485 C   0  0  0  0  0  0  0  0  0  0  0  0
    9.4578   -5.0200   16.3036 N   0  0  0  0  0  0  0  0  0  0  0  0
    5.0287   -8.9365   16.8223 C   0  0  0  0  0  0  0  0  0  0  0  0
    8.7742   -6.1498   16.6764 C   0  0  0  0  0  0  0  0  0  0  0  0
   10.9418   -3.4032   21.2053 O   0  0  0  0  0  0  0  0  0  0  0  0
    1.4797   -8.6258   16.2950 C   0  0  0  0  0  0  0  0  0  0  0  0
    9.2861   -1.2743   25.3585 C   0  0  0  0  0  0  0  0  0  0  0  0
    1.8892  -10.3985   17.7511 N   0  0  0  0  0  0  0  0  0  0  0  0
    9.6210   -0.6952   24.0976 C   0  0  0  0  0  0  0  0  0  0  0  0
    7.0792   -9.0217   17.1429 C   0  0  0  0  0  0  0  0  0  0  0  0
    3.1713  -10.1816   17.6634 C   0  0  0  0  0  0  0  0  0  0  0  0
    2.7878   -8.3822   16.2137 C   0  0  0  0  0  0  0  0  0  0  0  0
    9.4601   -2.6590   25.6528 C   0  0  0  0  0  0  0  0  0  0  0  0
   10.1182   -1.5672   23.1165 C   0  0  0  0  0  0  0  0  0  0  0  0
    1.0552   -9.6360   17.0650 C   0  0  0  0  0  0  0  0  0  0  0  0
    3.6519   -9.1783   16.9039 C   0  0  0  0  0  0  0  0  0  0  0  0
    7.8675   -7.0096   15.9415 C   0  0  0  0  0  0  0  0  0  0  0  0
    5.9733   -9.6553   17.3832 N   0  0  0  0  0  0  0  0  0  0  0  0
   10.2411   -2.9363   23.4301 C   0  0  0  0  0  0  0  0  0  0  0  0
   10.7288   -3.8197   19.9525 C   0  0  0  0  0  0  0  0  0  0  0  0
   10.1189   -5.0054   19.6987 C   0  0  0  0  0  0  0  0  0  0  0  0
  1  3  4  0
  1  7  4  0
  2 21  4  0
  2 27  4  0
  3  9  4  0
  3 10  4  0
  4  8  4  0
  4 18  4  0
  4 25  1  0
  5  9  4  0
  5 12  4  0
  6 13  1  0
  6 27  1  0
  7 28  4  0
  8 11  4  0
  9 29  4  0
 10 12  4  0
 11 24  1  0
 11 26  4  0
 12 25  1  0
 13 28  1  0
 14 20  4  0
 14 23  4  0
 15 17  4  0
 15 21  4  0
 16 19  4  0
 16 23  4  0
 17 22  4  0
 18 26  4  0
 19 24  4  0
 20 24  4  0
 22 27  4  0
 28 29  4  0
M  END
$$$$

 Created by Python create_sdf_string function

 29 33  0  0  0  0  0  0  0  0999 V2000
   10.7215   -3.3326   17.6437 C   0  0  0  0  0  0  0  0  0  0  0  0
    9.9489   -3.4675   24.6487 N   0  0  0  0  0  0  0  0  0  0  0  0
   10.0172   -4.4740   17.4101 C   0  0  0  0  0  0  0  0  0  0  0  0
    6.9051   -7.9575   16.4222 C   0  0  0  0  0  0  0  0  0  0  0  0
    8.9969   -6.3552   17.9668 N   0  0  0  0  0  0  0  0  0  0  0  0
   10.6702   -3.9051   22.4070 C   0  0  0  0  0  0  0  0  0  0  0  0
   11.0625   -3.0028   18.8894 C   0  0  0  0  0  0  0  0  0  0  0  0
    5.6180   -7.9194   16.1754 O   0  0  0  0  0  0  0  0  0  0  0  0
    9.7259   -5.3080   18.4485 C   0  0  0  0  0  0  0  0  0  0  0  0
    9.4578   -5.0200   16.3036 N   0  0  0  0  0  0  0  0  0  0  0  0
    5.0287   -8.9365   16.8223 C   0  0  0  0  0  0  0  0  0  0  0  0
    8.7742   -6.1498   16.6764 C   0  0  0  0  0  0  0  0  0  0  0  0
   10.9418   -3.4032   21.2053 O   0  0  0  0  0  0  0  0  0  0  0  0
    1.4797   -8.6258   16.2950 C   0  0  0  0  0  0  0  0  0  0  0  0
    9.2861   -1.2743   25.3585 C   0  0  0  0  0  0  0  0  0  0  0  0
    1.8892  -10.3985   17.7511 N   0  0  0  0  0  0  0  0  0  0  0  0
    9.6210   -0.6952   24.0976 C   0  0  0  0  0  0  0  0  0  0  0  0
    7.0792   -9.0217   17.1429 C   0  0  0  0  0  0  0  0  0  0  0  0
    3.1713  -10.1816   17.6634 C   0  0  0  0  0  0  0  0  0  0  0  0
    2.7878   -8.3822   16.2137 C   0  0  0  0  0  0  0  0  0  0  0  0
    9.4601   -2.6590   25.6528 C   0  0  0  0  0  0  0  0  0  0  0  0
   10.1182   -1.5672   23.1165 C   0  0  0  0  0  0  0  0  0  0  0  0
    1.0552   -9.6360   17.0650 C   0  0  0  0  0  0  0  0  0  0  0  0
    3.6519   -9.1783   16.9039 C   0  0  0  0  0  0  0  0  0  0  0  0
    7.8675   -7.0096   15.9415 C   0  0  0  0  0  0  0  0  0  0  0  0
    5.9733   -9.6553   17.3832 N   0  0  0  0  0  0  0  0  0  0  0  0
   10.2411   -2.9363   23.4301 C   0  0  0  0  0  0  0  0  0  0  0  0
   10.7288   -3.8197   19.9525 C   0  0  0  0  0  0  0  0  0  0  0  0
   10.1189   -5.0054   19.6987 C   0  0  0  0  0  0  0  0  0  0  0  0
  1  3  4  0
  1  7  4  0
  2 21  4  0
  2 27  4  0
  3  9  4  0
  3 10  4  0
  4  8  4  0
  4 18  4  0
  4 25  1  0
  5  9  4  0
  5 12  4  0
  6 13  1  0
  6 27  1  0
  7 28  4  0
  8 11  4  0
  9 29  4  0
 10 12  4  0
 11 24  1  0
 11 26  4  0
 12 25  1  0
 13 28  1  0
 14 20  4  0
 14 23  4  0
 15 17  4  0
 15 21  4  0
 16 19  4  0
 16 23  4  0
 17 22  4  0
 18 26  4  0
 19 24  4  0
 20 24  4  0
 22 27  4  0
 28 29  4  0
M  END
$$$$

 Created by Python create_sdf_string function

 29 33  0  0  0  0  0  0  0  0999 V2000
   10.7215   -3.3326   17.6437 C   0  0  0  0  0  0  0  0  0  0  0  0
    9.9489   -3.4675   24.6487 N   0  0  0  0  0  0  0  0  0  0  0  0
   10.0172   -4.4740   17.4101 C   0  0  0  0  0  0  0  0  0  0  0  0
    6.9051   -7.9575   16.4222 C   0  0  0  0  0  0  0  0  0  0  0  0
    8.9969   -6.3552   17.9668 N   0  0  0  0  0  0  0  0  0  0  0  0
   10.6702   -3.9051   22.4070 C   0  0  0  0  0  0  0  0  0  0  0  0
   11.0625   -3.0028   18.8894 C   0  0  0  0  0  0  0  0  0  0  0  0
    5.6180   -7.9194   16.1754 O   0  0  0  0  0  0  0  0  0  0  0  0
    9.7259   -5.3080   18.4485 C   0  0  0  0  0  0  0  0  0  0  0  0
    9.4578   -5.0200   16.3036 N   0  0  0  0  0  0  0  0  0  0  0  0
    5.0287   -8.9365   16.8223 C   0  0  0  0  0  0  0  0  0  0  0  0
    8.7742   -6.1498   16.6764 C   0  0  0  0  0  0  0  0  0  0  0  0
   10.9418   -3.4032   21.2053 O   0  0  0  0  0  0  0  0  0  0  0  0
    1.4797   -8.6258   16.2950 C   0  0  0  0  0  0  0  0  0  0  0  0
    9.2861   -1.2743   25.3585 C   0  0  0  0  0  0  0  0  0  0  0  0
    1.8892  -10.3985   17.7511 N   0  0  0  0  0  0  0  0  0  0  0  0
    9.6210   -0.6952   24.0976 C   0  0  0  0  0  0  0  0  0  0  0  0
    7.0792   -9.0217   17.1429 C   0  0  0  0  0  0  0  0  0  0  0  0
    3.1713  -10.1816   17.6634 C   0  0  0  0  0  0  0  0  0  0  0  0
    2.7878   -8.3822   16.2137 C   0  0  0  0  0  0  0  0  0  0  0  0
    9.4601   -2.6590   25.6528 C   0  0  0  0  0  0  0  0  0  0  0  0
   10.1182   -1.5672   23.1165 C   0  0  0  0  0  0  0  0  0  0  0  0
    1.0552   -9.6360   17.0650 C   0  0  0  0  0  0  0  0  0  0  0  0
    3.6519   -9.1783   16.9039 C   0  0  0  0  0  0  0  0  0  0  0  0
    7.8675   -7.0096   15.9415 C   0  0  0  0  0  0  0  0  0  0  0  0
    5.9733   -9.6553   17.3832 N   0  0  0  0  0  0  0  0  0  0  0  0
   10.2411   -2.9363   23.4301 C   0  0  0  0  0  0  0  0  0  0  0  0
   10.7288   -3.8197   19.9525 C   0  0  0  0  0  0  0  0  0  0  0  0
   10.1189   -5.0054   19.6987 C   0  0  0  0  0  0  0  0  0  0  0  0
  1  3  4  0
  1  7  4  0
  2 21  4  0
  2 27  4  0
  3  9  4  0
  3 10  4  0
  4  8  4  0
  4 18  4  0
  4 25  1  0
  5  9  4  0
  5 12  4  0
  6 13  1  0
  6 27  1  0
  7 28  4  0
  8 11  4  0
  9 29  4  0
 10 12  4  0
 11 24  1  0
 11 26  4  0
 12 25  1  0
 13 28  1  0
 14 20  4  0
 14 23  4  0
 15 17  4  0
 15 21  4  0
 16 19  4  0
 16 23  4  0
 17 22  4  0
 18 26  4  0
 19 24  4  0
 20 24  4  0
 22 27  4  0
 28 29  4  0
M  END
$$$$

 Created by Python create_sdf_string function

 29 33  0  0  0  0  0  0  0  0999 V2000
   10.7215   -3.3326   17.6437 C   0  0  0  0  0  0  0  0  0  0  0  0
    9.9489   -3.4675   24.6487 N   0  0  0  0  0  0  0  0  0  0  0  0
   10.0172   -4.4740   17.4101 C   0  0  0  0  0  0  0  0  0  0  0  0
    6.9051   -7.9575   16.4222 C   0  0  0  0  0  0  0  0  0  0  0  0
    8.9969   -6.3552   17.9668 N   0  0  0  0  0  0  0  0  0  0  0  0
   10.6702   -3.9051   22.4070 C   0  0  0  0  0  0  0  0  0  0  0  0
   11.0625   -3.0028   18.8894 C   0  0  0  0  0  0  0  0  0  0  0  0
    5.6180   -7.9194   16.1754 O   0  0  0  0  0  0  0  0  0  0  0  0
    9.7259   -5.3080   18.4485 C   0  0  0  0  0  0  0  0  0  0  0  0
    9.4578   -5.0200   16.3036 N   0  0  0  0  0  0  0  0  0  0  0  0
    5.0287   -8.9365   16.8223 C   0  0  0  0  0  0  0  0  0  0  0  0
    8.7742   -6.1498   16.6764 C   0  0  0  0  0  0  0  0  0  0  0  0
   10.9418   -3.4032   21.2053 O   0  0  0  0  0  0  0  0  0  0  0  0
    1.4797   -8.6258   16.2950 C   0  0  0  0  0  0  0  0  0  0  0  0
    9.2861   -1.2743   25.3585 C   0  0  0  0  0  0  0  0  0  0  0  0
    1.8892  -10.3985   17.7511 N   0  0  0  0  0  0  0  0  0  0  0  0
    9.6210   -0.6952   24.0976 C   0  0  0  0  0  0  0  0  0  0  0  0
    7.0792   -9.0217   17.1429 C   0  0  0  0  0  0  0  0  0  0  0  0
    3.1713  -10.1816   17.6634 C   0  0  0  0  0  0  0  0  0  0  0  0
    2.7878   -8.3822   16.2137 C   0  0  0  0  0  0  0  0  0  0  0  0
    9.4601   -2.6590   25.6528 C   0  0  0  0  0  0  0  0  0  0  0  0
   10.1182   -1.5672   23.1165 C   0  0  0  0  0  0  0  0  0  0  0  0
    1.0552   -9.6360   17.0650 C   0  0  0  0  0  0  0  0  0  0  0  0
    3.6519   -9.1783   16.9039 C   0  0  0  0  0  0  0  0  0  0  0  0
    7.8675   -7.0096   15.9415 C   0  0  0  0  0  0  0  0  0  0  0  0
    5.9733   -9.6553   17.3832 N   0  0  0  0  0  0  0  0  0  0  0  0
   10.2411   -2.9363   23.4301 C   0  0  0  0  0  0  0  0  0  0  0  0
   10.7288   -3.8197   19.9525 C   0  0  0  0  0  0  0  0  0  0  0  0
   10.1189   -5.0054   19.6987 C   0  0  0  0  0  0  0  0  0  0  0  0
  1  3  4  0
  1  7  4  0
  2 21  4  0
  2 27  4  0
  3  9  4  0
  3 10  4  0
  4  8  4  0
  4 18  4  0
  4 25  1  0
  5  9  4  0
  5 12  4  0
  6 13  1  0
  6 27  1  0
  7 28  4  0
  8 11  4  0
  9 29  4  0
 10 12  4  0
 11 24  1  0
 11 26  4  0
 12 25  1  0
 13 28  1  0
 14 20  4  0
 14 23  4  0
 15 17  4  0
 15 21  4  0
 16 19  4  0
 16 23  4  0
 17 22  4  0
 18 26  4  0
 19 24  4  0
 20 24  4  0
 22 27  4  0
 28 29  4  0
M  END
$$$$

 Created by Python create_sdf_string function

 29 33  0  0  0  0  0  0  0  0999 V2000
   10.7215   -3.3326   17.6437 C   0  0  0  0  0  0  0  0  0  0  0  0
    9.9489   -3.4675   24.6487 N   0  0  0  0  0  0  0  0  0  0  0  0
   10.0172   -4.4740   17.4101 C   0  0  0  0  0  0  0  0  0  0  0  0
    6.9051   -7.9575   16.4222 C   0  0  0  0  0  0  0  0  0  0  0  0
    8.9969   -6.3552   17.9668 N   0  0  0  0  0  0  0  0  0  0  0  0
   10.6702   -3.9051   22.4070 C   0  0  0  0  0  0  0  0  0  0  0  0
   11.0625   -3.0028   18.8894 C   0  0  0  0  0  0  0  0  0  0  0  0
    5.6180   -7.9194   16.1754 O   0  0  0  0  0  0  0  0  0  0  0  0
    9.7259   -5.3080   18.4485 C   0  0  0  0  0  0  0  0  0  0  0  0
    9.4578   -5.0200   16.3036 N   0  0  0  0  0  0  0  0  0  0  0  0
    5.0287   -8.9365   16.8223 C   0  0  0  0  0  0  0  0  0  0  0  0
    8.7742   -6.1498   16.6764 C   0  0  0  0  0  0  0  0  0  0  0  0
   10.9418   -3.4032   21.2053 O   0  0  0  0  0  0  0  0  0  0  0  0
    1.4797   -8.6258   16.2950 C   0  0  0  0  0  0  0  0  0  0  0  0
    9.2861   -1.2743   25.3585 C   0  0  0  0  0  0  0  0  0  0  0  0
    1.8892  -10.3985   17.7511 N   0  0  0  0  0  0  0  0  0  0  0  0
    9.6210   -0.6952   24.0976 C   0  0  0  0  0  0  0  0  0  0  0  0
    7.0792   -9.0217   17.1429 C   0  0  0  0  0  0  0  0  0  0  0  0
    3.1713  -10.1816   17.6634 C   0  0  0  0  0  0  0  0  0  0  0  0
    2.7878   -8.3822   16.2137 C   0  0  0  0  0  0  0  0  0  0  0  0
    9.4601   -2.6590   25.6528 C   0  0  0  0  0  0  0  0  0  0  0  0
   10.1182   -1.5672   23.1165 C   0  0  0  0  0  0  0  0  0  0  0  0
    1.0552   -9.6360   17.0650 C   0  0  0  0  0  0  0  0  0  0  0  0
    3.6519   -9.1783   16.9039 C   0  0  0  0  0  0  0  0  0  0  0  0
    7.8675   -7.0096   15.9415 C   0  0  0  0  0  0  0  0  0  0  0  0
    5.9733   -9.6553   17.3832 N   0  0  0  0  0  0  0  0  0  0  0  0
   10.2411   -2.9363   23.4301 C   0  0  0  0  0  0  0  0  0  0  0  0
   10.7288   -3.8197   19.9525 C   0  0  0  0  0  0  0  0  0  0  0  0
   10.1189   -5.0054   19.6987 C   0  0  0  0  0  0  0  0  0  0  0  0
  1  3  4  0
  1  7  4  0
  2 21  4  0
  2 27  4  0
  3  9  4  0
  3 10  4  0
  4  8  4  0
  4 18  4  0
  4 25  1  0
  5  9  4  0
  5 12  4  0
  6 13  1  0
  6 27  1  0
  7 28  4  0
  8 11  4  0
  9 29  4  0
 10 12  4  0
 11 24  1  0
 11 26  4  0
 12 25  1  0
 13 28  1  0
 14 20  4  0
 14 23  4  0
 15 17  4  0
 15 21  4  0
 16 19  4  0
 16 23  4  0
 17 22  4  0
 18 26  4  0
 19 24  4  0
 20 24  4  0
 22 27  4  0
 28 29  4  0
M  END
$$$$

 Created by Python create_sdf_string function

 29 33  0  0  0  0  0  0  0  0999 V2000
   10.7215   -3.3326   17.6437 C   0  0  0  0  0  0  0  0  0  0  0  0
    9.9489   -3.4675   24.6487 N   0  0  0  0  0  0  0  0  0  0  0  0
   10.0172   -4.4740   17.4101 C   0  0  0  0  0  0  0  0  0  0  0  0
    6.9051   -7.9575   16.4222 C   0  0  0  0  0  0  0  0  0  0  0  0
    8.9969   -6.3552   17.9668 N   0  0  0  0  0  0  0  0  0  0  0  0
   10.6702   -3.9051   22.4070 C   0  0  0  0  0  0  0  0  0  0  0  0
   11.0625   -3.0028   18.8894 C   0  0  0  0  0  0  0  0  0  0  0  0
    5.6180   -7.9194   16.1754 O   0  0  0  0  0  0  0  0  0  0  0  0
    9.7259   -5.3080   18.4485 C   0  0  0  0  0  0  0  0  0  0  0  0
    9.4578   -5.0200   16.3036 N   0  0  0  0  0  0  0  0  0  0  0  0
    5.0287   -8.9365   16.8223 C   0  0  0  0  0  0  0  0  0  0  0  0
    8.7742   -6.1498   16.6764 C   0  0  0  0  0  0  0  0  0  0  0  0
   10.9418   -3.4032   21.2053 O   0  0  0  0  0  0  0  0  0  0  0  0
    1.4797   -8.6258   16.2950 C   0  0  0  0  0  0  0  0  0  0  0  0
    9.2861   -1.2743   25.3585 C   0  0  0  0  0  0  0  0  0  0  0  0
    1.8892  -10.3985   17.7511 N   0  0  0  0  0  0  0  0  0  0  0  0
    9.6210   -0.6952   24.0976 C   0  0  0  0  0  0  0  0  0  0  0  0
    7.0792   -9.0217   17.1429 C   0  0  0  0  0  0  0  0  0  0  0  0
    3.1713  -10.1816   17.6634 C   0  0  0  0  0  0  0  0  0  0  0  0
    2.7878   -8.3822   16.2137 C   0  0  0  0  0  0  0  0  0  0  0  0
    9.4601   -2.6590   25.6528 C   0  0  0  0  0  0  0  0  0  0  0  0
   10.1182   -1.5672   23.1165 C   0  0  0  0  0  0  0  0  0  0  0  0
    1.0552   -9.6360   17.0650 C   0  0  0  0  0  0  0  0  0  0  0  0
    3.6519   -9.1783   16.9039 C   0  0  0  0  0  0  0  0  0  0  0  0
    7.8675   -7.0096   15.9415 C   0  0  0  0  0  0  0  0  0  0  0  0
    5.9733   -9.6553   17.3832 N   0  0  0  0  0  0  0  0  0  0  0  0
   10.2411   -2.9363   23.4301 C   0  0  0  0  0  0  0  0  0  0  0  0
   10.7288   -3.8197   19.9525 C   0  0  0  0  0  0  0  0  0  0  0  0
   10.1189   -5.0054   19.6987 C   0  0  0  0  0  0  0  0  0  0  0  0
  1  3  4  0
  1  7  4  0
  2 21  4  0
  2 27  4  0
  3  9  4  0
  3 10  4  0
  4  8  4  0
  4 18  4  0
  4 25  1  0
  5  9  4  0
  5 12  4  0
  6 13  1  0
  6 27  1  0
  7 28  4  0
  8 11  4  0
  9 29  4  0
 10 12  4  0
 11 24  1  0
 11 26  4  0
 12 25  1  0
 13 28  1  0
 14 20  4  0
 14 23  4  0
 15 17  4  0
 15 21  4  0
 16 19  4  0
 16 23  4  0
 17 22  4  0
 18 26  4  0
 19 24  4  0
 20 24  4  0
 22 27  4  0
 28 29  4  0
M  END
$$$$

 Created by Python create_sdf_string function

 29 33  0  0  0  0  0  0  0  0999 V2000
   10.7215   -3.3326   17.6437 C   0  0  0  0  0  0  0  0  0  0  0  0
    9.9489   -3.4675   24.6487 N   0  0  0  0  0  0  0  0  0  0  0  0
   10.0172   -4.4740   17.4101 C   0  0  0  0  0  0  0  0  0  0  0  0
    6.9051   -7.9575   16.4222 C   0  0  0  0  0  0  0  0  0  0  0  0
    8.9969   -6.3552   17.9668 N   0  0  0  0  0  0  0  0  0  0  0  0
   10.6702   -3.9051   22.4070 C   0  0  0  0  0  0  0  0  0  0  0  0
   11.0625   -3.0028   18.8894 C   0  0  0  0  0  0  0  0  0  0  0  0
    5.6180   -7.9194   16.1754 O   0  0  0  0  0  0  0  0  0  0  0  0
    9.7259   -5.3080   18.4485 C   0  0  0  0  0  0  0  0  0  0  0  0
    9.4578   -5.0200   16.3036 N   0  0  0  0  0  0  0  0  0  0  0  0
    5.0287   -8.9365   16.8223 C   0  0  0  0  0  0  0  0  0  0  0  0
    8.7742   -6.1498   16.6764 C   0  0  0  0  0  0  0  0  0  0  0  0
   10.9418   -3.4032   21.2053 O   0  0  0  0  0  0  0  0  0  0  0  0
    1.4797   -8.6258   16.2950 C   0  0  0  0  0  0  0  0  0  0  0  0
    9.2861   -1.2743   25.3585 C   0  0  0  0  0  0  0  0  0  0  0  0
    1.8892  -10.3985   17.7511 N   0  0  0  0  0  0  0  0  0  0  0  0
    9.6210   -0.6952   24.0976 C   0  0  0  0  0  0  0  0  0  0  0  0
    7.0792   -9.0217   17.1429 C   0  0  0  0  0  0  0  0  0  0  0  0
    3.1713  -10.1816   17.6634 C   0  0  0  0  0  0  0  0  0  0  0  0
    2.7878   -8.3822   16.2137 C   0  0  0  0  0  0  0  0  0  0  0  0
    9.4601   -2.6590   25.6528 C   0  0  0  0  0  0  0  0  0  0  0  0
   10.1182   -1.5672   23.1165 C   0  0  0  0  0  0  0  0  0  0  0  0
    1.0552   -9.6360   17.0650 C   0  0  0  0  0  0  0  0  0  0  0  0
    3.6519   -9.1783   16.9039 C   0  0  0  0  0  0  0  0  0  0  0  0
    7.8675   -7.0096   15.9415 C   0  0  0  0  0  0  0  0  0  0  0  0
    5.9733   -9.6553   17.3832 N   0  0  0  0  0  0  0  0  0  0  0  0
   10.2411   -2.9363   23.4301 C   0  0  0  0  0  0  0  0  0  0  0  0
   10.7288   -3.8197   19.9525 C   0  0  0  0  0  0  0  0  0  0  0  0
   10.1189   -5.0054   19.6987 C   0  0  0  0  0  0  0  0  0  0  0  0
  1  3  4  0
  1  7  4  0
  2 21  4  0
  2 27  4  0
  3  9  4  0
  3 10  4  0
  4  8  4  0
  4 18  4  0
  4 25  1  0
  5  9  4  0
  5 12  4  0
  6 13  1  0
  6 27  1  0
  7 28  4  0
  8 11  4  0
  9 29  4  0
 10 12  4  0
 11 24  1  0
 11 26  4  0
 12 25  1  0
 13 28  1  0
 14 20  4  0
 14 23  4  0
 15 17  4  0
 15 21  4  0
 16 19  4  0
 16 23  4  0
 17 22  4  0
 18 26  4  0
 19 24  4  0
 20 24  4  0
 22 27  4  0
 28 29  4  0
M  END
$$$$

 Created by Python create_sdf_string function

 29 33  0  0  0  0  0  0  0  0999 V2000
   10.7215   -3.3326   17.6437 C   0  0  0  0  0  0  0  0  0  0  0  0
    9.9489   -3.4675   24.6487 N   0  0  0  0  0  0  0  0  0  0  0  0
   10.0172   -4.4740   17.4101 C   0  0  0  0  0  0  0  0  0  0  0  0
    6.9051   -7.9575   16.4222 C   0  0  0  0  0  0  0  0  0  0  0  0
    8.9969   -6.3552   17.9668 N   0  0  0  0  0  0  0  0  0  0  0  0
   10.6702   -3.9051   22.4070 C   0  0  0  0  0  0  0  0  0  0  0  0
   11.0625   -3.0028   18.8894 C   0  0  0  0  0  0  0  0  0  0  0  0
    5.6180   -7.9194   16.1754 O   0  0  0  0  0  0  0  0  0  0  0  0
    9.7259   -5.3080   18.4485 C   0  0  0  0  0  0  0  0  0  0  0  0
    9.4578   -5.0200   16.3036 N   0  0  0  0  0  0  0  0  0  0  0  0
    5.0287   -8.9365   16.8223 C   0  0  0  0  0  0  0  0  0  0  0  0
    8.7742   -6.1498   16.6764 C   0  0  0  0  0  0  0  0  0  0  0  0
   10.9418   -3.4032   21.2053 O   0  0  0  0  0  0  0  0  0  0  0  0
    1.4797   -8.6258   16.2950 C   0  0  0  0  0  0  0  0  0  0  0  0
    9.2861   -1.2743   25.3585 C   0  0  0  0  0  0  0  0  0  0  0  0
    1.8892  -10.3985   17.7511 N   0  0  0  0  0  0  0  0  0  0  0  0
    9.6210   -0.6952   24.0976 C   0  0  0  0  0  0  0  0  0  0  0  0
    7.0792   -9.0217   17.1429 C   0  0  0  0  0  0  0  0  0  0  0  0
    3.1713  -10.1816   17.6634 C   0  0  0  0  0  0  0  0  0  0  0  0
    2.7878   -8.3822   16.2137 C   0  0  0  0  0  0  0  0  0  0  0  0
    9.4601   -2.6590   25.6528 C   0  0  0  0  0  0  0  0  0  0  0  0
   10.1182   -1.5672   23.1165 C   0  0  0  0  0  0  0  0  0  0  0  0
    1.0552   -9.6360   17.0650 C   0  0  0  0  0  0  0  0  0  0  0  0
    3.6519   -9.1783   16.9039 C   0  0  0  0  0  0  0  0  0  0  0  0
    7.8675   -7.0096   15.9415 C   0  0  0  0  0  0  0  0  0  0  0  0
    5.9733   -9.6553   17.3832 N   0  0  0  0  0  0  0  0  0  0  0  0
   10.2411   -2.9363   23.4301 C   0  0  0  0  0  0  0  0  0  0  0  0
   10.7288   -3.8197   19.9525 C   0  0  0  0  0  0  0  0  0  0  0  0
   10.1189   -5.0054   19.6987 C   0  0  0  0  0  0  0  0  0  0  0  0
  1  3  4  0
  1  7  4  0
  2 21  4  0
  2 27  4  0
  3  9  4  0
  3 10  4  0
  4  8  4  0
  4 18  4  0
  4 25  1  0
  5  9  4  0
  5 12  4  0
  6 13  1  0
  6 27  1  0
  7 28  4  0
  8 11  4  0
  9 29  4  0
 10 12  4  0
 11 24  1  0
 11 26  4  0
 12 25  1  0
 13 28  1  0
 14 20  4  0
 14 23  4  0
 15 17  4  0
 15 21  4  0
 16 19  4  0
 16 23  4  0
 17 22  4  0
 18 26  4  0
 19 24  4  0
 20 24  4  0
 22 27  4  0
 28 29  4  0
M  END
$$$$

 Created by Python create_sdf_string function

 29 33  0  0  0  0  0  0  0  0999 V2000
   10.7215   -3.3326   17.6437 C   0  0  0  0  0  0  0  0  0  0  0  0
    9.9489   -3.4675   24.6487 N   0  0  0  0  0  0  0  0  0  0  0  0
   10.0172   -4.4740   17.4101 C   0  0  0  0  0  0  0  0  0  0  0  0
    6.9051   -7.9575   16.4222 C   0  0  0  0  0  0  0  0  0  0  0  0
    8.9969   -6.3552   17.9668 N   0  0  0  0  0  0  0  0  0  0  0  0
   10.6702   -3.9051   22.4070 C   0  0  0  0  0  0  0  0  0  0  0  0
   11.0625   -3.0028   18.8894 C   0  0  0  0  0  0  0  0  0  0  0  0
    5.6180   -7.9194   16.1754 O   0  0  0  0  0  0  0  0  0  0  0  0
    9.7259   -5.3080   18.4485 C   0  0  0  0  0  0  0  0  0  0  0  0
    9.4578   -5.0200   16.3036 N   0  0  0  0  0  0  0  0  0  0  0  0
    5.0287   -8.9365   16.8223 C   0  0  0  0  0  0  0  0  0  0  0  0
    8.7742   -6.1498   16.6764 C   0  0  0  0  0  0  0  0  0  0  0  0
   10.9418   -3.4032   21.2053 O   0  0  0  0  0  0  0  0  0  0  0  0
    1.4797   -8.6258   16.2950 C   0  0  0  0  0  0  0  0  0  0  0  0
    9.2861   -1.2743   25.3585 C   0  0  0  0  0  0  0  0  0  0  0  0
    1.8892  -10.3985   17.7511 N   0  0  0  0  0  0  0  0  0  0  0  0
    9.6210   -0.6952   24.0976 C   0  0  0  0  0  0  0  0  0  0  0  0
    7.0792   -9.0217   17.1429 C   0  0  0  0  0  0  0  0  0  0  0  0
    3.1713  -10.1816   17.6634 C   0  0  0  0  0  0  0  0  0  0  0  0
    2.7878   -8.3822   16.2137 C   0  0  0  0  0  0  0  0  0  0  0  0
    9.4601   -2.6590   25.6528 C   0  0  0  0  0  0  0  0  0  0  0  0
   10.1182   -1.5672   23.1165 C   0  0  0  0  0  0  0  0  0  0  0  0
    1.0552   -9.6360   17.0650 C   0  0  0  0  0  0  0  0  0  0  0  0
    3.6519   -9.1783   16.9039 C   0  0  0  0  0  0  0  0  0  0  0  0
    7.8675   -7.0096   15.9415 C   0  0  0  0  0  0  0  0  0  0  0  0
    5.9733   -9.6553   17.3832 N   0  0  0  0  0  0  0  0  0  0  0  0
   10.2411   -2.9363   23.4301 C   0  0  0  0  0  0  0  0  0  0  0  0
   10.7288   -3.8197   19.9525 C   0  0  0  0  0  0  0  0  0  0  0  0
   10.1189   -5.0054   19.6987 C   0  0  0  0  0  0  0  0  0  0  0  0
  1  3  4  0
  1  7  4  0
  2 21  4  0
  2 27  4  0
  3  9  4  0
  3 10  4  0
  4  8  4  0
  4 18  4  0
  4 25  1  0
  5  9  4  0
  5 12  4  0
  6 13  1  0
  6 27  1  0
  7 28  4  0
  8 11  4  0
  9 29  4  0
 10 12  4  0
 11 24  1  0
 11 26  4  0
 12 25  1  0
 13 28  1  0
 14 20  4  0
 14 23  4  0
 15 17  4  0
 15 21  4  0
 16 19  4  0
 16 23  4  0
 17 22  4  0
 18 26  4  0
 19 24  4  0
 20 24  4  0
 22 27  4  0
 28 29  4  0
M  END
$$$$

 Created by Python create_sdf_string function

 29 33  0  0  0  0  0  0  0  0999 V2000
   10.7215   -3.3326   17.6437 C   0  0  0  0  0  0  0  0  0  0  0  0
    9.9489   -3.4675   24.6487 N   0  0  0  0  0  0  0  0  0  0  0  0
   10.0172   -4.4740   17.4101 C   0  0  0  0  0  0  0  0  0  0  0  0
    6.9051   -7.9575   16.4222 C   0  0  0  0  0  0  0  0  0  0  0  0
    8.9969   -6.3552   17.9668 N   0  0  0  0  0  0  0  0  0  0  0  0
   10.6702   -3.9051   22.4070 C   0  0  0  0  0  0  0  0  0  0  0  0
   11.0625   -3.0028   18.8894 C   0  0  0  0  0  0  0  0  0  0  0  0
    5.6180   -7.9194   16.1754 O   0  0  0  0  0  0  0  0  0  0  0  0
    9.7259   -5.3080   18.4485 C   0  0  0  0  0  0  0  0  0  0  0  0
    9.4578   -5.0200   16.3036 N   0  0  0  0  0  0  0  0  0  0  0  0
    5.0287   -8.9365   16.8223 C   0  0  0  0  0  0  0  0  0  0  0  0
    8.7742   -6.1498   16.6764 C   0  0  0  0  0  0  0  0  0  0  0  0
   10.9418   -3.4032   21.2053 O   0  0  0  0  0  0  0  0  0  0  0  0
    1.4797   -8.6258   16.2950 C   0  0  0  0  0  0  0  0  0  0  0  0
    9.2861   -1.2743   25.3585 C   0  0  0  0  0  0  0  0  0  0  0  0
    1.8892  -10.3985   17.7511 N   0  0  0  0  0  0  0  0  0  0  0  0
    9.6210   -0.6952   24.0976 C   0  0  0  0  0  0  0  0  0  0  0  0
    7.0792   -9.0217   17.1429 C   0  0  0  0  0  0  0  0  0  0  0  0
    3.1713  -10.1816   17.6634 C   0  0  0  0  0  0  0  0  0  0  0  0
    2.7878   -8.3822   16.2137 C   0  0  0  0  0  0  0  0  0  0  0  0
    9.4601   -2.6590   25.6528 C   0  0  0  0  0  0  0  0  0  0  0  0
   10.1182   -1.5672   23.1165 C   0  0  0  0  0  0  0  0  0  0  0  0
    1.0552   -9.6360   17.0650 C   0  0  0  0  0  0  0  0  0  0  0  0
    3.6519   -9.1783   16.9039 C   0  0  0  0  0  0  0  0  0  0  0  0
    7.8675   -7.0096   15.9415 C   0  0  0  0  0  0  0  0  0  0  0  0
    5.9733   -9.6553   17.3832 N   0  0  0  0  0  0  0  0  0  0  0  0
   10.2411   -2.9363   23.4301 C   0  0  0  0  0  0  0  0  0  0  0  0
   10.7288   -3.8197   19.9525 C   0  0  0  0  0  0  0  0  0  0  0  0
   10.1189   -5.0054   19.6987 C   0  0  0  0  0  0  0  0  0  0  0  0
  1  3  4  0
  1  7  4  0
  2 21  4  0
  2 27  4  0
  3  9  4  0
  3 10  4  0
  4  8  4  0
  4 18  4  0
  4 25  1  0
  5  9  4  0
  5 12  4  0
  6 13  1  0
  6 27  1  0
  7 28  4  0
  8 11  4  0
  9 29  4  0
 10 12  4  0
 11 24  1  0
 11 26  4  0
 12 25  1  0
 13 28  1  0
 14 20  4  0
 14 23  4  0
 15 17  4  0
 15 21  4  0
 16 19  4  0
 16 23  4  0
 17 22  4  0
 18 26  4  0
 19 24  4  0
 20 24  4  0
 22 27  4  0
 28 29  4  0
M  END
$$$$

 Created by Python create_sdf_string function

 29 33  0  0  0  0  0  0  0  0999 V2000
   10.7215   -3.3326   17.6437 C   0  0  0  0  0  0  0  0  0  0  0  0
    9.9489   -3.4675   24.6487 N   0  0  0  0  0  0  0  0  0  0  0  0
   10.0172   -4.4740   17.4101 C   0  0  0  0  0  0  0  0  0  0  0  0
    6.9051   -7.9575   16.4222 C   0  0  0  0  0  0  0  0  0  0  0  0
    8.9969   -6.3552   17.9668 N   0  0  0  0  0  0  0  0  0  0  0  0
   10.6702   -3.9051   22.4070 C   0  0  0  0  0  0  0  0  0  0  0  0
   11.0625   -3.0028   18.8894 C   0  0  0  0  0  0  0  0  0  0  0  0
    5.6180   -7.9194   16.1754 O   0  0  0  0  0  0  0  0  0  0  0  0
    9.7259   -5.3080   18.4485 C   0  0  0  0  0  0  0  0  0  0  0  0
    9.4578   -5.0200   16.3036 N   0  0  0  0  0  0  0  0  0  0  0  0
    5.0287   -8.9365   16.8223 C   0  0  0  0  0  0  0  0  0  0  0  0
    8.7742   -6.1498   16.6764 C   0  0  0  0  0  0  0  0  0  0  0  0
   10.9418   -3.4032   21.2053 O   0  0  0  0  0  0  0  0  0  0  0  0
    1.4797   -8.6258   16.2950 C   0  0  0  0  0  0  0  0  0  0  0  0
    9.2861   -1.2743   25.3585 C   0  0  0  0  0  0  0  0  0  0  0  0
    1.8892  -10.3985   17.7511 N   0  0  0  0  0  0  0  0  0  0  0  0
    9.6210   -0.6952   24.0976 C   0  0  0  0  0  0  0  0  0  0  0  0
    7.0792   -9.0217   17.1429 C   0  0  0  0  0  0  0  0  0  0  0  0
    3.1713  -10.1816   17.6634 C   0  0  0  0  0  0  0  0  0  0  0  0
    2.7878   -8.3822   16.2137 C   0  0  0  0  0  0  0  0  0  0  0  0
    9.4601   -2.6590   25.6528 C   0  0  0  0  0  0  0  0  0  0  0  0
   10.1182   -1.5672   23.1165 C   0  0  0  0  0  0  0  0  0  0  0  0
    1.0552   -9.6360   17.0650 C   0  0  0  0  0  0  0  0  0  0  0  0
    3.6519   -9.1783   16.9039 C   0  0  0  0  0  0  0  0  0  0  0  0
    7.8675   -7.0096   15.9415 C   0  0  0  0  0  0  0  0  0  0  0  0
    5.9733   -9.6553   17.3832 N   0  0  0  0  0  0  0  0  0  0  0  0
   10.2411   -2.9363   23.4301 C   0  0  0  0  0  0  0  0  0  0  0  0
   10.7288   -3.8197   19.9525 C   0  0  0  0  0  0  0  0  0  0  0  0
   10.1189   -5.0054   19.6987 C   0  0  0  0  0  0  0  0  0  0  0  0
  1  3  4  0
  1  7  4  0
  2 21  4  0
  2 27  4  0
  3  9  4  0
  3 10  4  0
  4  8  4  0
  4 18  4  0
  4 25  1  0
  5  9  4  0
  5 12  4  0
  6 13  1  0
  6 27  1  0
  7 28  4  0
  8 11  4  0
  9 29  4  0
 10 12  4  0
 11 24  1  0
 11 26  4  0
 12 25  1  0
 13 28  1  0
 14 20  4  0
 14 23  4  0
 15 17  4  0
 15 21  4  0
 16 19  4  0
 16 23  4  0
 17 22  4  0
 18 26  4  0
 19 24  4  0
 20 24  4  0
 22 27  4  0
 28 29  4  0
M  END
$$$$

 Created by Python create_sdf_string function

 29 33  0  0  0  0  0  0  0  0999 V2000
   10.7215   -3.3326   17.6437 C   0  0  0  0  0  0  0  0  0  0  0  0
    9.9489   -3.4675   24.6487 N   0  0  0  0  0  0  0  0  0  0  0  0
   10.0172   -4.4740   17.4101 C   0  0  0  0  0  0  0  0  0  0  0  0
    6.9051   -7.9575   16.4222 C   0  0  0  0  0  0  0  0  0  0  0  0
    8.9969   -6.3552   17.9668 N   0  0  0  0  0  0  0  0  0  0  0  0
   10.6702   -3.9051   22.4070 C   0  0  0  0  0  0  0  0  0  0  0  0
   11.0625   -3.0028   18.8894 C   0  0  0  0  0  0  0  0  0  0  0  0
    5.6180   -7.9194   16.1754 O   0  0  0  0  0  0  0  0  0  0  0  0
    9.7259   -5.3080   18.4485 C   0  0  0  0  0  0  0  0  0  0  0  0
    9.4578   -5.0200   16.3036 N   0  0  0  0  0  0  0  0  0  0  0  0
    5.0287   -8.9365   16.8223 C   0  0  0  0  0  0  0  0  0  0  0  0
    8.7742   -6.1498   16.6764 C   0  0  0  0  0  0  0  0  0  0  0  0
   10.9418   -3.4032   21.2053 O   0  0  0  0  0  0  0  0  0  0  0  0
    1.4797   -8.6258   16.2950 C   0  0  0  0  0  0  0  0  0  0  0  0
    9.2861   -1.2743   25.3585 C   0  0  0  0  0  0  0  0  0  0  0  0
    1.8892  -10.3985   17.7511 N   0  0  0  0  0  0  0  0  0  0  0  0
    9.6210   -0.6952   24.0976 C   0  0  0  0  0  0  0  0  0  0  0  0
    7.0792   -9.0217   17.1429 C   0  0  0  0  0  0  0  0  0  0  0  0
    3.1713  -10.1816   17.6634 C   0  0  0  0  0  0  0  0  0  0  0  0
    2.7878   -8.3822   16.2137 C   0  0  0  0  0  0  0  0  0  0  0  0
    9.4601   -2.6590   25.6528 C   0  0  0  0  0  0  0  0  0  0  0  0
   10.1182   -1.5672   23.1165 C   0  0  0  0  0  0  0  0  0  0  0  0
    1.0552   -9.6360   17.0650 C   0  0  0  0  0  0  0  0  0  0  0  0
    3.6519   -9.1783   16.9039 C   0  0  0  0  0  0  0  0  0  0  0  0
    7.8675   -7.0096   15.9415 C   0  0  0  0  0  0  0  0  0  0  0  0
    5.9733   -9.6553   17.3832 N   0  0  0  0  0  0  0  0  0  0  0  0
   10.2411   -2.9363   23.4301 C   0  0  0  0  0  0  0  0  0  0  0  0
   10.7288   -3.8197   19.9525 C   0  0  0  0  0  0  0  0  0  0  0  0
   10.1189   -5.0054   19.6987 C   0  0  0  0  0  0  0  0  0  0  0  0
  1  3  4  0
  1  7  4  0
  2 21  4  0
  2 27  4  0
  3  9  4  0
  3 10  4  0
  4  8  4  0
  4 18  4  0
  4 25  1  0
  5  9  4  0
  5 12  4  0
  6 13  1  0
  6 27  1  0
  7 28  4  0
  8 11  4  0
  9 29  4  0
 10 12  4  0
 11 24  1  0
 11 26  4  0
 12 25  1  0
 13 28  1  0
 14 20  4  0
 14 23  4  0
 15 17  4  0
 15 21  4  0
 16 19  4  0
 16 23  4  0
 17 22  4  0
 18 26  4  0
 19 24  4  0
 20 24  4  0
 22 27  4  0
 28 29  4  0
M  END
$$$$

 Created by Python create_sdf_string function

 29 33  0  0  0  0  0  0  0  0999 V2000
   10.7215   -3.3326   17.6437 C   0  0  0  0  0  0  0  0  0  0  0  0
    9.9489   -3.4675   24.6487 N   0  0  0  0  0  0  0  0  0  0  0  0
   10.0172   -4.4740   17.4101 C   0  0  0  0  0  0  0  0  0  0  0  0
    6.9051   -7.9575   16.4222 C   0  0  0  0  0  0  0  0  0  0  0  0
    8.9969   -6.3552   17.9668 N   0  0  0  0  0  0  0  0  0  0  0  0
   10.6702   -3.9051   22.4070 C   0  0  0  0  0  0  0  0  0  0  0  0
   11.0625   -3.0028   18.8894 C   0  0  0  0  0  0  0  0  0  0  0  0
    5.6180   -7.9194   16.1754 O   0  0  0  0  0  0  0  0  0  0  0  0
    9.7259   -5.3080   18.4485 C   0  0  0  0  0  0  0  0  0  0  0  0
    9.4578   -5.0200   16.3036 N   0  0  0  0  0  0  0  0  0  0  0  0
    5.0287   -8.9365   16.8223 C   0  0  0  0  0  0  0  0  0  0  0  0
    8.7742   -6.1498   16.6764 C   0  0  0  0  0  0  0  0  0  0  0  0
   10.9418   -3.4032   21.2053 O   0  0  0  0  0  0  0  0  0  0  0  0
    1.4797   -8.6258   16.2950 C   0  0  0  0  0  0  0  0  0  0  0  0
    9.2861   -1.2743   25.3585 C   0  0  0  0  0  0  0  0  0  0  0  0
    1.8892  -10.3985   17.7511 N   0  0  0  0  0  0  0  0  0  0  0  0
    9.6210   -0.6952   24.0976 C   0  0  0  0  0  0  0  0  0  0  0  0
    7.0792   -9.0217   17.1429 C   0  0  0  0  0  0  0  0  0  0  0  0
    3.1713  -10.1816   17.6634 C   0  0  0  0  0  0  0  0  0  0  0  0
    2.7878   -8.3822   16.2137 C   0  0  0  0  0  0  0  0  0  0  0  0
    9.4601   -2.6590   25.6528 C   0  0  0  0  0  0  0  0  0  0  0  0
   10.1182   -1.5672   23.1165 C   0  0  0  0  0  0  0  0  0  0  0  0
    1.0552   -9.6360   17.0650 C   0  0  0  0  0  0  0  0  0  0  0  0
    3.6519   -9.1783   16.9039 C   0  0  0  0  0  0  0  0  0  0  0  0
    7.8675   -7.0096   15.9415 C   0  0  0  0  0  0  0  0  0  0  0  0
    5.9733   -9.6553   17.3832 N   0  0  0  0  0  0  0  0  0  0  0  0
   10.2411   -2.9363   23.4301 C   0  0  0  0  0  0  0  0  0  0  0  0
   10.7288   -3.8197   19.9525 C   0  0  0  0  0  0  0  0  0  0  0  0
   10.1189   -5.0054   19.6987 C   0  0  0  0  0  0  0  0  0  0  0  0
  1  3  4  0
  1  7  4  0
  2 21  4  0
  2 27  4  0
  3  9  4  0
  3 10  4  0
  4  8  4  0
  4 18  4  0
  4 25  1  0
  5  9  4  0
  5 12  4  0
  6 13  1  0
  6 27  1  0
  7 28  4  0
  8 11  4  0
  9 29  4  0
 10 12  4  0
 11 24  1  0
 11 26  4  0
 12 25  1  0
 13 28  1  0
 14 20  4  0
 14 23  4  0
 15 17  4  0
 15 21  4  0
 16 19  4  0
 16 23  4  0
 17 22  4  0
 18 26  4  0
 19 24  4  0
 20 24  4  0
 22 27  4  0
 28 29  4  0
M  END
$$$$

 Created by Python create_sdf_string function

 29 33  0  0  0  0  0  0  0  0999 V2000
   10.7215   -3.3326   17.6437 C   0  0  0  0  0  0  0  0  0  0  0  0
    9.9489   -3.4675   24.6487 N   0  0  0  0  0  0  0  0  0  0  0  0
   10.0172   -4.4740   17.4101 C   0  0  0  0  0  0  0  0  0  0  0  0
    6.9051   -7.9575   16.4222 C   0  0  0  0  0  0  0  0  0  0  0  0
    8.9969   -6.3552   17.9668 N   0  0  0  0  0  0  0  0  0  0  0  0
   10.6702   -3.9051   22.4070 C   0  0  0  0  0  0  0  0  0  0  0  0
   11.0625   -3.0028   18.8894 C   0  0  0  0  0  0  0  0  0  0  0  0
    5.6180   -7.9194   16.1754 O   0  0  0  0  0  0  0  0  0  0  0  0
    9.7259   -5.3080   18.4485 C   0  0  0  0  0  0  0  0  0  0  0  0
    9.4578   -5.0200   16.3036 N   0  0  0  0  0  0  0  0  0  0  0  0
    5.0287   -8.9365   16.8223 C   0  0  0  0  0  0  0  0  0  0  0  0
    8.7742   -6.1498   16.6764 C   0  0  0  0  0  0  0  0  0  0  0  0
   10.9418   -3.4032   21.2053 O   0  0  0  0  0  0  0  0  0  0  0  0
    1.4797   -8.6258   16.2950 C   0  0  0  0  0  0  0  0  0  0  0  0
    9.2861   -1.2743   25.3585 C   0  0  0  0  0  0  0  0  0  0  0  0
    1.8892  -10.3985   17.7511 N   0  0  0  0  0  0  0  0  0  0  0  0
    9.6210   -0.6952   24.0976 C   0  0  0  0  0  0  0  0  0  0  0  0
    7.0792   -9.0217   17.1429 C   0  0  0  0  0  0  0  0  0  0  0  0
    3.1713  -10.1816   17.6634 C   0  0  0  0  0  0  0  0  0  0  0  0
    2.7878   -8.3822   16.2137 C   0  0  0  0  0  0  0  0  0  0  0  0
    9.4601   -2.6590   25.6528 C   0  0  0  0  0  0  0  0  0  0  0  0
   10.1182   -1.5672   23.1165 C   0  0  0  0  0  0  0  0  0  0  0  0
    1.0552   -9.6360   17.0650 C   0  0  0  0  0  0  0  0  0  0  0  0
    3.6519   -9.1783   16.9039 C   0  0  0  0  0  0  0  0  0  0  0  0
    7.8675   -7.0096   15.9415 C   0  0  0  0  0  0  0  0  0  0  0  0
    5.9733   -9.6553   17.3832 N   0  0  0  0  0  0  0  0  0  0  0  0
   10.2411   -2.9363   23.4301 C   0  0  0  0  0  0  0  0  0  0  0  0
   10.7288   -3.8197   19.9525 C   0  0  0  0  0  0  0  0  0  0  0  0
   10.1189   -5.0054   19.6987 C   0  0  0  0  0  0  0  0  0  0  0  0
  1  3  4  0
  1  7  4  0
  2 21  4  0
  2 27  4  0
  3  9  4  0
  3 10  4  0
  4  8  4  0
  4 18  4  0
  4 25  1  0
  5  9  4  0
  5 12  4  0
  6 13  1  0
  6 27  1  0
  7 28  4  0
  8 11  4  0
  9 29  4  0
 10 12  4  0
 11 24  1  0
 11 26  4  0
 12 25  1  0
 13 28  1  0
 14 20  4  0
 14 23  4  0
 15 17  4  0
 15 21  4  0
 16 19  4  0
 16 23  4  0
 17 22  4  0
 18 26  4  0
 19 24  4  0
 20 24  4  0
 22 27  4  0
 28 29  4  0
M  END
$$$$

 Created by Python create_sdf_string function

 29 33  0  0  0  0  0  0  0  0999 V2000
   10.7215   -3.3326   17.6437 C   0  0  0  0  0  0  0  0  0  0  0  0
    9.9489   -3.4675   24.6487 N   0  0  0  0  0  0  0  0  0  0  0  0
   10.0172   -4.4740   17.4101 C   0  0  0  0  0  0  0  0  0  0  0  0
    6.9051   -7.9575   16.4222 C   0  0  0  0  0  0  0  0  0  0  0  0
    8.9969   -6.3552   17.9668 N   0  0  0  0  0  0  0  0  0  0  0  0
   10.6702   -3.9051   22.4070 C   0  0  0  0  0  0  0  0  0  0  0  0
   11.0625   -3.0028   18.8894 C   0  0  0  0  0  0  0  0  0  0  0  0
    5.6180   -7.9194   16.1754 O   0  0  0  0  0  0  0  0  0  0  0  0
    9.7259   -5.3080   18.4485 C   0  0  0  0  0  0  0  0  0  0  0  0
    9.4578   -5.0200   16.3036 N   0  0  0  0  0  0  0  0  0  0  0  0
    5.0287   -8.9365   16.8223 C   0  0  0  0  0  0  0  0  0  0  0  0
    8.7742   -6.1498   16.6764 C   0  0  0  0  0  0  0  0  0  0  0  0
   10.9418   -3.4032   21.2053 O   0  0  0  0  0  0  0  0  0  0  0  0
    1.4797   -8.6258   16.2950 C   0  0  0  0  0  0  0  0  0  0  0  0
    9.2861   -1.2743   25.3585 C   0  0  0  0  0  0  0  0  0  0  0  0
    1.8892  -10.3985   17.7511 N   0  0  0  0  0  0  0  0  0  0  0  0
    9.6210   -0.6952   24.0976 C   0  0  0  0  0  0  0  0  0  0  0  0
    7.0792   -9.0217   17.1429 C   0  0  0  0  0  0  0  0  0  0  0  0
    3.1713  -10.1816   17.6634 C   0  0  0  0  0  0  0  0  0  0  0  0
    2.7878   -8.3822   16.2137 C   0  0  0  0  0  0  0  0  0  0  0  0
    9.4601   -2.6590   25.6528 C   0  0  0  0  0  0  0  0  0  0  0  0
   10.1182   -1.5672   23.1165 C   0  0  0  0  0  0  0  0  0  0  0  0
    1.0552   -9.6360   17.0650 C   0  0  0  0  0  0  0  0  0  0  0  0
    3.6519   -9.1783   16.9039 C   0  0  0  0  0  0  0  0  0  0  0  0
    7.8675   -7.0096   15.9415 C   0  0  0  0  0  0  0  0  0  0  0  0
    5.9733   -9.6553   17.3832 N   0  0  0  0  0  0  0  0  0  0  0  0
   10.2411   -2.9363   23.4301 C   0  0  0  0  0  0  0  0  0  0  0  0
   10.7288   -3.8197   19.9525 C   0  0  0  0  0  0  0  0  0  0  0  0
   10.1189   -5.0054   19.6987 C   0  0  0  0  0  0  0  0  0  0  0  0
  1  3  4  0
  1  7  4  0
  2 21  4  0
  2 27  4  0
  3  9  4  0
  3 10  4  0
  4  8  4  0
  4 18  4  0
  4 25  1  0
  5  9  4  0
  5 12  4  0
  6 13  1  0
  6 27  1  0
  7 28  4  0
  8 11  4  0
  9 29  4  0
 10 12  4  0
 11 24  1  0
 11 26  4  0
 12 25  1  0
 13 28  1  0
 14 20  4  0
 14 23  4  0
 15 17  4  0
 15 21  4  0
 16 19  4  0
 16 23  4  0
 17 22  4  0
 18 26  4  0
 19 24  4  0
 20 24  4  0
 22 27  4  0
 28 29  4  0
M  END
$$$$

 Created by Python create_sdf_string function

 29 33  0  0  0  0  0  0  0  0999 V2000
   10.7215   -3.3326   17.6437 C   0  0  0  0  0  0  0  0  0  0  0  0
    9.9489   -3.4675   24.6487 N   0  0  0  0  0  0  0  0  0  0  0  0
   10.0172   -4.4740   17.4101 C   0  0  0  0  0  0  0  0  0  0  0  0
    6.9051   -7.9575   16.4222 C   0  0  0  0  0  0  0  0  0  0  0  0
    8.9969   -6.3552   17.9668 N   0  0  0  0  0  0  0  0  0  0  0  0
   10.6702   -3.9051   22.4070 C   0  0  0  0  0  0  0  0  0  0  0  0
   11.0625   -3.0028   18.8894 C   0  0  0  0  0  0  0  0  0  0  0  0
    5.6180   -7.9194   16.1754 O   0  0  0  0  0  0  0  0  0  0  0  0
    9.7259   -5.3080   18.4485 C   0  0  0  0  0  0  0  0  0  0  0  0
    9.4578   -5.0200   16.3036 N   0  0  0  0  0  0  0  0  0  0  0  0
    5.0287   -8.9365   16.8223 C   0  0  0  0  0  0  0  0  0  0  0  0
    8.7742   -6.1498   16.6764 C   0  0  0  0  0  0  0  0  0  0  0  0
   10.9418   -3.4032   21.2053 O   0  0  0  0  0  0  0  0  0  0  0  0
    1.4797   -8.6258   16.2950 C   0  0  0  0  0  0  0  0  0  0  0  0
    9.2861   -1.2743   25.3585 C   0  0  0  0  0  0  0  0  0  0  0  0
    1.8892  -10.3985   17.7511 N   0  0  0  0  0  0  0  0  0  0  0  0
    9.6210   -0.6952   24.0976 C   0  0  0  0  0  0  0  0  0  0  0  0
    7.0792   -9.0217   17.1429 C   0  0  0  0  0  0  0  0  0  0  0  0
    3.1713  -10.1816   17.6634 C   0  0  0  0  0  0  0  0  0  0  0  0
    2.7878   -8.3822   16.2137 C   0  0  0  0  0  0  0  0  0  0  0  0
    9.4601   -2.6590   25.6528 C   0  0  0  0  0  0  0  0  0  0  0  0
   10.1182   -1.5672   23.1165 C   0  0  0  0  0  0  0  0  0  0  0  0
    1.0552   -9.6360   17.0650 C   0  0  0  0  0  0  0  0  0  0  0  0
    3.6519   -9.1783   16.9039 C   0  0  0  0  0  0  0  0  0  0  0  0
    7.8675   -7.0096   15.9415 C   0  0  0  0  0  0  0  0  0  0  0  0
    5.9733   -9.6553   17.3832 N   0  0  0  0  0  0  0  0  0  0  0  0
   10.2411   -2.9363   23.4301 C   0  0  0  0  0  0  0  0  0  0  0  0
   10.7288   -3.8197   19.9525 C   0  0  0  0  0  0  0  0  0  0  0  0
   10.1189   -5.0054   19.6987 C   0  0  0  0  0  0  0  0  0  0  0  0
  1  3  4  0
  1  7  4  0
  2 21  4  0
  2 27  4  0
  3  9  4  0
  3 10  4  0
  4  8  4  0
  4 18  4  0
  4 25  1  0
  5  9  4  0
  5 12  4  0
  6 13  1  0
  6 27  1  0
  7 28  4  0
  8 11  4  0
  9 29  4  0
 10 12  4  0
 11 24  1  0
 11 26  4  0
 12 25  1  0
 13 28  1  0
 14 20  4  0
 14 23  4  0
 15 17  4  0
 15 21  4  0
 16 19  4  0
 16 23  4  0
 17 22  4  0
 18 26  4  0
 19 24  4  0
 20 24  4  0
 22 27  4  0
 28 29  4  0
M  END
$$$$

 Created by Python create_sdf_string function

 29 33  0  0  0  0  0  0  0  0999 V2000
   10.7215   -3.3326   17.6437 C   0  0  0  0  0  0  0  0  0  0  0  0
    9.9489   -3.4675   24.6487 N   0  0  0  0  0  0  0  0  0  0  0  0
   10.0172   -4.4740   17.4101 C   0  0  0  0  0  0  0  0  0  0  0  0
    6.9051   -7.9575   16.4222 C   0  0  0  0  0  0  0  0  0  0  0  0
    8.9969   -6.3552   17.9668 N   0  0  0  0  0  0  0  0  0  0  0  0
   10.6702   -3.9051   22.4070 C   0  0  0  0  0  0  0  0  0  0  0  0
   11.0625   -3.0028   18.8894 C   0  0  0  0  0  0  0  0  0  0  0  0
    5.6180   -7.9194   16.1754 O   0  0  0  0  0  0  0  0  0  0  0  0
    9.7259   -5.3080   18.4485 C   0  0  0  0  0  0  0  0  0  0  0  0
    9.4578   -5.0200   16.3036 N   0  0  0  0  0  0  0  0  0  0  0  0
    5.0287   -8.9365   16.8223 C   0  0  0  0  0  0  0  0  0  0  0  0
    8.7742   -6.1498   16.6764 C   0  0  0  0  0  0  0  0  0  0  0  0
   10.9418   -3.4032   21.2053 O   0  0  0  0  0  0  0  0  0  0  0  0
    1.4797   -8.6258   16.2950 C   0  0  0  0  0  0  0  0  0  0  0  0
    9.2861   -1.2743   25.3585 C   0  0  0  0  0  0  0  0  0  0  0  0
    1.8892  -10.3985   17.7511 N   0  0  0  0  0  0  0  0  0  0  0  0
    9.6210   -0.6952   24.0976 C   0  0  0  0  0  0  0  0  0  0  0  0
    7.0792   -9.0217   17.1429 C   0  0  0  0  0  0  0  0  0  0  0  0
    3.1713  -10.1816   17.6634 C   0  0  0  0  0  0  0  0  0  0  0  0
    2.7878   -8.3822   16.2137 C   0  0  0  0  0  0  0  0  0  0  0  0
    9.4601   -2.6590   25.6528 C   0  0  0  0  0  0  0  0  0  0  0  0
   10.1182   -1.5672   23.1165 C   0  0  0  0  0  0  0  0  0  0  0  0
    1.0552   -9.6360   17.0650 C   0  0  0  0  0  0  0  0  0  0  0  0
    3.6519   -9.1783   16.9039 C   0  0  0  0  0  0  0  0  0  0  0  0
    7.8675   -7.0096   15.9415 C   0  0  0  0  0  0  0  0  0  0  0  0
    5.9733   -9.6553   17.3832 N   0  0  0  0  0  0  0  0  0  0  0  0
   10.2411   -2.9363   23.4301 C   0  0  0  0  0  0  0  0  0  0  0  0
   10.7288   -3.8197   19.9525 C   0  0  0  0  0  0  0  0  0  0  0  0
   10.1189   -5.0054   19.6987 C   0  0  0  0  0  0  0  0  0  0  0  0
  1  3  4  0
  1  7  4  0
  2 21  4  0
  2 27  4  0
  3  9  4  0
  3 10  4  0
  4  8  4  0
  4 18  4  0
  4 25  1  0
  5  9  4  0
  5 12  4  0
  6 13  1  0
  6 27  1  0
  7 28  4  0
  8 11  4  0
  9 29  4  0
 10 12  4  0
 11 24  1  0
 11 26  4  0
 12 25  1  0
 13 28  1  0
 14 20  4  0
 14 23  4  0
 15 17  4  0
 15 21  4  0
 16 19  4  0
 16 23  4  0
 17 22  4  0
 18 26  4  0
 19 24  4  0
 20 24  4  0
 22 27  4  0
 28 29  4  0
M  END
$$$$

 Created by Python create_sdf_string function

 29 33  0  0  0  0  0  0  0  0999 V2000
   10.7215   -3.3326   17.6437 C   0  0  0  0  0  0  0  0  0  0  0  0
    9.9489   -3.4675   24.6487 N   0  0  0  0  0  0  0  0  0  0  0  0
   10.0172   -4.4740   17.4101 C   0  0  0  0  0  0  0  0  0  0  0  0
    6.9051   -7.9575   16.4222 C   0  0  0  0  0  0  0  0  0  0  0  0
    8.9969   -6.3552   17.9668 N   0  0  0  0  0  0  0  0  0  0  0  0
   10.6702   -3.9051   22.4070 C   0  0  0  0  0  0  0  0  0  0  0  0
   11.0625   -3.0028   18.8894 C   0  0  0  0  0  0  0  0  0  0  0  0
    5.6180   -7.9194   16.1754 O   0  0  0  0  0  0  0  0  0  0  0  0
    9.7259   -5.3080   18.4485 C   0  0  0  0  0  0  0  0  0  0  0  0
    9.4578   -5.0200   16.3036 N   0  0  0  0  0  0  0  0  0  0  0  0
    5.0287   -8.9365   16.8223 C   0  0  0  0  0  0  0  0  0  0  0  0
    8.7742   -6.1498   16.6764 C   0  0  0  0  0  0  0  0  0  0  0  0
   10.9418   -3.4032   21.2053 O   0  0  0  0  0  0  0  0  0  0  0  0
    1.4797   -8.6258   16.2950 C   0  0  0  0  0  0  0  0  0  0  0  0
    9.2861   -1.2743   25.3585 C   0  0  0  0  0  0  0  0  0  0  0  0
    1.8892  -10.3985   17.7511 N   0  0  0  0  0  0  0  0  0  0  0  0
    9.6210   -0.6952   24.0976 C   0  0  0  0  0  0  0  0  0  0  0  0
    7.0792   -9.0217   17.1429 C   0  0  0  0  0  0  0  0  0  0  0  0
    3.1713  -10.1816   17.6634 C   0  0  0  0  0  0  0  0  0  0  0  0
    2.7878   -8.3822   16.2137 C   0  0  0  0  0  0  0  0  0  0  0  0
    9.4601   -2.6590   25.6528 C   0  0  0  0  0  0  0  0  0  0  0  0
   10.1182   -1.5672   23.1165 C   0  0  0  0  0  0  0  0  0  0  0  0
    1.0552   -9.6360   17.0650 C   0  0  0  0  0  0  0  0  0  0  0  0
    3.6519   -9.1783   16.9039 C   0  0  0  0  0  0  0  0  0  0  0  0
    7.8675   -7.0096   15.9415 C   0  0  0  0  0  0  0  0  0  0  0  0
    5.9733   -9.6553   17.3832 N   0  0  0  0  0  0  0  0  0  0  0  0
   10.2411   -2.9363   23.4301 C   0  0  0  0  0  0  0  0  0  0  0  0
   10.7288   -3.8197   19.9525 C   0  0  0  0  0  0  0  0  0  0  0  0
   10.1189   -5.0054   19.6987 C   0  0  0  0  0  0  0  0  0  0  0  0
  1  3  4  0
  1  7  4  0
  2 21  4  0
  2 27  4  0
  3  9  4  0
  3 10  4  0
  4  8  4  0
  4 18  4  0
  4 25  1  0
  5  9  4  0
  5 12  4  0
  6 13  1  0
  6 27  1  0
  7 28  4  0
  8 11  4  0
  9 29  4  0
 10 12  4  0
 11 24  1  0
 11 26  4  0
 12 25  1  0
 13 28  1  0
 14 20  4  0
 14 23  4  0
 15 17  4  0
 15 21  4  0
 16 19  4  0
 16 23  4  0
 17 22  4  0
 18 26  4  0
 19 24  4  0
 20 24  4  0
 22 27  4  0
 28 29  4  0
M  END
$$$$

 Created by Python create_sdf_string function

 29 33  0  0  0  0  0  0  0  0999 V2000
   10.7215   -3.3326   17.6437 C   0  0  0  0  0  0  0  0  0  0  0  0
    9.9489   -3.4675   24.6487 N   0  0  0  0  0  0  0  0  0  0  0  0
   10.0172   -4.4740   17.4101 C   0  0  0  0  0  0  0  0  0  0  0  0
    6.9051   -7.9575   16.4222 C   0  0  0  0  0  0  0  0  0  0  0  0
    8.9969   -6.3552   17.9668 N   0  0  0  0  0  0  0  0  0  0  0  0
   10.6702   -3.9051   22.4070 C   0  0  0  0  0  0  0  0  0  0  0  0
   11.0625   -3.0028   18.8894 C   0  0  0  0  0  0  0  0  0  0  0  0
    5.6180   -7.9194   16.1754 O   0  0  0  0  0  0  0  0  0  0  0  0
    9.7259   -5.3080   18.4485 C   0  0  0  0  0  0  0  0  0  0  0  0
    9.4578   -5.0200   16.3036 N   0  0  0  0  0  0  0  0  0  0  0  0
    5.0287   -8.9365   16.8223 C   0  0  0  0  0  0  0  0  0  0  0  0
    8.7742   -6.1498   16.6764 C   0  0  0  0  0  0  0  0  0  0  0  0
   10.9418   -3.4032   21.2053 O   0  0  0  0  0  0  0  0  0  0  0  0
    1.4797   -8.6258   16.2950 C   0  0  0  0  0  0  0  0  0  0  0  0
    9.2861   -1.2743   25.3585 C   0  0  0  0  0  0  0  0  0  0  0  0
    1.8892  -10.3985   17.7511 N   0  0  0  0  0  0  0  0  0  0  0  0
    9.6210   -0.6952   24.0976 C   0  0  0  0  0  0  0  0  0  0  0  0
    7.0792   -9.0217   17.1429 C   0  0  0  0  0  0  0  0  0  0  0  0
    3.1713  -10.1816   17.6634 C   0  0  0  0  0  0  0  0  0  0  0  0
    2.7878   -8.3822   16.2137 C   0  0  0  0  0  0  0  0  0  0  0  0
    9.4601   -2.6590   25.6528 C   0  0  0  0  0  0  0  0  0  0  0  0
   10.1182   -1.5672   23.1165 C   0  0  0  0  0  0  0  0  0  0  0  0
    1.0552   -9.6360   17.0650 C   0  0  0  0  0  0  0  0  0  0  0  0
    3.6519   -9.1783   16.9039 C   0  0  0  0  0  0  0  0  0  0  0  0
    7.8675   -7.0096   15.9415 C   0  0  0  0  0  0  0  0  0  0  0  0
    5.9733   -9.6553   17.3832 N   0  0  0  0  0  0  0  0  0  0  0  0
   10.2411   -2.9363   23.4301 C   0  0  0  0  0  0  0  0  0  0  0  0
   10.7288   -3.8197   19.9525 C   0  0  0  0  0  0  0  0  0  0  0  0
   10.1189   -5.0054   19.6987 C   0  0  0  0  0  0  0  0  0  0  0  0
  1  3  4  0
  1  7  4  0
  2 21  4  0
  2 27  4  0
  3  9  4  0
  3 10  4  0
  4  8  4  0
  4 18  4  0
  4 25  1  0
  5  9  4  0
  5 12  4  0
  6 13  1  0
  6 27  1  0
  7 28  4  0
  8 11  4  0
  9 29  4  0
 10 12  4  0
 11 24  1  0
 11 26  4  0
 12 25  1  0
 13 28  1  0
 14 20  4  0
 14 23  4  0
 15 17  4  0
 15 21  4  0
 16 19  4  0
 16 23  4  0
 17 22  4  0
 18 26  4  0
 19 24  4  0
 20 24  4  0
 22 27  4  0
 28 29  4  0
M  END
$$$$

 Created by Python create_sdf_string function

 29 33  0  0  0  0  0  0  0  0999 V2000
   10.7215   -3.3326   17.6437 C   0  0  0  0  0  0  0  0  0  0  0  0
    9.9489   -3.4675   24.6487 N   0  0  0  0  0  0  0  0  0  0  0  0
   10.0172   -4.4740   17.4101 C   0  0  0  0  0  0  0  0  0  0  0  0
    6.9051   -7.9575   16.4222 C   0  0  0  0  0  0  0  0  0  0  0  0
    8.9969   -6.3552   17.9668 N   0  0  0  0  0  0  0  0  0  0  0  0
   10.6702   -3.9051   22.4070 C   0  0  0  0  0  0  0  0  0  0  0  0
   11.0625   -3.0028   18.8894 C   0  0  0  0  0  0  0  0  0  0  0  0
    5.6180   -7.9194   16.1754 O   0  0  0  0  0  0  0  0  0  0  0  0
    9.7259   -5.3080   18.4485 C   0  0  0  0  0  0  0  0  0  0  0  0
    9.4578   -5.0200   16.3036 N   0  0  0  0  0  0  0  0  0  0  0  0
    5.0287   -8.9365   16.8223 C   0  0  0  0  0  0  0  0  0  0  0  0
    8.7742   -6.1498   16.6764 C   0  0  0  0  0  0  0  0  0  0  0  0
   10.9418   -3.4032   21.2053 O   0  0  0  0  0  0  0  0  0  0  0  0
    1.4797   -8.6258   16.2950 C   0  0  0  0  0  0  0  0  0  0  0  0
    9.2861   -1.2743   25.3585 C   0  0  0  0  0  0  0  0  0  0  0  0
    1.8892  -10.3985   17.7511 N   0  0  0  0  0  0  0  0  0  0  0  0
    9.6210   -0.6952   24.0976 C   0  0  0  0  0  0  0  0  0  0  0  0
    7.0792   -9.0217   17.1429 C   0  0  0  0  0  0  0  0  0  0  0  0
    3.1713  -10.1816   17.6634 C   0  0  0  0  0  0  0  0  0  0  0  0
    2.7878   -8.3822   16.2137 C   0  0  0  0  0  0  0  0  0  0  0  0
    9.4601   -2.6590   25.6528 C   0  0  0  0  0  0  0  0  0  0  0  0
   10.1182   -1.5672   23.1165 C   0  0  0  0  0  0  0  0  0  0  0  0
    1.0552   -9.6360   17.0650 C   0  0  0  0  0  0  0  0  0  0  0  0
    3.6519   -9.1783   16.9039 C   0  0  0  0  0  0  0  0  0  0  0  0
    7.8675   -7.0096   15.9415 C   0  0  0  0  0  0  0  0  0  0  0  0
    5.9733   -9.6553   17.3832 N   0  0  0  0  0  0  0  0  0  0  0  0
   10.2411   -2.9363   23.4301 C   0  0  0  0  0  0  0  0  0  0  0  0
   10.7288   -3.8197   19.9525 C   0  0  0  0  0  0  0  0  0  0  0  0
   10.1189   -5.0054   19.6987 C   0  0  0  0  0  0  0  0  0  0  0  0
  1  3  4  0
  1  7  4  0
  2 21  4  0
  2 27  4  0
  3  9  4  0
  3 10  4  0
  4  8  4  0
  4 18  4  0
  4 25  1  0
  5  9  4  0
  5 12  4  0
  6 13  1  0
  6 27  1  0
  7 28  4  0
  8 11  4  0
  9 29  4  0
 10 12  4  0
 11 24  1  0
 11 26  4  0
 12 25  1  0
 13 28  1  0
 14 20  4  0
 14 23  4  0
 15 17  4  0
 15 21  4  0
 16 19  4  0
 16 23  4  0
 17 22  4  0
 18 26  4  0
 19 24  4  0
 20 24  4  0
 22 27  4  0
 28 29  4  0
M  END
$$$$

 Created by Python create_sdf_string function

 29 33  0  0  0  0  0  0  0  0999 V2000
   10.7215   -3.3326   17.6437 C   0  0  0  0  0  0  0  0  0  0  0  0
    9.9489   -3.4675   24.6487 N   0  0  0  0  0  0  0  0  0  0  0  0
   10.0172   -4.4740   17.4101 C   0  0  0  0  0  0  0  0  0  0  0  0
    6.9051   -7.9575   16.4222 C   0  0  0  0  0  0  0  0  0  0  0  0
    8.9969   -6.3552   17.9668 N   0  0  0  0  0  0  0  0  0  0  0  0
   10.6702   -3.9051   22.4070 C   0  0  0  0  0  0  0  0  0  0  0  0
   11.0625   -3.0028   18.8894 C   0  0  0  0  0  0  0  0  0  0  0  0
    5.6180   -7.9194   16.1754 O   0  0  0  0  0  0  0  0  0  0  0  0
    9.7259   -5.3080   18.4485 C   0  0  0  0  0  0  0  0  0  0  0  0
    9.4578   -5.0200   16.3036 N   0  0  0  0  0  0  0  0  0  0  0  0
    5.0287   -8.9365   16.8223 C   0  0  0  0  0  0  0  0  0  0  0  0
    8.7742   -6.1498   16.6764 C   0  0  0  0  0  0  0  0  0  0  0  0
   10.9418   -3.4032   21.2053 O   0  0  0  0  0  0  0  0  0  0  0  0
    1.4797   -8.6258   16.2950 C   0  0  0  0  0  0  0  0  0  0  0  0
    9.2861   -1.2743   25.3585 C   0  0  0  0  0  0  0  0  0  0  0  0
    1.8892  -10.3985   17.7511 N   0  0  0  0  0  0  0  0  0  0  0  0
    9.6210   -0.6952   24.0976 C   0  0  0  0  0  0  0  0  0  0  0  0
    7.0792   -9.0217   17.1429 C   0  0  0  0  0  0  0  0  0  0  0  0
    3.1713  -10.1816   17.6634 C   0  0  0  0  0  0  0  0  0  0  0  0
    2.7878   -8.3822   16.2137 C   0  0  0  0  0  0  0  0  0  0  0  0
    9.4601   -2.6590   25.6528 C   0  0  0  0  0  0  0  0  0  0  0  0
   10.1182   -1.5672   23.1165 C   0  0  0  0  0  0  0  0  0  0  0  0
    1.0552   -9.6360   17.0650 C   0  0  0  0  0  0  0  0  0  0  0  0
    3.6519   -9.1783   16.9039 C   0  0  0  0  0  0  0  0  0  0  0  0
    7.8675   -7.0096   15.9415 C   0  0  0  0  0  0  0  0  0  0  0  0
    5.9733   -9.6553   17.3832 N   0  0  0  0  0  0  0  0  0  0  0  0
   10.2411   -2.9363   23.4301 C   0  0  0  0  0  0  0  0  0  0  0  0
   10.7288   -3.8197   19.9525 C   0  0  0  0  0  0  0  0  0  0  0  0
   10.1189   -5.0054   19.6987 C   0  0  0  0  0  0  0  0  0  0  0  0
  1  3  4  0
  1  7  4  0
  2 21  4  0
  2 27  4  0
  3  9  4  0
  3 10  4  0
  4  8  4  0
  4 18  4  0
  4 25  1  0
  5  9  4  0
  5 12  4  0
  6 13  1  0
  6 27  1  0
  7 28  4  0
  8 11  4  0
  9 29  4  0
 10 12  4  0
 11 24  1  0
 11 26  4  0
 12 25  1  0
 13 28  1  0
 14 20  4  0
 14 23  4  0
 15 17  4  0
 15 21  4  0
 16 19  4  0
 16 23  4  0
 17 22  4  0
 18 26  4  0
 19 24  4  0
 20 24  4  0
 22 27  4  0
 28 29  4  0
M  END
$$$$

 Created by Python create_sdf_string function

 29 33  0  0  0  0  0  0  0  0999 V2000
   10.7215   -3.3326   17.6437 C   0  0  0  0  0  0  0  0  0  0  0  0
    9.9489   -3.4675   24.6487 N   0  0  0  0  0  0  0  0  0  0  0  0
   10.0172   -4.4740   17.4101 C   0  0  0  0  0  0  0  0  0  0  0  0
    6.9051   -7.9575   16.4222 C   0  0  0  0  0  0  0  0  0  0  0  0
    8.9969   -6.3552   17.9668 N   0  0  0  0  0  0  0  0  0  0  0  0
   10.6702   -3.9051   22.4070 C   0  0  0  0  0  0  0  0  0  0  0  0
   11.0625   -3.0028   18.8894 C   0  0  0  0  0  0  0  0  0  0  0  0
    5.6180   -7.9194   16.1754 O   0  0  0  0  0  0  0  0  0  0  0  0
    9.7259   -5.3080   18.4485 C   0  0  0  0  0  0  0  0  0  0  0  0
    9.4578   -5.0200   16.3036 N   0  0  0  0  0  0  0  0  0  0  0  0
    5.0287   -8.9365   16.8223 C   0  0  0  0  0  0  0  0  0  0  0  0
    8.7742   -6.1498   16.6764 C   0  0  0  0  0  0  0  0  0  0  0  0
   10.9418   -3.4032   21.2053 O   0  0  0  0  0  0  0  0  0  0  0  0
    1.4797   -8.6258   16.2950 C   0  0  0  0  0  0  0  0  0  0  0  0
    9.2861   -1.2743   25.3585 C   0  0  0  0  0  0  0  0  0  0  0  0
    1.8892  -10.3985   17.7511 N   0  0  0  0  0  0  0  0  0  0  0  0
    9.6210   -0.6952   24.0976 C   0  0  0  0  0  0  0  0  0  0  0  0
    7.0792   -9.0217   17.1429 C   0  0  0  0  0  0  0  0  0  0  0  0
    3.1713  -10.1816   17.6634 C   0  0  0  0  0  0  0  0  0  0  0  0
    2.7878   -8.3822   16.2137 C   0  0  0  0  0  0  0  0  0  0  0  0
    9.4601   -2.6590   25.6528 C   0  0  0  0  0  0  0  0  0  0  0  0
   10.1182   -1.5672   23.1165 C   0  0  0  0  0  0  0  0  0  0  0  0
    1.0552   -9.6360   17.0650 C   0  0  0  0  0  0  0  0  0  0  0  0
    3.6519   -9.1783   16.9039 C   0  0  0  0  0  0  0  0  0  0  0  0
    7.8675   -7.0096   15.9415 C   0  0  0  0  0  0  0  0  0  0  0  0
    5.9733   -9.6553   17.3832 N   0  0  0  0  0  0  0  0  0  0  0  0
   10.2411   -2.9363   23.4301 C   0  0  0  0  0  0  0  0  0  0  0  0
   10.7288   -3.8197   19.9525 C   0  0  0  0  0  0  0  0  0  0  0  0
   10.1189   -5.0054   19.6987 C   0  0  0  0  0  0  0  0  0  0  0  0
  1  3  4  0
  1  7  4  0
  2 21  4  0
  2 27  4  0
  3  9  4  0
  3 10  4  0
  4  8  4  0
  4 18  4  0
  4 25  1  0
  5  9  4  0
  5 12  4  0
  6 13  1  0
  6 27  1  0
  7 28  4  0
  8 11  4  0
  9 29  4  0
 10 12  4  0
 11 24  1  0
 11 26  4  0
 12 25  1  0
 13 28  1  0
 14 20  4  0
 14 23  4  0
 15 17  4  0
 15 21  4  0
 16 19  4  0
 16 23  4  0
 17 22  4  0
 18 26  4  0
 19 24  4  0
 20 24  4  0
 22 27  4  0
 28 29  4  0
M  END
$$$$

 Created by Python create_sdf_string function

 29 33  0  0  0  0  0  0  0  0999 V2000
   10.7215   -3.3326   17.6437 C   0  0  0  0  0  0  0  0  0  0  0  0
    9.9489   -3.4675   24.6487 N   0  0  0  0  0  0  0  0  0  0  0  0
   10.0172   -4.4740   17.4101 C   0  0  0  0  0  0  0  0  0  0  0  0
    6.9051   -7.9575   16.4222 C   0  0  0  0  0  0  0  0  0  0  0  0
    8.9969   -6.3552   17.9668 N   0  0  0  0  0  0  0  0  0  0  0  0
   10.6702   -3.9051   22.4070 C   0  0  0  0  0  0  0  0  0  0  0  0
   11.0625   -3.0028   18.8894 C   0  0  0  0  0  0  0  0  0  0  0  0
    5.6180   -7.9194   16.1754 O   0  0  0  0  0  0  0  0  0  0  0  0
    9.7259   -5.3080   18.4485 C   0  0  0  0  0  0  0  0  0  0  0  0
    9.4578   -5.0200   16.3036 N   0  0  0  0  0  0  0  0  0  0  0  0
    5.0287   -8.9365   16.8223 C   0  0  0  0  0  0  0  0  0  0  0  0
    8.7742   -6.1498   16.6764 C   0  0  0  0  0  0  0  0  0  0  0  0
   10.9418   -3.4032   21.2053 O   0  0  0  0  0  0  0  0  0  0  0  0
    1.4797   -8.6258   16.2950 C   0  0  0  0  0  0  0  0  0  0  0  0
    9.2861   -1.2743   25.3585 C   0  0  0  0  0  0  0  0  0  0  0  0
    1.8892  -10.3985   17.7511 N   0  0  0  0  0  0  0  0  0  0  0  0
    9.6210   -0.6952   24.0976 C   0  0  0  0  0  0  0  0  0  0  0  0
    7.0792   -9.0217   17.1429 C   0  0  0  0  0  0  0  0  0  0  0  0
    3.1713  -10.1816   17.6634 C   0  0  0  0  0  0  0  0  0  0  0  0
    2.7878   -8.3822   16.2137 C   0  0  0  0  0  0  0  0  0  0  0  0
    9.4601   -2.6590   25.6528 C   0  0  0  0  0  0  0  0  0  0  0  0
   10.1182   -1.5672   23.1165 C   0  0  0  0  0  0  0  0  0  0  0  0
    1.0552   -9.6360   17.0650 C   0  0  0  0  0  0  0  0  0  0  0  0
    3.6519   -9.1783   16.9039 C   0  0  0  0  0  0  0  0  0  0  0  0
    7.8675   -7.0096   15.9415 C   0  0  0  0  0  0  0  0  0  0  0  0
    5.9733   -9.6553   17.3832 N   0  0  0  0  0  0  0  0  0  0  0  0
   10.2411   -2.9363   23.4301 C   0  0  0  0  0  0  0  0  0  0  0  0
   10.7288   -3.8197   19.9525 C   0  0  0  0  0  0  0  0  0  0  0  0
   10.1189   -5.0054   19.6987 C   0  0  0  0  0  0  0  0  0  0  0  0
  1  3  4  0
  1  7  4  0
  2 21  4  0
  2 27  4  0
  3  9  4  0
  3 10  4  0
  4  8  4  0
  4 18  4  0
  4 25  1  0
  5  9  4  0
  5 12  4  0
  6 13  1  0
  6 27  1  0
  7 28  4  0
  8 11  4  0
  9 29  4  0
 10 12  4  0
 11 24  1  0
 11 26  4  0
 12 25  1  0
 13 28  1  0
 14 20  4  0
 14 23  4  0
 15 17  4  0
 15 21  4  0
 16 19  4  0
 16 23  4  0
 17 22  4  0
 18 26  4  0
 19 24  4  0
 20 24  4  0
 22 27  4  0
 28 29  4  0
M  END
$$$$

 Created by Python create_sdf_string function

 29 33  0  0  0  0  0  0  0  0999 V2000
   10.7215   -3.3326   17.6437 C   0  0  0  0  0  0  0  0  0  0  0  0
    9.9489   -3.4675   24.6487 N   0  0  0  0  0  0  0  0  0  0  0  0
   10.0172   -4.4740   17.4101 C   0  0  0  0  0  0  0  0  0  0  0  0
    6.9051   -7.9575   16.4222 C   0  0  0  0  0  0  0  0  0  0  0  0
    8.9969   -6.3552   17.9668 N   0  0  0  0  0  0  0  0  0  0  0  0
   10.6702   -3.9051   22.4070 C   0  0  0  0  0  0  0  0  0  0  0  0
   11.0625   -3.0028   18.8894 C   0  0  0  0  0  0  0  0  0  0  0  0
    5.6180   -7.9194   16.1754 O   0  0  0  0  0  0  0  0  0  0  0  0
    9.7259   -5.3080   18.4485 C   0  0  0  0  0  0  0  0  0  0  0  0
    9.4578   -5.0200   16.3036 N   0  0  0  0  0  0  0  0  0  0  0  0
    5.0287   -8.9365   16.8223 C   0  0  0  0  0  0  0  0  0  0  0  0
    8.7742   -6.1498   16.6764 C   0  0  0  0  0  0  0  0  0  0  0  0
   10.9418   -3.4032   21.2053 O   0  0  0  0  0  0  0  0  0  0  0  0
    1.4797   -8.6258   16.2950 C   0  0  0  0  0  0  0  0  0  0  0  0
    9.2861   -1.2743   25.3585 C   0  0  0  0  0  0  0  0  0  0  0  0
    1.8892  -10.3985   17.7511 N   0  0  0  0  0  0  0  0  0  0  0  0
    9.6210   -0.6952   24.0976 C   0  0  0  0  0  0  0  0  0  0  0  0
    7.0792   -9.0217   17.1429 C   0  0  0  0  0  0  0  0  0  0  0  0
    3.1713  -10.1816   17.6634 C   0  0  0  0  0  0  0  0  0  0  0  0
    2.7878   -8.3822   16.2137 C   0  0  0  0  0  0  0  0  0  0  0  0
    9.4601   -2.6590   25.6528 C   0  0  0  0  0  0  0  0  0  0  0  0
   10.1182   -1.5672   23.1165 C   0  0  0  0  0  0  0  0  0  0  0  0
    1.0552   -9.6360   17.0650 C   0  0  0  0  0  0  0  0  0  0  0  0
    3.6519   -9.1783   16.9039 C   0  0  0  0  0  0  0  0  0  0  0  0
    7.8675   -7.0096   15.9415 C   0  0  0  0  0  0  0  0  0  0  0  0
    5.9733   -9.6553   17.3832 N   0  0  0  0  0  0  0  0  0  0  0  0
   10.2411   -2.9363   23.4301 C   0  0  0  0  0  0  0  0  0  0  0  0
   10.7288   -3.8197   19.9525 C   0  0  0  0  0  0  0  0  0  0  0  0
   10.1189   -5.0054   19.6987 C   0  0  0  0  0  0  0  0  0  0  0  0
  1  3  4  0
  1  7  4  0
  2 21  4  0
  2 27  4  0
  3  9  4  0
  3 10  4  0
  4  8  4  0
  4 18  4  0
  4 25  1  0
  5  9  4  0
  5 12  4  0
  6 13  1  0
  6 27  1  0
  7 28  4  0
  8 11  4  0
  9 29  4  0
 10 12  4  0
 11 24  1  0
 11 26  4  0
 12 25  1  0
 13 28  1  0
 14 20  4  0
 14 23  4  0
 15 17  4  0
 15 21  4  0
 16 19  4  0
 16 23  4  0
 17 22  4  0
 18 26  4  0
 19 24  4  0
 20 24  4  0
 22 27  4  0
 28 29  4  0
M  END
$$$$

 Created by Python create_sdf_string function

 29 33  0  0  0  0  0  0  0  0999 V2000
   10.7215   -3.3326   17.6437 C   0  0  0  0  0  0  0  0  0  0  0  0
    9.9489   -3.4675   24.6487 N   0  0  0  0  0  0  0  0  0  0  0  0
   10.0172   -4.4740   17.4101 C   0  0  0  0  0  0  0  0  0  0  0  0
    6.9051   -7.9575   16.4222 C   0  0  0  0  0  0  0  0  0  0  0  0
    8.9969   -6.3552   17.9668 N   0  0  0  0  0  0  0  0  0  0  0  0
   10.6702   -3.9051   22.4070 C   0  0  0  0  0  0  0  0  0  0  0  0
   11.0625   -3.0028   18.8894 C   0  0  0  0  0  0  0  0  0  0  0  0
    5.6180   -7.9194   16.1754 O   0  0  0  0  0  0  0  0  0  0  0  0
    9.7259   -5.3080   18.4485 C   0  0  0  0  0  0  0  0  0  0  0  0
    9.4578   -5.0200   16.3036 N   0  0  0  0  0  0  0  0  0  0  0  0
    5.0287   -8.9365   16.8223 C   0  0  0  0  0  0  0  0  0  0  0  0
    8.7742   -6.1498   16.6764 C   0  0  0  0  0  0  0  0  0  0  0  0
   10.9418   -3.4032   21.2053 O   0  0  0  0  0  0  0  0  0  0  0  0
    1.4797   -8.6258   16.2950 C   0  0  0  0  0  0  0  0  0  0  0  0
    9.2861   -1.2743   25.3585 C   0  0  0  0  0  0  0  0  0  0  0  0
    1.8892  -10.3985   17.7511 N   0  0  0  0  0  0  0  0  0  0  0  0
    9.6210   -0.6952   24.0976 C   0  0  0  0  0  0  0  0  0  0  0  0
    7.0792   -9.0217   17.1429 C   0  0  0  0  0  0  0  0  0  0  0  0
    3.1713  -10.1816   17.6634 C   0  0  0  0  0  0  0  0  0  0  0  0
    2.7878   -8.3822   16.2137 C   0  0  0  0  0  0  0  0  0  0  0  0
    9.4601   -2.6590   25.6528 C   0  0  0  0  0  0  0  0  0  0  0  0
   10.1182   -1.5672   23.1165 C   0  0  0  0  0  0  0  0  0  0  0  0
    1.0552   -9.6360   17.0650 C   0  0  0  0  0  0  0  0  0  0  0  0
    3.6519   -9.1783   16.9039 C   0  0  0  0  0  0  0  0  0  0  0  0
    7.8675   -7.0096   15.9415 C   0  0  0  0  0  0  0  0  0  0  0  0
    5.9733   -9.6553   17.3832 N   0  0  0  0  0  0  0  0  0  0  0  0
   10.2411   -2.9363   23.4301 C   0  0  0  0  0  0  0  0  0  0  0  0
   10.7288   -3.8197   19.9525 C   0  0  0  0  0  0  0  0  0  0  0  0
   10.1189   -5.0054   19.6987 C   0  0  0  0  0  0  0  0  0  0  0  0
  1  3  4  0
  1  7  4  0
  2 21  4  0
  2 27  4  0
  3  9  4  0
  3 10  4  0
  4  8  4  0
  4 18  4  0
  4 25  1  0
  5  9  4  0
  5 12  4  0
  6 13  1  0
  6 27  1  0
  7 28  4  0
  8 11  4  0
  9 29  4  0
 10 12  4  0
 11 24  1  0
 11 26  4  0
 12 25  1  0
 13 28  1  0
 14 20  4  0
 14 23  4  0
 15 17  4  0
 15 21  4  0
 16 19  4  0
 16 23  4  0
 17 22  4  0
 18 26  4  0
 19 24  4  0
 20 24  4  0
 22 27  4  0
 28 29  4  0
M  END
$$$$

 Created by Python create_sdf_string function

 29 33  0  0  0  0  0  0  0  0999 V2000
   10.7215   -3.3326   17.6437 C   0  0  0  0  0  0  0  0  0  0  0  0
    9.9489   -3.4675   24.6487 N   0  0  0  0  0  0  0  0  0  0  0  0
   10.0172   -4.4740   17.4101 C   0  0  0  0  0  0  0  0  0  0  0  0
    6.9051   -7.9575   16.4222 C   0  0  0  0  0  0  0  0  0  0  0  0
    8.9969   -6.3552   17.9668 N   0  0  0  0  0  0  0  0  0  0  0  0
   10.6702   -3.9051   22.4070 C   0  0  0  0  0  0  0  0  0  0  0  0
   11.0625   -3.0028   18.8894 C   0  0  0  0  0  0  0  0  0  0  0  0
    5.6180   -7.9194   16.1754 O   0  0  0  0  0  0  0  0  0  0  0  0
    9.7259   -5.3080   18.4485 C   0  0  0  0  0  0  0  0  0  0  0  0
    9.4578   -5.0200   16.3036 N   0  0  0  0  0  0  0  0  0  0  0  0
    5.0287   -8.9365   16.8223 C   0  0  0  0  0  0  0  0  0  0  0  0
    8.7742   -6.1498   16.6764 C   0  0  0  0  0  0  0  0  0  0  0  0
   10.9418   -3.4032   21.2053 O   0  0  0  0  0  0  0  0  0  0  0  0
    1.4797   -8.6258   16.2950 C   0  0  0  0  0  0  0  0  0  0  0  0
    9.2861   -1.2743   25.3585 C   0  0  0  0  0  0  0  0  0  0  0  0
    1.8892  -10.3985   17.7511 N   0  0  0  0  0  0  0  0  0  0  0  0
    9.6210   -0.6952   24.0976 C   0  0  0  0  0  0  0  0  0  0  0  0
    7.0792   -9.0217   17.1429 C   0  0  0  0  0  0  0  0  0  0  0  0
    3.1713  -10.1816   17.6634 C   0  0  0  0  0  0  0  0  0  0  0  0
    2.7878   -8.3822   16.2137 C   0  0  0  0  0  0  0  0  0  0  0  0
    9.4601   -2.6590   25.6528 C   0  0  0  0  0  0  0  0  0  0  0  0
   10.1182   -1.5672   23.1165 C   0  0  0  0  0  0  0  0  0  0  0  0
    1.0552   -9.6360   17.0650 C   0  0  0  0  0  0  0  0  0  0  0  0
    3.6519   -9.1783   16.9039 C   0  0  0  0  0  0  0  0  0  0  0  0
    7.8675   -7.0096   15.9415 C   0  0  0  0  0  0  0  0  0  0  0  0
    5.9733   -9.6553   17.3832 N   0  0  0  0  0  0  0  0  0  0  0  0
   10.2411   -2.9363   23.4301 C   0  0  0  0  0  0  0  0  0  0  0  0
   10.7288   -3.8197   19.9525 C   0  0  0  0  0  0  0  0  0  0  0  0
   10.1189   -5.0054   19.6987 C   0  0  0  0  0  0  0  0  0  0  0  0
  1  3  4  0
  1  7  4  0
  2 21  4  0
  2 27  4  0
  3  9  4  0
  3 10  4  0
  4  8  4  0
  4 18  4  0
  4 25  1  0
  5  9  4  0
  5 12  4  0
  6 13  1  0
  6 27  1  0
  7 28  4  0
  8 11  4  0
  9 29  4  0
 10 12  4  0
 11 24  1  0
 11 26  4  0
 12 25  1  0
 13 28  1  0
 14 20  4  0
 14 23  4  0
 15 17  4  0
 15 21  4  0
 16 19  4  0
 16 23  4  0
 17 22  4  0
 18 26  4  0
 19 24  4  0
 20 24  4  0
 22 27  4  0
 28 29  4  0
M  END
$$$$

 Created by Python create_sdf_string function

 29 33  0  0  0  0  0  0  0  0999 V2000
   10.7215   -3.3326   17.6437 C   0  0  0  0  0  0  0  0  0  0  0  0
    9.9489   -3.4675   24.6487 N   0  0  0  0  0  0  0  0  0  0  0  0
   10.0172   -4.4740   17.4101 C   0  0  0  0  0  0  0  0  0  0  0  0
    6.9051   -7.9575   16.4222 C   0  0  0  0  0  0  0  0  0  0  0  0
    8.9969   -6.3552   17.9668 N   0  0  0  0  0  0  0  0  0  0  0  0
   10.6702   -3.9051   22.4070 C   0  0  0  0  0  0  0  0  0  0  0  0
   11.0625   -3.0028   18.8894 C   0  0  0  0  0  0  0  0  0  0  0  0
    5.6180   -7.9194   16.1754 O   0  0  0  0  0  0  0  0  0  0  0  0
    9.7259   -5.3080   18.4485 C   0  0  0  0  0  0  0  0  0  0  0  0
    9.4578   -5.0200   16.3036 N   0  0  0  0  0  0  0  0  0  0  0  0
    5.0287   -8.9365   16.8223 C   0  0  0  0  0  0  0  0  0  0  0  0
    8.7742   -6.1498   16.6764 C   0  0  0  0  0  0  0  0  0  0  0  0
   10.9418   -3.4032   21.2053 O   0  0  0  0  0  0  0  0  0  0  0  0
    1.4797   -8.6258   16.2950 C   0  0  0  0  0  0  0  0  0  0  0  0
    9.2861   -1.2743   25.3585 C   0  0  0  0  0  0  0  0  0  0  0  0
    1.8892  -10.3985   17.7511 N   0  0  0  0  0  0  0  0  0  0  0  0
    9.6210   -0.6952   24.0976 C   0  0  0  0  0  0  0  0  0  0  0  0
    7.0792   -9.0217   17.1429 C   0  0  0  0  0  0  0  0  0  0  0  0
    3.1713  -10.1816   17.6634 C   0  0  0  0  0  0  0  0  0  0  0  0
    2.7878   -8.3822   16.2137 C   0  0  0  0  0  0  0  0  0  0  0  0
    9.4601   -2.6590   25.6528 C   0  0  0  0  0  0  0  0  0  0  0  0
   10.1182   -1.5672   23.1165 C   0  0  0  0  0  0  0  0  0  0  0  0
    1.0552   -9.6360   17.0650 C   0  0  0  0  0  0  0  0  0  0  0  0
    3.6519   -9.1783   16.9039 C   0  0  0  0  0  0  0  0  0  0  0  0
    7.8675   -7.0096   15.9415 C   0  0  0  0  0  0  0  0  0  0  0  0
    5.9733   -9.6553   17.3832 N   0  0  0  0  0  0  0  0  0  0  0  0
   10.2411   -2.9363   23.4301 C   0  0  0  0  0  0  0  0  0  0  0  0
   10.7288   -3.8197   19.9525 C   0  0  0  0  0  0  0  0  0  0  0  0
   10.1189   -5.0054   19.6987 C   0  0  0  0  0  0  0  0  0  0  0  0
  1  3  4  0
  1  7  4  0
  2 21  4  0
  2 27  4  0
  3  9  4  0
  3 10  4  0
  4  8  4  0
  4 18  4  0
  4 25  1  0
  5  9  4  0
  5 12  4  0
  6 13  1  0
  6 27  1  0
  7 28  4  0
  8 11  4  0
  9 29  4  0
 10 12  4  0
 11 24  1  0
 11 26  4  0
 12 25  1  0
 13 28  1  0
 14 20  4  0
 14 23  4  0
 15 17  4  0
 15 21  4  0
 16 19  4  0
 16 23  4  0
 17 22  4  0
 18 26  4  0
 19 24  4  0
 20 24  4  0
 22 27  4  0
 28 29  4  0
M  END
$$$$

 Created by Python create_sdf_string function

 29 33  0  0  0  0  0  0  0  0999 V2000
   10.7215   -3.3326   17.6437 C   0  0  0  0  0  0  0  0  0  0  0  0
    9.9489   -3.4675   24.6487 N   0  0  0  0  0  0  0  0  0  0  0  0
   10.0172   -4.4740   17.4101 C   0  0  0  0  0  0  0  0  0  0  0  0
    6.9051   -7.9575   16.4222 C   0  0  0  0  0  0  0  0  0  0  0  0
    8.9969   -6.3552   17.9668 N   0  0  0  0  0  0  0  0  0  0  0  0
   10.6702   -3.9051   22.4070 C   0  0  0  0  0  0  0  0  0  0  0  0
   11.0625   -3.0028   18.8894 C   0  0  0  0  0  0  0  0  0  0  0  0
    5.6180   -7.9194   16.1754 O   0  0  0  0  0  0  0  0  0  0  0  0
    9.7259   -5.3080   18.4485 C   0  0  0  0  0  0  0  0  0  0  0  0
    9.4578   -5.0200   16.3036 N   0  0  0  0  0  0  0  0  0  0  0  0
    5.0287   -8.9365   16.8223 C   0  0  0  0  0  0  0  0  0  0  0  0
    8.7742   -6.1498   16.6764 C   0  0  0  0  0  0  0  0  0  0  0  0
   10.9418   -3.4032   21.2053 O   0  0  0  0  0  0  0  0  0  0  0  0
    1.4797   -8.6258   16.2950 C   0  0  0  0  0  0  0  0  0  0  0  0
    9.2861   -1.2743   25.3585 C   0  0  0  0  0  0  0  0  0  0  0  0
    1.8892  -10.3985   17.7511 N   0  0  0  0  0  0  0  0  0  0  0  0
    9.6210   -0.6952   24.0976 C   0  0  0  0  0  0  0  0  0  0  0  0
    7.0792   -9.0217   17.1429 C   0  0  0  0  0  0  0  0  0  0  0  0
    3.1713  -10.1816   17.6634 C   0  0  0  0  0  0  0  0  0  0  0  0
    2.7878   -8.3822   16.2137 C   0  0  0  0  0  0  0  0  0  0  0  0
    9.4601   -2.6590   25.6528 C   0  0  0  0  0  0  0  0  0  0  0  0
   10.1182   -1.5672   23.1165 C   0  0  0  0  0  0  0  0  0  0  0  0
    1.0552   -9.6360   17.0650 C   0  0  0  0  0  0  0  0  0  0  0  0
    3.6519   -9.1783   16.9039 C   0  0  0  0  0  0  0  0  0  0  0  0
    7.8675   -7.0096   15.9415 C   0  0  0  0  0  0  0  0  0  0  0  0
    5.9733   -9.6553   17.3832 N   0  0  0  0  0  0  0  0  0  0  0  0
   10.2411   -2.9363   23.4301 C   0  0  0  0  0  0  0  0  0  0  0  0
   10.7288   -3.8197   19.9525 C   0  0  0  0  0  0  0  0  0  0  0  0
   10.1189   -5.0054   19.6987 C   0  0  0  0  0  0  0  0  0  0  0  0
  1  3  4  0
  1  7  4  0
  2 21  4  0
  2 27  4  0
  3  9  4  0
  3 10  4  0
  4  8  4  0
  4 18  4  0
  4 25  1  0
  5  9  4  0
  5 12  4  0
  6 13  1  0
  6 27  1  0
  7 28  4  0
  8 11  4  0
  9 29  4  0
 10 12  4  0
 11 24  1  0
 11 26  4  0
 12 25  1  0
 13 28  1  0
 14 20  4  0
 14 23  4  0
 15 17  4  0
 15 21  4  0
 16 19  4  0
 16 23  4  0
 17 22  4  0
 18 26  4  0
 19 24  4  0
 20 24  4  0
 22 27  4  0
 28 29  4  0
M  END
$$$$

 Created by Python create_sdf_string function

 29 33  0  0  0  0  0  0  0  0999 V2000
   10.7215   -3.3326   17.6437 C   0  0  0  0  0  0  0  0  0  0  0  0
    9.9489   -3.4675   24.6487 N   0  0  0  0  0  0  0  0  0  0  0  0
   10.0172   -4.4740   17.4101 C   0  0  0  0  0  0  0  0  0  0  0  0
    6.9051   -7.9575   16.4222 C   0  0  0  0  0  0  0  0  0  0  0  0
    8.9969   -6.3552   17.9668 N   0  0  0  0  0  0  0  0  0  0  0  0
   10.6702   -3.9051   22.4070 C   0  0  0  0  0  0  0  0  0  0  0  0
   11.0625   -3.0028   18.8894 C   0  0  0  0  0  0  0  0  0  0  0  0
    5.6180   -7.9194   16.1754 O   0  0  0  0  0  0  0  0  0  0  0  0
    9.7259   -5.3080   18.4485 C   0  0  0  0  0  0  0  0  0  0  0  0
    9.4578   -5.0200   16.3036 N   0  0  0  0  0  0  0  0  0  0  0  0
    5.0287   -8.9365   16.8223 C   0  0  0  0  0  0  0  0  0  0  0  0
    8.7742   -6.1498   16.6764 C   0  0  0  0  0  0  0  0  0  0  0  0
   10.9418   -3.4032   21.2053 O   0  0  0  0  0  0  0  0  0  0  0  0
    1.4797   -8.6258   16.2950 C   0  0  0  0  0  0  0  0  0  0  0  0
    9.2861   -1.2743   25.3585 C   0  0  0  0  0  0  0  0  0  0  0  0
    1.8892  -10.3985   17.7511 N   0  0  0  0  0  0  0  0  0  0  0  0
    9.6210   -0.6952   24.0976 C   0  0  0  0  0  0  0  0  0  0  0  0
    7.0792   -9.0217   17.1429 C   0  0  0  0  0  0  0  0  0  0  0  0
    3.1713  -10.1816   17.6634 C   0  0  0  0  0  0  0  0  0  0  0  0
    2.7878   -8.3822   16.2137 C   0  0  0  0  0  0  0  0  0  0  0  0
    9.4601   -2.6590   25.6528 C   0  0  0  0  0  0  0  0  0  0  0  0
   10.1182   -1.5672   23.1165 C   0  0  0  0  0  0  0  0  0  0  0  0
    1.0552   -9.6360   17.0650 C   0  0  0  0  0  0  0  0  0  0  0  0
    3.6519   -9.1783   16.9039 C   0  0  0  0  0  0  0  0  0  0  0  0
    7.8675   -7.0096   15.9415 C   0  0  0  0  0  0  0  0  0  0  0  0
    5.9733   -9.6553   17.3832 N   0  0  0  0  0  0  0  0  0  0  0  0
   10.2411   -2.9363   23.4301 C   0  0  0  0  0  0  0  0  0  0  0  0
   10.7288   -3.8197   19.9525 C   0  0  0  0  0  0  0  0  0  0  0  0
   10.1189   -5.0054   19.6987 C   0  0  0  0  0  0  0  0  0  0  0  0
  1  3  4  0
  1  7  4  0
  2 21  4  0
  2 27  4  0
  3  9  4  0
  3 10  4  0
  4  8  4  0
  4 18  4  0
  4 25  1  0
  5  9  4  0
  5 12  4  0
  6 13  1  0
  6 27  1  0
  7 28  4  0
  8 11  4  0
  9 29  4  0
 10 12  4  0
 11 24  1  0
 11 26  4  0
 12 25  1  0
 13 28  1  0
 14 20  4  0
 14 23  4  0
 15 17  4  0
 15 21  4  0
 16 19  4  0
 16 23  4  0
 17 22  4  0
 18 26  4  0
 19 24  4  0
 20 24  4  0
 22 27  4  0
 28 29  4  0
M  END
$$$$

 Created by Python create_sdf_string function

 29 33  0  0  0  0  0  0  0  0999 V2000
   10.7215   -3.3326   17.6437 C   0  0  0  0  0  0  0  0  0  0  0  0
    9.9489   -3.4675   24.6487 N   0  0  0  0  0  0  0  0  0  0  0  0
   10.0172   -4.4740   17.4101 C   0  0  0  0  0  0  0  0  0  0  0  0
    6.9051   -7.9575   16.4222 C   0  0  0  0  0  0  0  0  0  0  0  0
    8.9969   -6.3552   17.9668 N   0  0  0  0  0  0  0  0  0  0  0  0
   10.6702   -3.9051   22.4070 C   0  0  0  0  0  0  0  0  0  0  0  0
   11.0625   -3.0028   18.8894 C   0  0  0  0  0  0  0  0  0  0  0  0
    5.6180   -7.9194   16.1754 O   0  0  0  0  0  0  0  0  0  0  0  0
    9.7259   -5.3080   18.4485 C   0  0  0  0  0  0  0  0  0  0  0  0
    9.4578   -5.0200   16.3036 N   0  0  0  0  0  0  0  0  0  0  0  0
    5.0287   -8.9365   16.8223 C   0  0  0  0  0  0  0  0  0  0  0  0
    8.7742   -6.1498   16.6764 C   0  0  0  0  0  0  0  0  0  0  0  0
   10.9418   -3.4032   21.2053 O   0  0  0  0  0  0  0  0  0  0  0  0
    1.4797   -8.6258   16.2950 C   0  0  0  0  0  0  0  0  0  0  0  0
    9.2861   -1.2743   25.3585 C   0  0  0  0  0  0  0  0  0  0  0  0
    1.8892  -10.3985   17.7511 N   0  0  0  0  0  0  0  0  0  0  0  0
    9.6210   -0.6952   24.0976 C   0  0  0  0  0  0  0  0  0  0  0  0
    7.0792   -9.0217   17.1429 C   0  0  0  0  0  0  0  0  0  0  0  0
    3.1713  -10.1816   17.6634 C   0  0  0  0  0  0  0  0  0  0  0  0
    2.7878   -8.3822   16.2137 C   0  0  0  0  0  0  0  0  0  0  0  0
    9.4601   -2.6590   25.6528 C   0  0  0  0  0  0  0  0  0  0  0  0
   10.1182   -1.5672   23.1165 C   0  0  0  0  0  0  0  0  0  0  0  0
    1.0552   -9.6360   17.0650 C   0  0  0  0  0  0  0  0  0  0  0  0
    3.6519   -9.1783   16.9039 C   0  0  0  0  0  0  0  0  0  0  0  0
    7.8675   -7.0096   15.9415 C   0  0  0  0  0  0  0  0  0  0  0  0
    5.9733   -9.6553   17.3832 N   0  0  0  0  0  0  0  0  0  0  0  0
   10.2411   -2.9363   23.4301 C   0  0  0  0  0  0  0  0  0  0  0  0
   10.7288   -3.8197   19.9525 C   0  0  0  0  0  0  0  0  0  0  0  0
   10.1189   -5.0054   19.6987 C   0  0  0  0  0  0  0  0  0  0  0  0
  1  3  4  0
  1  7  4  0
  2 21  4  0
  2 27  4  0
  3  9  4  0
  3 10  4  0
  4  8  4  0
  4 18  4  0
  4 25  1  0
  5  9  4  0
  5 12  4  0
  6 13  1  0
  6 27  1  0
  7 28  4  0
  8 11  4  0
  9 29  4  0
 10 12  4  0
 11 24  1  0
 11 26  4  0
 12 25  1  0
 13 28  1  0
 14 20  4  0
 14 23  4  0
 15 17  4  0
 15 21  4  0
 16 19  4  0
 16 23  4  0
 17 22  4  0
 18 26  4  0
 19 24  4  0
 20 24  4  0
 22 27  4  0
 28 29  4  0
M  END
$$$$

 Created by Python create_sdf_string function

 29 33  0  0  0  0  0  0  0  0999 V2000
   10.7215   -3.3326   17.6437 C   0  0  0  0  0  0  0  0  0  0  0  0
    9.9489   -3.4675   24.6487 N   0  0  0  0  0  0  0  0  0  0  0  0
   10.0172   -4.4740   17.4101 C   0  0  0  0  0  0  0  0  0  0  0  0
    6.9051   -7.9575   16.4222 C   0  0  0  0  0  0  0  0  0  0  0  0
    8.9969   -6.3552   17.9668 N   0  0  0  0  0  0  0  0  0  0  0  0
   10.6702   -3.9051   22.4070 C   0  0  0  0  0  0  0  0  0  0  0  0
   11.0625   -3.0028   18.8894 C   0  0  0  0  0  0  0  0  0  0  0  0
    5.6180   -7.9194   16.1754 O   0  0  0  0  0  0  0  0  0  0  0  0
    9.7259   -5.3080   18.4485 C   0  0  0  0  0  0  0  0  0  0  0  0
    9.4578   -5.0200   16.3036 N   0  0  0  0  0  0  0  0  0  0  0  0
    5.0287   -8.9365   16.8223 C   0  0  0  0  0  0  0  0  0  0  0  0
    8.7742   -6.1498   16.6764 C   0  0  0  0  0  0  0  0  0  0  0  0
   10.9418   -3.4032   21.2053 O   0  0  0  0  0  0  0  0  0  0  0  0
    1.4797   -8.6258   16.2950 C   0  0  0  0  0  0  0  0  0  0  0  0
    9.2861   -1.2743   25.3585 C   0  0  0  0  0  0  0  0  0  0  0  0
    1.8892  -10.3985   17.7511 N   0  0  0  0  0  0  0  0  0  0  0  0
    9.6210   -0.6952   24.0976 C   0  0  0  0  0  0  0  0  0  0  0  0
    7.0792   -9.0217   17.1429 C   0  0  0  0  0  0  0  0  0  0  0  0
    3.1713  -10.1816   17.6634 C   0  0  0  0  0  0  0  0  0  0  0  0
    2.7878   -8.3822   16.2137 C   0  0  0  0  0  0  0  0  0  0  0  0
    9.4601   -2.6590   25.6528 C   0  0  0  0  0  0  0  0  0  0  0  0
   10.1182   -1.5672   23.1165 C   0  0  0  0  0  0  0  0  0  0  0  0
    1.0552   -9.6360   17.0650 C   0  0  0  0  0  0  0  0  0  0  0  0
    3.6519   -9.1783   16.9039 C   0  0  0  0  0  0  0  0  0  0  0  0
    7.8675   -7.0096   15.9415 C   0  0  0  0  0  0  0  0  0  0  0  0
    5.9733   -9.6553   17.3832 N   0  0  0  0  0  0  0  0  0  0  0  0
   10.2411   -2.9363   23.4301 C   0  0  0  0  0  0  0  0  0  0  0  0
   10.7288   -3.8197   19.9525 C   0  0  0  0  0  0  0  0  0  0  0  0
   10.1189   -5.0054   19.6987 C   0  0  0  0  0  0  0  0  0  0  0  0
  1  3  4  0
  1  7  4  0
  2 21  4  0
  2 27  4  0
  3  9  4  0
  3 10  4  0
  4  8  4  0
  4 18  4  0
  4 25  1  0
  5  9  4  0
  5 12  4  0
  6 13  1  0
  6 27  1  0
  7 28  4  0
  8 11  4  0
  9 29  4  0
 10 12  4  0
 11 24  1  0
 11 26  4  0
 12 25  1  0
 13 28  1  0
 14 20  4  0
 14 23  4  0
 15 17  4  0
 15 21  4  0
 16 19  4  0
 16 23  4  0
 17 22  4  0
 18 26  4  0
 19 24  4  0
 20 24  4  0
 22 27  4  0
 28 29  4  0
M  END
$$$$

 Created by Python create_sdf_string function

 29 33  0  0  0  0  0  0  0  0999 V2000
   10.7215   -3.3326   17.6437 C   0  0  0  0  0  0  0  0  0  0  0  0
    9.9489   -3.4675   24.6487 N   0  0  0  0  0  0  0  0  0  0  0  0
   10.0172   -4.4740   17.4101 C   0  0  0  0  0  0  0  0  0  0  0  0
    6.9051   -7.9575   16.4222 C   0  0  0  0  0  0  0  0  0  0  0  0
    8.9969   -6.3552   17.9668 N   0  0  0  0  0  0  0  0  0  0  0  0
   10.6702   -3.9051   22.4070 C   0  0  0  0  0  0  0  0  0  0  0  0
   11.0625   -3.0028   18.8894 C   0  0  0  0  0  0  0  0  0  0  0  0
    5.6180   -7.9194   16.1754 O   0  0  0  0  0  0  0  0  0  0  0  0
    9.7259   -5.3080   18.4485 C   0  0  0  0  0  0  0  0  0  0  0  0
    9.4578   -5.0200   16.3036 N   0  0  0  0  0  0  0  0  0  0  0  0
    5.0287   -8.9365   16.8223 C   0  0  0  0  0  0  0  0  0  0  0  0
    8.7742   -6.1498   16.6764 C   0  0  0  0  0  0  0  0  0  0  0  0
   10.9418   -3.4032   21.2053 O   0  0  0  0  0  0  0  0  0  0  0  0
    1.4797   -8.6258   16.2950 C   0  0  0  0  0  0  0  0  0  0  0  0
    9.2861   -1.2743   25.3585 C   0  0  0  0  0  0  0  0  0  0  0  0
    1.8892  -10.3985   17.7511 N   0  0  0  0  0  0  0  0  0  0  0  0
    9.6210   -0.6952   24.0976 C   0  0  0  0  0  0  0  0  0  0  0  0
    7.0792   -9.0217   17.1429 C   0  0  0  0  0  0  0  0  0  0  0  0
    3.1713  -10.1816   17.6634 C   0  0  0  0  0  0  0  0  0  0  0  0
    2.7878   -8.3822   16.2137 C   0  0  0  0  0  0  0  0  0  0  0  0
    9.4601   -2.6590   25.6528 C   0  0  0  0  0  0  0  0  0  0  0  0
   10.1182   -1.5672   23.1165 C   0  0  0  0  0  0  0  0  0  0  0  0
    1.0552   -9.6360   17.0650 C   0  0  0  0  0  0  0  0  0  0  0  0
    3.6519   -9.1783   16.9039 C   0  0  0  0  0  0  0  0  0  0  0  0
    7.8675   -7.0096   15.9415 C   0  0  0  0  0  0  0  0  0  0  0  0
    5.9733   -9.6553   17.3832 N   0  0  0  0  0  0  0  0  0  0  0  0
   10.2411   -2.9363   23.4301 C   0  0  0  0  0  0  0  0  0  0  0  0
   10.7288   -3.8197   19.9525 C   0  0  0  0  0  0  0  0  0  0  0  0
   10.1189   -5.0054   19.6987 C   0  0  0  0  0  0  0  0  0  0  0  0
  1  3  4  0
  1  7  4  0
  2 21  4  0
  2 27  4  0
  3  9  4  0
  3 10  4  0
  4  8  4  0
  4 18  4  0
  4 25  1  0
  5  9  4  0
  5 12  4  0
  6 13  1  0
  6 27  1  0
  7 28  4  0
  8 11  4  0
  9 29  4  0
 10 12  4  0
 11 24  1  0
 11 26  4  0
 12 25  1  0
 13 28  1  0
 14 20  4  0
 14 23  4  0
 15 17  4  0
 15 21  4  0
 16 19  4  0
 16 23  4  0
 17 22  4  0
 18 26  4  0
 19 24  4  0
 20 24  4  0
 22 27  4  0
 28 29  4  0
M  END
$$$$

 Created by Python create_sdf_string function

 29 33  0  0  0  0  0  0  0  0999 V2000
   10.7215   -3.3326   17.6437 C   0  0  0  0  0  0  0  0  0  0  0  0
    9.9489   -3.4675   24.6487 N   0  0  0  0  0  0  0  0  0  0  0  0
   10.0172   -4.4740   17.4101 C   0  0  0  0  0  0  0  0  0  0  0  0
    6.9051   -7.9575   16.4222 C   0  0  0  0  0  0  0  0  0  0  0  0
    8.9969   -6.3552   17.9668 N   0  0  0  0  0  0  0  0  0  0  0  0
   10.6702   -3.9051   22.4070 C   0  0  0  0  0  0  0  0  0  0  0  0
   11.0625   -3.0028   18.8894 C   0  0  0  0  0  0  0  0  0  0  0  0
    5.6180   -7.9194   16.1754 O   0  0  0  0  0  0  0  0  0  0  0  0
    9.7259   -5.3080   18.4485 C   0  0  0  0  0  0  0  0  0  0  0  0
    9.4578   -5.0200   16.3036 N   0  0  0  0  0  0  0  0  0  0  0  0
    5.0287   -8.9365   16.8223 C   0  0  0  0  0  0  0  0  0  0  0  0
    8.7742   -6.1498   16.6764 C   0  0  0  0  0  0  0  0  0  0  0  0
   10.9418   -3.4032   21.2053 O   0  0  0  0  0  0  0  0  0  0  0  0
    1.4797   -8.6258   16.2950 C   0  0  0  0  0  0  0  0  0  0  0  0
    9.2861   -1.2743   25.3585 C   0  0  0  0  0  0  0  0  0  0  0  0
    1.8892  -10.3985   17.7511 N   0  0  0  0  0  0  0  0  0  0  0  0
    9.6210   -0.6952   24.0976 C   0  0  0  0  0  0  0  0  0  0  0  0
    7.0792   -9.0217   17.1429 C   0  0  0  0  0  0  0  0  0  0  0  0
    3.1713  -10.1816   17.6634 C   0  0  0  0  0  0  0  0  0  0  0  0
    2.7878   -8.3822   16.2137 C   0  0  0  0  0  0  0  0  0  0  0  0
    9.4601   -2.6590   25.6528 C   0  0  0  0  0  0  0  0  0  0  0  0
   10.1182   -1.5672   23.1165 C   0  0  0  0  0  0  0  0  0  0  0  0
    1.0552   -9.6360   17.0650 C   0  0  0  0  0  0  0  0  0  0  0  0
    3.6519   -9.1783   16.9039 C   0  0  0  0  0  0  0  0  0  0  0  0
    7.8675   -7.0096   15.9415 C   0  0  0  0  0  0  0  0  0  0  0  0
    5.9733   -9.6553   17.3832 N   0  0  0  0  0  0  0  0  0  0  0  0
   10.2411   -2.9363   23.4301 C   0  0  0  0  0  0  0  0  0  0  0  0
   10.7288   -3.8197   19.9525 C   0  0  0  0  0  0  0  0  0  0  0  0
   10.1189   -5.0054   19.6987 C   0  0  0  0  0  0  0  0  0  0  0  0
  1  3  4  0
  1  7  4  0
  2 21  4  0
  2 27  4  0
  3  9  4  0
  3 10  4  0
  4  8  4  0
  4 18  4  0
  4 25  1  0
  5  9  4  0
  5 12  4  0
  6 13  1  0
  6 27  1  0
  7 28  4  0
  8 11  4  0
  9 29  4  0
 10 12  4  0
 11 24  1  0
 11 26  4  0
 12 25  1  0
 13 28  1  0
 14 20  4  0
 14 23  4  0
 15 17  4  0
 15 21  4  0
 16 19  4  0
 16 23  4  0
 17 22  4  0
 18 26  4  0
 19 24  4  0
 20 24  4  0
 22 27  4  0
 28 29  4  0
M  END
$$$$

 Created by Python create_sdf_string function

 29 33  0  0  0  0  0  0  0  0999 V2000
   10.7215   -3.3326   17.6437 C   0  0  0  0  0  0  0  0  0  0  0  0
    9.9489   -3.4675   24.6487 N   0  0  0  0  0  0  0  0  0  0  0  0
   10.0172   -4.4740   17.4101 C   0  0  0  0  0  0  0  0  0  0  0  0
    6.9051   -7.9575   16.4222 C   0  0  0  0  0  0  0  0  0  0  0  0
    8.9969   -6.3552   17.9668 N   0  0  0  0  0  0  0  0  0  0  0  0
   10.6702   -3.9051   22.4070 C   0  0  0  0  0  0  0  0  0  0  0  0
   11.0625   -3.0028   18.8894 C   0  0  0  0  0  0  0  0  0  0  0  0
    5.6180   -7.9194   16.1754 O   0  0  0  0  0  0  0  0  0  0  0  0
    9.7259   -5.3080   18.4485 C   0  0  0  0  0  0  0  0  0  0  0  0
    9.4578   -5.0200   16.3036 N   0  0  0  0  0  0  0  0  0  0  0  0
    5.0287   -8.9365   16.8223 C   0  0  0  0  0  0  0  0  0  0  0  0
    8.7742   -6.1498   16.6764 C   0  0  0  0  0  0  0  0  0  0  0  0
   10.9418   -3.4032   21.2053 O   0  0  0  0  0  0  0  0  0  0  0  0
    1.4797   -8.6258   16.2950 C   0  0  0  0  0  0  0  0  0  0  0  0
    9.2861   -1.2743   25.3585 C   0  0  0  0  0  0  0  0  0  0  0  0
    1.8892  -10.3985   17.7511 N   0  0  0  0  0  0  0  0  0  0  0  0
    9.6210   -0.6952   24.0976 C   0  0  0  0  0  0  0  0  0  0  0  0
    7.0792   -9.0217   17.1429 C   0  0  0  0  0  0  0  0  0  0  0  0
    3.1713  -10.1816   17.6634 C   0  0  0  0  0  0  0  0  0  0  0  0
    2.7878   -8.3822   16.2137 C   0  0  0  0  0  0  0  0  0  0  0  0
    9.4601   -2.6590   25.6528 C   0  0  0  0  0  0  0  0  0  0  0  0
   10.1182   -1.5672   23.1165 C   0  0  0  0  0  0  0  0  0  0  0  0
    1.0552   -9.6360   17.0650 C   0  0  0  0  0  0  0  0  0  0  0  0
    3.6519   -9.1783   16.9039 C   0  0  0  0  0  0  0  0  0  0  0  0
    7.8675   -7.0096   15.9415 C   0  0  0  0  0  0  0  0  0  0  0  0
    5.9733   -9.6553   17.3832 N   0  0  0  0  0  0  0  0  0  0  0  0
   10.2411   -2.9363   23.4301 C   0  0  0  0  0  0  0  0  0  0  0  0
   10.7288   -3.8197   19.9525 C   0  0  0  0  0  0  0  0  0  0  0  0
   10.1189   -5.0054   19.6987 C   0  0  0  0  0  0  0  0  0  0  0  0
  1  3  4  0
  1  7  4  0
  2 21  4  0
  2 27  4  0
  3  9  4  0
  3 10  4  0
  4  8  4  0
  4 18  4  0
  4 25  1  0
  5  9  4  0
  5 12  4  0
  6 13  1  0
  6 27  1  0
  7 28  4  0
  8 11  4  0
  9 29  4  0
 10 12  4  0
 11 24  1  0
 11 26  4  0
 12 25  1  0
 13 28  1  0
 14 20  4  0
 14 23  4  0
 15 17  4  0
 15 21  4  0
 16 19  4  0
 16 23  4  0
 17 22  4  0
 18 26  4  0
 19 24  4  0
 20 24  4  0
 22 27  4  0
 28 29  4  0
M  END
$$$$

 Created by Python create_sdf_string function

 29 33  0  0  0  0  0  0  0  0999 V2000
   10.7215   -3.3326   17.6437 C   0  0  0  0  0  0  0  0  0  0  0  0
    9.9489   -3.4675   24.6487 N   0  0  0  0  0  0  0  0  0  0  0  0
   10.0172   -4.4740   17.4101 C   0  0  0  0  0  0  0  0  0  0  0  0
    6.9051   -7.9575   16.4222 C   0  0  0  0  0  0  0  0  0  0  0  0
    8.9969   -6.3552   17.9668 N   0  0  0  0  0  0  0  0  0  0  0  0
   10.6702   -3.9051   22.4070 C   0  0  0  0  0  0  0  0  0  0  0  0
   11.0625   -3.0028   18.8894 C   0  0  0  0  0  0  0  0  0  0  0  0
    5.6180   -7.9194   16.1754 O   0  0  0  0  0  0  0  0  0  0  0  0
    9.7259   -5.3080   18.4485 C   0  0  0  0  0  0  0  0  0  0  0  0
    9.4578   -5.0200   16.3036 N   0  0  0  0  0  0  0  0  0  0  0  0
    5.0287   -8.9365   16.8223 C   0  0  0  0  0  0  0  0  0  0  0  0
    8.7742   -6.1498   16.6764 C   0  0  0  0  0  0  0  0  0  0  0  0
   10.9418   -3.4032   21.2053 O   0  0  0  0  0  0  0  0  0  0  0  0
    1.4797   -8.6258   16.2950 C   0  0  0  0  0  0  0  0  0  0  0  0
    9.2861   -1.2743   25.3585 C   0  0  0  0  0  0  0  0  0  0  0  0
    1.8892  -10.3985   17.7511 N   0  0  0  0  0  0  0  0  0  0  0  0
    9.6210   -0.6952   24.0976 C   0  0  0  0  0  0  0  0  0  0  0  0
    7.0792   -9.0217   17.1429 C   0  0  0  0  0  0  0  0  0  0  0  0
    3.1713  -10.1816   17.6634 C   0  0  0  0  0  0  0  0  0  0  0  0
    2.7878   -8.3822   16.2137 C   0  0  0  0  0  0  0  0  0  0  0  0
    9.4601   -2.6590   25.6528 C   0  0  0  0  0  0  0  0  0  0  0  0
   10.1182   -1.5672   23.1165 C   0  0  0  0  0  0  0  0  0  0  0  0
    1.0552   -9.6360   17.0650 C   0  0  0  0  0  0  0  0  0  0  0  0
    3.6519   -9.1783   16.9039 C   0  0  0  0  0  0  0  0  0  0  0  0
    7.8675   -7.0096   15.9415 C   0  0  0  0  0  0  0  0  0  0  0  0
    5.9733   -9.6553   17.3832 N   0  0  0  0  0  0  0  0  0  0  0  0
   10.2411   -2.9363   23.4301 C   0  0  0  0  0  0  0  0  0  0  0  0
   10.7288   -3.8197   19.9525 C   0  0  0  0  0  0  0  0  0  0  0  0
   10.1189   -5.0054   19.6987 C   0  0  0  0  0  0  0  0  0  0  0  0
  1  3  4  0
  1  7  4  0
  2 21  4  0
  2 27  4  0
  3  9  4  0
  3 10  4  0
  4  8  4  0
  4 18  4  0
  4 25  1  0
  5  9  4  0
  5 12  4  0
  6 13  1  0
  6 27  1  0
  7 28  4  0
  8 11  4  0
  9 29  4  0
 10 12  4  0
 11 24  1  0
 11 26  4  0
 12 25  1  0
 13 28  1  0
 14 20  4  0
 14 23  4  0
 15 17  4  0
 15 21  4  0
 16 19  4  0
 16 23  4  0
 17 22  4  0
 18 26  4  0
 19 24  4  0
 20 24  4  0
 22 27  4  0
 28 29  4  0
M  END
$$$$

 Created by Python create_sdf_string function

 29 33  0  0  0  0  0  0  0  0999 V2000
   10.7215   -3.3326   17.6437 C   0  0  0  0  0  0  0  0  0  0  0  0
    9.9489   -3.4675   24.6487 N   0  0  0  0  0  0  0  0  0  0  0  0
   10.0172   -4.4740   17.4101 C   0  0  0  0  0  0  0  0  0  0  0  0
    6.9051   -7.9575   16.4222 C   0  0  0  0  0  0  0  0  0  0  0  0
    8.9969   -6.3552   17.9668 N   0  0  0  0  0  0  0  0  0  0  0  0
   10.6702   -3.9051   22.4070 C   0  0  0  0  0  0  0  0  0  0  0  0
   11.0625   -3.0028   18.8894 C   0  0  0  0  0  0  0  0  0  0  0  0
    5.6180   -7.9194   16.1754 O   0  0  0  0  0  0  0  0  0  0  0  0
    9.7259   -5.3080   18.4485 C   0  0  0  0  0  0  0  0  0  0  0  0
    9.4578   -5.0200   16.3036 N   0  0  0  0  0  0  0  0  0  0  0  0
    5.0287   -8.9365   16.8223 C   0  0  0  0  0  0  0  0  0  0  0  0
    8.7742   -6.1498   16.6764 C   0  0  0  0  0  0  0  0  0  0  0  0
   10.9418   -3.4032   21.2053 O   0  0  0  0  0  0  0  0  0  0  0  0
    1.4797   -8.6258   16.2950 C   0  0  0  0  0  0  0  0  0  0  0  0
    9.2861   -1.2743   25.3585 C   0  0  0  0  0  0  0  0  0  0  0  0
    1.8892  -10.3985   17.7511 N   0  0  0  0  0  0  0  0  0  0  0  0
    9.6210   -0.6952   24.0976 C   0  0  0  0  0  0  0  0  0  0  0  0
    7.0792   -9.0217   17.1429 C   0  0  0  0  0  0  0  0  0  0  0  0
    3.1713  -10.1816   17.6634 C   0  0  0  0  0  0  0  0  0  0  0  0
    2.7878   -8.3822   16.2137 C   0  0  0  0  0  0  0  0  0  0  0  0
    9.4601   -2.6590   25.6528 C   0  0  0  0  0  0  0  0  0  0  0  0
   10.1182   -1.5672   23.1165 C   0  0  0  0  0  0  0  0  0  0  0  0
    1.0552   -9.6360   17.0650 C   0  0  0  0  0  0  0  0  0  0  0  0
    3.6519   -9.1783   16.9039 C   0  0  0  0  0  0  0  0  0  0  0  0
    7.8675   -7.0096   15.9415 C   0  0  0  0  0  0  0  0  0  0  0  0
    5.9733   -9.6553   17.3832 N   0  0  0  0  0  0  0  0  0  0  0  0
   10.2411   -2.9363   23.4301 C   0  0  0  0  0  0  0  0  0  0  0  0
   10.7288   -3.8197   19.9525 C   0  0  0  0  0  0  0  0  0  0  0  0
   10.1189   -5.0054   19.6987 C   0  0  0  0  0  0  0  0  0  0  0  0
  1  3  4  0
  1  7  4  0
  2 21  4  0
  2 27  4  0
  3  9  4  0
  3 10  4  0
  4  8  4  0
  4 18  4  0
  4 25  1  0
  5  9  4  0
  5 12  4  0
  6 13  1  0
  6 27  1  0
  7 28  4  0
  8 11  4  0
  9 29  4  0
 10 12  4  0
 11 24  1  0
 11 26  4  0
 12 25  1  0
 13 28  1  0
 14 20  4  0
 14 23  4  0
 15 17  4  0
 15 21  4  0
 16 19  4  0
 16 23  4  0
 17 22  4  0
 18 26  4  0
 19 24  4  0
 20 24  4  0
 22 27  4  0
 28 29  4  0
M  END
$$$$

 Created by Python create_sdf_string function

 29 33  0  0  0  0  0  0  0  0999 V2000
   10.7215   -3.3326   17.6437 C   0  0  0  0  0  0  0  0  0  0  0  0
    9.9489   -3.4675   24.6487 N   0  0  0  0  0  0  0  0  0  0  0  0
   10.0172   -4.4740   17.4101 C   0  0  0  0  0  0  0  0  0  0  0  0
    6.9051   -7.9575   16.4222 C   0  0  0  0  0  0  0  0  0  0  0  0
    8.9969   -6.3552   17.9668 N   0  0  0  0  0  0  0  0  0  0  0  0
   10.6702   -3.9051   22.4070 C   0  0  0  0  0  0  0  0  0  0  0  0
   11.0625   -3.0028   18.8894 C   0  0  0  0  0  0  0  0  0  0  0  0
    5.6180   -7.9194   16.1754 O   0  0  0  0  0  0  0  0  0  0  0  0
    9.7259   -5.3080   18.4485 C   0  0  0  0  0  0  0  0  0  0  0  0
    9.4578   -5.0200   16.3036 N   0  0  0  0  0  0  0  0  0  0  0  0
    5.0287   -8.9365   16.8223 C   0  0  0  0  0  0  0  0  0  0  0  0
    8.7742   -6.1498   16.6764 C   0  0  0  0  0  0  0  0  0  0  0  0
   10.9418   -3.4032   21.2053 O   0  0  0  0  0  0  0  0  0  0  0  0
    1.4797   -8.6258   16.2950 C   0  0  0  0  0  0  0  0  0  0  0  0
    9.2861   -1.2743   25.3585 C   0  0  0  0  0  0  0  0  0  0  0  0
    1.8892  -10.3985   17.7511 N   0  0  0  0  0  0  0  0  0  0  0  0
    9.6210   -0.6952   24.0976 C   0  0  0  0  0  0  0  0  0  0  0  0
    7.0792   -9.0217   17.1429 C   0  0  0  0  0  0  0  0  0  0  0  0
    3.1713  -10.1816   17.6634 C   0  0  0  0  0  0  0  0  0  0  0  0
    2.7878   -8.3822   16.2137 C   0  0  0  0  0  0  0  0  0  0  0  0
    9.4601   -2.6590   25.6528 C   0  0  0  0  0  0  0  0  0  0  0  0
   10.1182   -1.5672   23.1165 C   0  0  0  0  0  0  0  0  0  0  0  0
    1.0552   -9.6360   17.0650 C   0  0  0  0  0  0  0  0  0  0  0  0
    3.6519   -9.1783   16.9039 C   0  0  0  0  0  0  0  0  0  0  0  0
    7.8675   -7.0096   15.9415 C   0  0  0  0  0  0  0  0  0  0  0  0
    5.9733   -9.6553   17.3832 N   0  0  0  0  0  0  0  0  0  0  0  0
   10.2411   -2.9363   23.4301 C   0  0  0  0  0  0  0  0  0  0  0  0
   10.7288   -3.8197   19.9525 C   0  0  0  0  0  0  0  0  0  0  0  0
   10.1189   -5.0054   19.6987 C   0  0  0  0  0  0  0  0  0  0  0  0
  1  3  4  0
  1  7  4  0
  2 21  4  0
  2 27  4  0
  3  9  4  0
  3 10  4  0
  4  8  4  0
  4 18  4  0
  4 25  1  0
  5  9  4  0
  5 12  4  0
  6 13  1  0
  6 27  1  0
  7 28  4  0
  8 11  4  0
  9 29  4  0
 10 12  4  0
 11 24  1  0
 11 26  4  0
 12 25  1  0
 13 28  1  0
 14 20  4  0
 14 23  4  0
 15 17  4  0
 15 21  4  0
 16 19  4  0
 16 23  4  0
 17 22  4  0
 18 26  4  0
 19 24  4  0
 20 24  4  0
 22 27  4  0
 28 29  4  0
M  END
$$$$

 Created by Python create_sdf_string function

 29 33  0  0  0  0  0  0  0  0999 V2000
   10.7215   -3.3326   17.6437 C   0  0  0  0  0  0  0  0  0  0  0  0
    9.9489   -3.4675   24.6487 N   0  0  0  0  0  0  0  0  0  0  0  0
   10.0172   -4.4740   17.4101 C   0  0  0  0  0  0  0  0  0  0  0  0
    6.9051   -7.9575   16.4222 C   0  0  0  0  0  0  0  0  0  0  0  0
    8.9969   -6.3552   17.9668 N   0  0  0  0  0  0  0  0  0  0  0  0
   10.6702   -3.9051   22.4070 C   0  0  0  0  0  0  0  0  0  0  0  0
   11.0625   -3.0028   18.8894 C   0  0  0  0  0  0  0  0  0  0  0  0
    5.6180   -7.9194   16.1754 O   0  0  0  0  0  0  0  0  0  0  0  0
    9.7259   -5.3080   18.4485 C   0  0  0  0  0  0  0  0  0  0  0  0
    9.4578   -5.0200   16.3036 N   0  0  0  0  0  0  0  0  0  0  0  0
    5.0287   -8.9365   16.8223 C   0  0  0  0  0  0  0  0  0  0  0  0
    8.7742   -6.1498   16.6764 C   0  0  0  0  0  0  0  0  0  0  0  0
   10.9418   -3.4032   21.2053 O   0  0  0  0  0  0  0  0  0  0  0  0
    1.4797   -8.6258   16.2950 C   0  0  0  0  0  0  0  0  0  0  0  0
    9.2861   -1.2743   25.3585 C   0  0  0  0  0  0  0  0  0  0  0  0
    1.8892  -10.3985   17.7511 N   0  0  0  0  0  0  0  0  0  0  0  0
    9.6210   -0.6952   24.0976 C   0  0  0  0  0  0  0  0  0  0  0  0
    7.0792   -9.0217   17.1429 C   0  0  0  0  0  0  0  0  0  0  0  0
    3.1713  -10.1816   17.6634 C   0  0  0  0  0  0  0  0  0  0  0  0
    2.7878   -8.3822   16.2137 C   0  0  0  0  0  0  0  0  0  0  0  0
    9.4601   -2.6590   25.6528 C   0  0  0  0  0  0  0  0  0  0  0  0
   10.1182   -1.5672   23.1165 C   0  0  0  0  0  0  0  0  0  0  0  0
    1.0552   -9.6360   17.0650 C   0  0  0  0  0  0  0  0  0  0  0  0
    3.6519   -9.1783   16.9039 C   0  0  0  0  0  0  0  0  0  0  0  0
    7.8675   -7.0096   15.9415 C   0  0  0  0  0  0  0  0  0  0  0  0
    5.9733   -9.6553   17.3832 N   0  0  0  0  0  0  0  0  0  0  0  0
   10.2411   -2.9363   23.4301 C   0  0  0  0  0  0  0  0  0  0  0  0
   10.7288   -3.8197   19.9525 C   0  0  0  0  0  0  0  0  0  0  0  0
   10.1189   -5.0054   19.6987 C   0  0  0  0  0  0  0  0  0  0  0  0
  1  3  4  0
  1  7  4  0
  2 21  4  0
  2 27  4  0
  3  9  4  0
  3 10  4  0
  4  8  4  0
  4 18  4  0
  4 25  1  0
  5  9  4  0
  5 12  4  0
  6 13  1  0
  6 27  1  0
  7 28  4  0
  8 11  4  0
  9 29  4  0
 10 12  4  0
 11 24  1  0
 11 26  4  0
 12 25  1  0
 13 28  1  0
 14 20  4  0
 14 23  4  0
 15 17  4  0
 15 21  4  0
 16 19  4  0
 16 23  4  0
 17 22  4  0
 18 26  4  0
 19 24  4  0
 20 24  4  0
 22 27  4  0
 28 29  4  0
M  END
$$$$

 Created by Python create_sdf_string function

 29 33  0  0  0  0  0  0  0  0999 V2000
   10.7215   -3.3326   17.6437 C   0  0  0  0  0  0  0  0  0  0  0  0
    9.9489   -3.4675   24.6487 N   0  0  0  0  0  0  0  0  0  0  0  0
   10.0172   -4.4740   17.4101 C   0  0  0  0  0  0  0  0  0  0  0  0
    6.9051   -7.9575   16.4222 C   0  0  0  0  0  0  0  0  0  0  0  0
    8.9969   -6.3552   17.9668 N   0  0  0  0  0  0  0  0  0  0  0  0
   10.6702   -3.9051   22.4070 C   0  0  0  0  0  0  0  0  0  0  0  0
   11.0625   -3.0028   18.8894 C   0  0  0  0  0  0  0  0  0  0  0  0
    5.6180   -7.9194   16.1754 O   0  0  0  0  0  0  0  0  0  0  0  0
    9.7259   -5.3080   18.4485 C   0  0  0  0  0  0  0  0  0  0  0  0
    9.4578   -5.0200   16.3036 N   0  0  0  0  0  0  0  0  0  0  0  0
    5.0287   -8.9365   16.8223 C   0  0  0  0  0  0  0  0  0  0  0  0
    8.7742   -6.1498   16.6764 C   0  0  0  0  0  0  0  0  0  0  0  0
   10.9418   -3.4032   21.2053 O   0  0  0  0  0  0  0  0  0  0  0  0
    1.4797   -8.6258   16.2950 C   0  0  0  0  0  0  0  0  0  0  0  0
    9.2861   -1.2743   25.3585 C   0  0  0  0  0  0  0  0  0  0  0  0
    1.8892  -10.3985   17.7511 N   0  0  0  0  0  0  0  0  0  0  0  0
    9.6210   -0.6952   24.0976 C   0  0  0  0  0  0  0  0  0  0  0  0
    7.0792   -9.0217   17.1429 C   0  0  0  0  0  0  0  0  0  0  0  0
    3.1713  -10.1816   17.6634 C   0  0  0  0  0  0  0  0  0  0  0  0
    2.7878   -8.3822   16.2137 C   0  0  0  0  0  0  0  0  0  0  0  0
    9.4601   -2.6590   25.6528 C   0  0  0  0  0  0  0  0  0  0  0  0
   10.1182   -1.5672   23.1165 C   0  0  0  0  0  0  0  0  0  0  0  0
    1.0552   -9.6360   17.0650 C   0  0  0  0  0  0  0  0  0  0  0  0
    3.6519   -9.1783   16.9039 C   0  0  0  0  0  0  0  0  0  0  0  0
    7.8675   -7.0096   15.9415 C   0  0  0  0  0  0  0  0  0  0  0  0
    5.9733   -9.6553   17.3832 N   0  0  0  0  0  0  0  0  0  0  0  0
   10.2411   -2.9363   23.4301 C   0  0  0  0  0  0  0  0  0  0  0  0
   10.7288   -3.8197   19.9525 C   0  0  0  0  0  0  0  0  0  0  0  0
   10.1189   -5.0054   19.6987 C   0  0  0  0  0  0  0  0  0  0  0  0
  1  3  4  0
  1  7  4  0
  2 21  4  0
  2 27  4  0
  3  9  4  0
  3 10  4  0
  4  8  4  0
  4 18  4  0
  4 25  1  0
  5  9  4  0
  5 12  4  0
  6 13  1  0
  6 27  1  0
  7 28  4  0
  8 11  4  0
  9 29  4  0
 10 12  4  0
 11 24  1  0
 11 26  4  0
 12 25  1  0
 13 28  1  0
 14 20  4  0
 14 23  4  0
 15 17  4  0
 15 21  4  0
 16 19  4  0
 16 23  4  0
 17 22  4  0
 18 26  4  0
 19 24  4  0
 20 24  4  0
 22 27  4  0
 28 29  4  0
M  END
$$$$

 Created by Python create_sdf_string function

 29 33  0  0  0  0  0  0  0  0999 V2000
   10.7215   -3.3326   17.6437 C   0  0  0  0  0  0  0  0  0  0  0  0
    9.9489   -3.4675   24.6487 N   0  0  0  0  0  0  0  0  0  0  0  0
   10.0172   -4.4740   17.4101 C   0  0  0  0  0  0  0  0  0  0  0  0
    6.9051   -7.9575   16.4222 C   0  0  0  0  0  0  0  0  0  0  0  0
    8.9969   -6.3552   17.9668 N   0  0  0  0  0  0  0  0  0  0  0  0
   10.6702   -3.9051   22.4070 C   0  0  0  0  0  0  0  0  0  0  0  0
   11.0625   -3.0028   18.8894 C   0  0  0  0  0  0  0  0  0  0  0  0
    5.6180   -7.9194   16.1754 O   0  0  0  0  0  0  0  0  0  0  0  0
    9.7259   -5.3080   18.4485 C   0  0  0  0  0  0  0  0  0  0  0  0
    9.4578   -5.0200   16.3036 N   0  0  0  0  0  0  0  0  0  0  0  0
    5.0287   -8.9365   16.8223 C   0  0  0  0  0  0  0  0  0  0  0  0
    8.7742   -6.1498   16.6764 C   0  0  0  0  0  0  0  0  0  0  0  0
   10.9418   -3.4032   21.2053 O   0  0  0  0  0  0  0  0  0  0  0  0
    1.4797   -8.6258   16.2950 C   0  0  0  0  0  0  0  0  0  0  0  0
    9.2861   -1.2743   25.3585 C   0  0  0  0  0  0  0  0  0  0  0  0
    1.8892  -10.3985   17.7511 N   0  0  0  0  0  0  0  0  0  0  0  0
    9.6210   -0.6952   24.0976 C   0  0  0  0  0  0  0  0  0  0  0  0
    7.0792   -9.0217   17.1429 C   0  0  0  0  0  0  0  0  0  0  0  0
    3.1713  -10.1816   17.6634 C   0  0  0  0  0  0  0  0  0  0  0  0
    2.7878   -8.3822   16.2137 C   0  0  0  0  0  0  0  0  0  0  0  0
    9.4601   -2.6590   25.6528 C   0  0  0  0  0  0  0  0  0  0  0  0
   10.1182   -1.5672   23.1165 C   0  0  0  0  0  0  0  0  0  0  0  0
    1.0552   -9.6360   17.0650 C   0  0  0  0  0  0  0  0  0  0  0  0
    3.6519   -9.1783   16.9039 C   0  0  0  0  0  0  0  0  0  0  0  0
    7.8675   -7.0096   15.9415 C   0  0  0  0  0  0  0  0  0  0  0  0
    5.9733   -9.6553   17.3832 N   0  0  0  0  0  0  0  0  0  0  0  0
   10.2411   -2.9363   23.4301 C   0  0  0  0  0  0  0  0  0  0  0  0
   10.7288   -3.8197   19.9525 C   0  0  0  0  0  0  0  0  0  0  0  0
   10.1189   -5.0054   19.6987 C   0  0  0  0  0  0  0  0  0  0  0  0
  1  3  4  0
  1  7  4  0
  2 21  4  0
  2 27  4  0
  3  9  4  0
  3 10  4  0
  4  8  4  0
  4 18  4  0
  4 25  1  0
  5  9  4  0
  5 12  4  0
  6 13  1  0
  6 27  1  0
  7 28  4  0
  8 11  4  0
  9 29  4  0
 10 12  4  0
 11 24  1  0
 11 26  4  0
 12 25  1  0
 13 28  1  0
 14 20  4  0
 14 23  4  0
 15 17  4  0
 15 21  4  0
 16 19  4  0
 16 23  4  0
 17 22  4  0
 18 26  4  0
 19 24  4  0
 20 24  4  0
 22 27  4  0
 28 29  4  0
M  END
$$$$

 Created by Python create_sdf_string function

 29 33  0  0  0  0  0  0  0  0999 V2000
   10.7215   -3.3326   17.6437 C   0  0  0  0  0  0  0  0  0  0  0  0
    9.9489   -3.4675   24.6487 N   0  0  0  0  0  0  0  0  0  0  0  0
   10.0172   -4.4740   17.4101 C   0  0  0  0  0  0  0  0  0  0  0  0
    6.9051   -7.9575   16.4222 C   0  0  0  0  0  0  0  0  0  0  0  0
    8.9969   -6.3552   17.9668 N   0  0  0  0  0  0  0  0  0  0  0  0
   10.6702   -3.9051   22.4070 C   0  0  0  0  0  0  0  0  0  0  0  0
   11.0625   -3.0028   18.8894 C   0  0  0  0  0  0  0  0  0  0  0  0
    5.6180   -7.9194   16.1754 O   0  0  0  0  0  0  0  0  0  0  0  0
    9.7259   -5.3080   18.4485 C   0  0  0  0  0  0  0  0  0  0  0  0
    9.4578   -5.0200   16.3036 N   0  0  0  0  0  0  0  0  0  0  0  0
    5.0287   -8.9365   16.8223 C   0  0  0  0  0  0  0  0  0  0  0  0
    8.7742   -6.1498   16.6764 C   0  0  0  0  0  0  0  0  0  0  0  0
   10.9418   -3.4032   21.2053 O   0  0  0  0  0  0  0  0  0  0  0  0
    1.4797   -8.6258   16.2950 C   0  0  0  0  0  0  0  0  0  0  0  0
    9.2861   -1.2743   25.3585 C   0  0  0  0  0  0  0  0  0  0  0  0
    1.8892  -10.3985   17.7511 N   0  0  0  0  0  0  0  0  0  0  0  0
    9.6210   -0.6952   24.0976 C   0  0  0  0  0  0  0  0  0  0  0  0
    7.0792   -9.0217   17.1429 C   0  0  0  0  0  0  0  0  0  0  0  0
    3.1713  -10.1816   17.6634 C   0  0  0  0  0  0  0  0  0  0  0  0
    2.7878   -8.3822   16.2137 C   0  0  0  0  0  0  0  0  0  0  0  0
    9.4601   -2.6590   25.6528 C   0  0  0  0  0  0  0  0  0  0  0  0
   10.1182   -1.5672   23.1165 C   0  0  0  0  0  0  0  0  0  0  0  0
    1.0552   -9.6360   17.0650 C   0  0  0  0  0  0  0  0  0  0  0  0
    3.6519   -9.1783   16.9039 C   0  0  0  0  0  0  0  0  0  0  0  0
    7.8675   -7.0096   15.9415 C   0  0  0  0  0  0  0  0  0  0  0  0
    5.9733   -9.6553   17.3832 N   0  0  0  0  0  0  0  0  0  0  0  0
   10.2411   -2.9363   23.4301 C   0  0  0  0  0  0  0  0  0  0  0  0
   10.7288   -3.8197   19.9525 C   0  0  0  0  0  0  0  0  0  0  0  0
   10.1189   -5.0054   19.6987 C   0  0  0  0  0  0  0  0  0  0  0  0
  1  3  4  0
  1  7  4  0
  2 21  4  0
  2 27  4  0
  3  9  4  0
  3 10  4  0
  4  8  4  0
  4 18  4  0
  4 25  1  0
  5  9  4  0
  5 12  4  0
  6 13  1  0
  6 27  1  0
  7 28  4  0
  8 11  4  0
  9 29  4  0
 10 12  4  0
 11 24  1  0
 11 26  4  0
 12 25  1  0
 13 28  1  0
 14 20  4  0
 14 23  4  0
 15 17  4  0
 15 21  4  0
 16 19  4  0
 16 23  4  0
 17 22  4  0
 18 26  4  0
 19 24  4  0
 20 24  4  0
 22 27  4  0
 28 29  4  0
M  END
$$$$

 Created by Python create_sdf_string function

 29 33  0  0  0  0  0  0  0  0999 V2000
   10.7215   -3.3326   17.6437 C   0  0  0  0  0  0  0  0  0  0  0  0
    9.9489   -3.4675   24.6487 N   0  0  0  0  0  0  0  0  0  0  0  0
   10.0172   -4.4740   17.4101 C   0  0  0  0  0  0  0  0  0  0  0  0
    6.9051   -7.9575   16.4222 C   0  0  0  0  0  0  0  0  0  0  0  0
    8.9969   -6.3552   17.9668 N   0  0  0  0  0  0  0  0  0  0  0  0
   10.6702   -3.9051   22.4070 C   0  0  0  0  0  0  0  0  0  0  0  0
   11.0625   -3.0028   18.8894 C   0  0  0  0  0  0  0  0  0  0  0  0
    5.6180   -7.9194   16.1754 O   0  0  0  0  0  0  0  0  0  0  0  0
    9.7259   -5.3080   18.4485 C   0  0  0  0  0  0  0  0  0  0  0  0
    9.4578   -5.0200   16.3036 N   0  0  0  0  0  0  0  0  0  0  0  0
    5.0287   -8.9365   16.8223 C   0  0  0  0  0  0  0  0  0  0  0  0
    8.7742   -6.1498   16.6764 C   0  0  0  0  0  0  0  0  0  0  0  0
   10.9418   -3.4032   21.2053 O   0  0  0  0  0  0  0  0  0  0  0  0
    1.4797   -8.6258   16.2950 C   0  0  0  0  0  0  0  0  0  0  0  0
    9.2861   -1.2743   25.3585 C   0  0  0  0  0  0  0  0  0  0  0  0
    1.8892  -10.3985   17.7511 N   0  0  0  0  0  0  0  0  0  0  0  0
    9.6210   -0.6952   24.0976 C   0  0  0  0  0  0  0  0  0  0  0  0
    7.0792   -9.0217   17.1429 C   0  0  0  0  0  0  0  0  0  0  0  0
    3.1713  -10.1816   17.6634 C   0  0  0  0  0  0  0  0  0  0  0  0
    2.7878   -8.3822   16.2137 C   0  0  0  0  0  0  0  0  0  0  0  0
    9.4601   -2.6590   25.6528 C   0  0  0  0  0  0  0  0  0  0  0  0
   10.1182   -1.5672   23.1165 C   0  0  0  0  0  0  0  0  0  0  0  0
    1.0552   -9.6360   17.0650 C   0  0  0  0  0  0  0  0  0  0  0  0
    3.6519   -9.1783   16.9039 C   0  0  0  0  0  0  0  0  0  0  0  0
    7.8675   -7.0096   15.9415 C   0  0  0  0  0  0  0  0  0  0  0  0
    5.9733   -9.6553   17.3832 N   0  0  0  0  0  0  0  0  0  0  0  0
   10.2411   -2.9363   23.4301 C   0  0  0  0  0  0  0  0  0  0  0  0
   10.7288   -3.8197   19.9525 C   0  0  0  0  0  0  0  0  0  0  0  0
   10.1189   -5.0054   19.6987 C   0  0  0  0  0  0  0  0  0  0  0  0
  1  3  4  0
  1  7  4  0
  2 21  4  0
  2 27  4  0
  3  9  4  0
  3 10  4  0
  4  8  4  0
  4 18  4  0
  4 25  1  0
  5  9  4  0
  5 12  4  0
  6 13  1  0
  6 27  1  0
  7 28  4  0
  8 11  4  0
  9 29  4  0
 10 12  4  0
 11 24  1  0
 11 26  4  0
 12 25  1  0
 13 28  1  0
 14 20  4  0
 14 23  4  0
 15 17  4  0
 15 21  4  0
 16 19  4  0
 16 23  4  0
 17 22  4  0
 18 26  4  0
 19 24  4  0
 20 24  4  0
 22 27  4  0
 28 29  4  0
M  END
$$$$

 Created by Python create_sdf_string function

 29 33  0  0  0  0  0  0  0  0999 V2000
   10.7215   -3.3326   17.6437 C   0  0  0  0  0  0  0  0  0  0  0  0
    9.9489   -3.4675   24.6487 N   0  0  0  0  0  0  0  0  0  0  0  0
   10.0172   -4.4740   17.4101 C   0  0  0  0  0  0  0  0  0  0  0  0
    6.9051   -7.9575   16.4222 C   0  0  0  0  0  0  0  0  0  0  0  0
    8.9969   -6.3552   17.9668 N   0  0  0  0  0  0  0  0  0  0  0  0
   10.6702   -3.9051   22.4070 C   0  0  0  0  0  0  0  0  0  0  0  0
   11.0625   -3.0028   18.8894 C   0  0  0  0  0  0  0  0  0  0  0  0
    5.6180   -7.9194   16.1754 O   0  0  0  0  0  0  0  0  0  0  0  0
    9.7259   -5.3080   18.4485 C   0  0  0  0  0  0  0  0  0  0  0  0
    9.4578   -5.0200   16.3036 N   0  0  0  0  0  0  0  0  0  0  0  0
    5.0287   -8.9365   16.8223 C   0  0  0  0  0  0  0  0  0  0  0  0
    8.7742   -6.1498   16.6764 C   0  0  0  0  0  0  0  0  0  0  0  0
   10.9418   -3.4032   21.2053 O   0  0  0  0  0  0  0  0  0  0  0  0
    1.4797   -8.6258   16.2950 C   0  0  0  0  0  0  0  0  0  0  0  0
    9.2861   -1.2743   25.3585 C   0  0  0  0  0  0  0  0  0  0  0  0
    1.8892  -10.3985   17.7511 N   0  0  0  0  0  0  0  0  0  0  0  0
    9.6210   -0.6952   24.0976 C   0  0  0  0  0  0  0  0  0  0  0  0
    7.0792   -9.0217   17.1429 C   0  0  0  0  0  0  0  0  0  0  0  0
    3.1713  -10.1816   17.6634 C   0  0  0  0  0  0  0  0  0  0  0  0
    2.7878   -8.3822   16.2137 C   0  0  0  0  0  0  0  0  0  0  0  0
    9.4601   -2.6590   25.6528 C   0  0  0  0  0  0  0  0  0  0  0  0
   10.1182   -1.5672   23.1165 C   0  0  0  0  0  0  0  0  0  0  0  0
    1.0552   -9.6360   17.0650 C   0  0  0  0  0  0  0  0  0  0  0  0
    3.6519   -9.1783   16.9039 C   0  0  0  0  0  0  0  0  0  0  0  0
    7.8675   -7.0096   15.9415 C   0  0  0  0  0  0  0  0  0  0  0  0
    5.9733   -9.6553   17.3832 N   0  0  0  0  0  0  0  0  0  0  0  0
   10.2411   -2.9363   23.4301 C   0  0  0  0  0  0  0  0  0  0  0  0
   10.7288   -3.8197   19.9525 C   0  0  0  0  0  0  0  0  0  0  0  0
   10.1189   -5.0054   19.6987 C   0  0  0  0  0  0  0  0  0  0  0  0
  1  3  4  0
  1  7  4  0
  2 21  4  0
  2 27  4  0
  3  9  4  0
  3 10  4  0
  4  8  4  0
  4 18  4  0
  4 25  1  0
  5  9  4  0
  5 12  4  0
  6 13  1  0
  6 27  1  0
  7 28  4  0
  8 11  4  0
  9 29  4  0
 10 12  4  0
 11 24  1  0
 11 26  4  0
 12 25  1  0
 13 28  1  0
 14 20  4  0
 14 23  4  0
 15 17  4  0
 15 21  4  0
 16 19  4  0
 16 23  4  0
 17 22  4  0
 18 26  4  0
 19 24  4  0
 20 24  4  0
 22 27  4  0
 28 29  4  0
M  END
$$$$

 Created by Python create_sdf_string function

 29 33  0  0  0  0  0  0  0  0999 V2000
   10.7215   -3.3326   17.6437 C   0  0  0  0  0  0  0  0  0  0  0  0
    9.9489   -3.4675   24.6487 N   0  0  0  0  0  0  0  0  0  0  0  0
   10.0172   -4.4740   17.4101 C   0  0  0  0  0  0  0  0  0  0  0  0
    6.9051   -7.9575   16.4222 C   0  0  0  0  0  0  0  0  0  0  0  0
    8.9969   -6.3552   17.9668 N   0  0  0  0  0  0  0  0  0  0  0  0
   10.6702   -3.9051   22.4070 C   0  0  0  0  0  0  0  0  0  0  0  0
   11.0625   -3.0028   18.8894 C   0  0  0  0  0  0  0  0  0  0  0  0
    5.6180   -7.9194   16.1754 O   0  0  0  0  0  0  0  0  0  0  0  0
    9.7259   -5.3080   18.4485 C   0  0  0  0  0  0  0  0  0  0  0  0
    9.4578   -5.0200   16.3036 N   0  0  0  0  0  0  0  0  0  0  0  0
    5.0287   -8.9365   16.8223 C   0  0  0  0  0  0  0  0  0  0  0  0
    8.7742   -6.1498   16.6764 C   0  0  0  0  0  0  0  0  0  0  0  0
   10.9418   -3.4032   21.2053 O   0  0  0  0  0  0  0  0  0  0  0  0
    1.4797   -8.6258   16.2950 C   0  0  0  0  0  0  0  0  0  0  0  0
    9.2861   -1.2743   25.3585 C   0  0  0  0  0  0  0  0  0  0  0  0
    1.8892  -10.3985   17.7511 N   0  0  0  0  0  0  0  0  0  0  0  0
    9.6210   -0.6952   24.0976 C   0  0  0  0  0  0  0  0  0  0  0  0
    7.0792   -9.0217   17.1429 C   0  0  0  0  0  0  0  0  0  0  0  0
    3.1713  -10.1816   17.6634 C   0  0  0  0  0  0  0  0  0  0  0  0
    2.7878   -8.3822   16.2137 C   0  0  0  0  0  0  0  0  0  0  0  0
    9.4601   -2.6590   25.6528 C   0  0  0  0  0  0  0  0  0  0  0  0
   10.1182   -1.5672   23.1165 C   0  0  0  0  0  0  0  0  0  0  0  0
    1.0552   -9.6360   17.0650 C   0  0  0  0  0  0  0  0  0  0  0  0
    3.6519   -9.1783   16.9039 C   0  0  0  0  0  0  0  0  0  0  0  0
    7.8675   -7.0096   15.9415 C   0  0  0  0  0  0  0  0  0  0  0  0
    5.9733   -9.6553   17.3832 N   0  0  0  0  0  0  0  0  0  0  0  0
   10.2411   -2.9363   23.4301 C   0  0  0  0  0  0  0  0  0  0  0  0
   10.7288   -3.8197   19.9525 C   0  0  0  0  0  0  0  0  0  0  0  0
   10.1189   -5.0054   19.6987 C   0  0  0  0  0  0  0  0  0  0  0  0
  1  3  4  0
  1  7  4  0
  2 21  4  0
  2 27  4  0
  3  9  4  0
  3 10  4  0
  4  8  4  0
  4 18  4  0
  4 25  1  0
  5  9  4  0
  5 12  4  0
  6 13  1  0
  6 27  1  0
  7 28  4  0
  8 11  4  0
  9 29  4  0
 10 12  4  0
 11 24  1  0
 11 26  4  0
 12 25  1  0
 13 28  1  0
 14 20  4  0
 14 23  4  0
 15 17  4  0
 15 21  4  0
 16 19  4  0
 16 23  4  0
 17 22  4  0
 18 26  4  0
 19 24  4  0
 20 24  4  0
 22 27  4  0
 28 29  4  0
M  END
$$$$

 Created by Python create_sdf_string function

 29 33  0  0  0  0  0  0  0  0999 V2000
   10.7215   -3.3326   17.6437 C   0  0  0  0  0  0  0  0  0  0  0  0
    9.9489   -3.4675   24.6487 N   0  0  0  0  0  0  0  0  0  0  0  0
   10.0172   -4.4740   17.4101 C   0  0  0  0  0  0  0  0  0  0  0  0
    6.9051   -7.9575   16.4222 C   0  0  0  0  0  0  0  0  0  0  0  0
    8.9969   -6.3552   17.9668 N   0  0  0  0  0  0  0  0  0  0  0  0
   10.6702   -3.9051   22.4070 C   0  0  0  0  0  0  0  0  0  0  0  0
   11.0625   -3.0028   18.8894 C   0  0  0  0  0  0  0  0  0  0  0  0
    5.6180   -7.9194   16.1754 O   0  0  0  0  0  0  0  0  0  0  0  0
    9.7259   -5.3080   18.4485 C   0  0  0  0  0  0  0  0  0  0  0  0
    9.4578   -5.0200   16.3036 N   0  0  0  0  0  0  0  0  0  0  0  0
    5.0287   -8.9365   16.8223 C   0  0  0  0  0  0  0  0  0  0  0  0
    8.7742   -6.1498   16.6764 C   0  0  0  0  0  0  0  0  0  0  0  0
   10.9418   -3.4032   21.2053 O   0  0  0  0  0  0  0  0  0  0  0  0
    1.4797   -8.6258   16.2950 C   0  0  0  0  0  0  0  0  0  0  0  0
    9.2861   -1.2743   25.3585 C   0  0  0  0  0  0  0  0  0  0  0  0
    1.8892  -10.3985   17.7511 N   0  0  0  0  0  0  0  0  0  0  0  0
    9.6210   -0.6952   24.0976 C   0  0  0  0  0  0  0  0  0  0  0  0
    7.0792   -9.0217   17.1429 C   0  0  0  0  0  0  0  0  0  0  0  0
    3.1713  -10.1816   17.6634 C   0  0  0  0  0  0  0  0  0  0  0  0
    2.7878   -8.3822   16.2137 C   0  0  0  0  0  0  0  0  0  0  0  0
    9.4601   -2.6590   25.6528 C   0  0  0  0  0  0  0  0  0  0  0  0
   10.1182   -1.5672   23.1165 C   0  0  0  0  0  0  0  0  0  0  0  0
    1.0552   -9.6360   17.0650 C   0  0  0  0  0  0  0  0  0  0  0  0
    3.6519   -9.1783   16.9039 C   0  0  0  0  0  0  0  0  0  0  0  0
    7.8675   -7.0096   15.9415 C   0  0  0  0  0  0  0  0  0  0  0  0
    5.9733   -9.6553   17.3832 N   0  0  0  0  0  0  0  0  0  0  0  0
   10.2411   -2.9363   23.4301 C   0  0  0  0  0  0  0  0  0  0  0  0
   10.7288   -3.8197   19.9525 C   0  0  0  0  0  0  0  0  0  0  0  0
   10.1189   -5.0054   19.6987 C   0  0  0  0  0  0  0  0  0  0  0  0
  1  3  4  0
  1  7  4  0
  2 21  4  0
  2 27  4  0
  3  9  4  0
  3 10  4  0
  4  8  4  0
  4 18  4  0
  4 25  1  0
  5  9  4  0
  5 12  4  0
  6 13  1  0
  6 27  1  0
  7 28  4  0
  8 11  4  0
  9 29  4  0
 10 12  4  0
 11 24  1  0
 11 26  4  0
 12 25  1  0
 13 28  1  0
 14 20  4  0
 14 23  4  0
 15 17  4  0
 15 21  4  0
 16 19  4  0
 16 23  4  0
 17 22  4  0
 18 26  4  0
 19 24  4  0
 20 24  4  0
 22 27  4  0
 28 29  4  0
M  END
$$$$

 Created by Python create_sdf_string function

 29 33  0  0  0  0  0  0  0  0999 V2000
   10.7215   -3.3326   17.6437 C   0  0  0  0  0  0  0  0  0  0  0  0
    9.9489   -3.4675   24.6487 N   0  0  0  0  0  0  0  0  0  0  0  0
   10.0172   -4.4740   17.4101 C   0  0  0  0  0  0  0  0  0  0  0  0
    6.9051   -7.9575   16.4222 C   0  0  0  0  0  0  0  0  0  0  0  0
    8.9969   -6.3552   17.9668 N   0  0  0  0  0  0  0  0  0  0  0  0
   10.6702   -3.9051   22.4070 C   0  0  0  0  0  0  0  0  0  0  0  0
   11.0625   -3.0028   18.8894 C   0  0  0  0  0  0  0  0  0  0  0  0
    5.6180   -7.9194   16.1754 O   0  0  0  0  0  0  0  0  0  0  0  0
    9.7259   -5.3080   18.4485 C   0  0  0  0  0  0  0  0  0  0  0  0
    9.4578   -5.0200   16.3036 N   0  0  0  0  0  0  0  0  0  0  0  0
    5.0287   -8.9365   16.8223 C   0  0  0  0  0  0  0  0  0  0  0  0
    8.7742   -6.1498   16.6764 C   0  0  0  0  0  0  0  0  0  0  0  0
   10.9418   -3.4032   21.2053 O   0  0  0  0  0  0  0  0  0  0  0  0
    1.4797   -8.6258   16.2950 C   0  0  0  0  0  0  0  0  0  0  0  0
    9.2861   -1.2743   25.3585 C   0  0  0  0  0  0  0  0  0  0  0  0
    1.8892  -10.3985   17.7511 N   0  0  0  0  0  0  0  0  0  0  0  0
    9.6210   -0.6952   24.0976 C   0  0  0  0  0  0  0  0  0  0  0  0
    7.0792   -9.0217   17.1429 C   0  0  0  0  0  0  0  0  0  0  0  0
    3.1713  -10.1816   17.6634 C   0  0  0  0  0  0  0  0  0  0  0  0
    2.7878   -8.3822   16.2137 C   0  0  0  0  0  0  0  0  0  0  0  0
    9.4601   -2.6590   25.6528 C   0  0  0  0  0  0  0  0  0  0  0  0
   10.1182   -1.5672   23.1165 C   0  0  0  0  0  0  0  0  0  0  0  0
    1.0552   -9.6360   17.0650 C   0  0  0  0  0  0  0  0  0  0  0  0
    3.6519   -9.1783   16.9039 C   0  0  0  0  0  0  0  0  0  0  0  0
    7.8675   -7.0096   15.9415 C   0  0  0  0  0  0  0  0  0  0  0  0
    5.9733   -9.6553   17.3832 N   0  0  0  0  0  0  0  0  0  0  0  0
   10.2411   -2.9363   23.4301 C   0  0  0  0  0  0  0  0  0  0  0  0
   10.7288   -3.8197   19.9525 C   0  0  0  0  0  0  0  0  0  0  0  0
   10.1189   -5.0054   19.6987 C   0  0  0  0  0  0  0  0  0  0  0  0
  1  3  4  0
  1  7  4  0
  2 21  4  0
  2 27  4  0
  3  9  4  0
  3 10  4  0
  4  8  4  0
  4 18  4  0
  4 25  1  0
  5  9  4  0
  5 12  4  0
  6 13  1  0
  6 27  1  0
  7 28  4  0
  8 11  4  0
  9 29  4  0
 10 12  4  0
 11 24  1  0
 11 26  4  0
 12 25  1  0
 13 28  1  0
 14 20  4  0
 14 23  4  0
 15 17  4  0
 15 21  4  0
 16 19  4  0
 16 23  4  0
 17 22  4  0
 18 26  4  0
 19 24  4  0
 20 24  4  0
 22 27  4  0
 28 29  4  0
M  END
$$$$

 Created by Python create_sdf_string function

 29 33  0  0  0  0  0  0  0  0999 V2000
   10.7215   -3.3326   17.6437 C   0  0  0  0  0  0  0  0  0  0  0  0
    9.9489   -3.4675   24.6487 N   0  0  0  0  0  0  0  0  0  0  0  0
   10.0172   -4.4740   17.4101 C   0  0  0  0  0  0  0  0  0  0  0  0
    6.9051   -7.9575   16.4222 C   0  0  0  0  0  0  0  0  0  0  0  0
    8.9969   -6.3552   17.9668 N   0  0  0  0  0  0  0  0  0  0  0  0
   10.6702   -3.9051   22.4070 C   0  0  0  0  0  0  0  0  0  0  0  0
   11.0625   -3.0028   18.8894 C   0  0  0  0  0  0  0  0  0  0  0  0
    5.6180   -7.9194   16.1754 O   0  0  0  0  0  0  0  0  0  0  0  0
    9.7259   -5.3080   18.4485 C   0  0  0  0  0  0  0  0  0  0  0  0
    9.4578   -5.0200   16.3036 N   0  0  0  0  0  0  0  0  0  0  0  0
    5.0287   -8.9365   16.8223 C   0  0  0  0  0  0  0  0  0  0  0  0
    8.7742   -6.1498   16.6764 C   0  0  0  0  0  0  0  0  0  0  0  0
   10.9418   -3.4032   21.2053 O   0  0  0  0  0  0  0  0  0  0  0  0
    1.4797   -8.6258   16.2950 C   0  0  0  0  0  0  0  0  0  0  0  0
    9.2861   -1.2743   25.3585 C   0  0  0  0  0  0  0  0  0  0  0  0
    1.8892  -10.3985   17.7511 N   0  0  0  0  0  0  0  0  0  0  0  0
    9.6210   -0.6952   24.0976 C   0  0  0  0  0  0  0  0  0  0  0  0
    7.0792   -9.0217   17.1429 C   0  0  0  0  0  0  0  0  0  0  0  0
    3.1713  -10.1816   17.6634 C   0  0  0  0  0  0  0  0  0  0  0  0
    2.7878   -8.3822   16.2137 C   0  0  0  0  0  0  0  0  0  0  0  0
    9.4601   -2.6590   25.6528 C   0  0  0  0  0  0  0  0  0  0  0  0
   10.1182   -1.5672   23.1165 C   0  0  0  0  0  0  0  0  0  0  0  0
    1.0552   -9.6360   17.0650 C   0  0  0  0  0  0  0  0  0  0  0  0
    3.6519   -9.1783   16.9039 C   0  0  0  0  0  0  0  0  0  0  0  0
    7.8675   -7.0096   15.9415 C   0  0  0  0  0  0  0  0  0  0  0  0
    5.9733   -9.6553   17.3832 N   0  0  0  0  0  0  0  0  0  0  0  0
   10.2411   -2.9363   23.4301 C   0  0  0  0  0  0  0  0  0  0  0  0
   10.7288   -3.8197   19.9525 C   0  0  0  0  0  0  0  0  0  0  0  0
   10.1189   -5.0054   19.6987 C   0  0  0  0  0  0  0  0  0  0  0  0
  1  3  4  0
  1  7  4  0
  2 21  4  0
  2 27  4  0
  3  9  4  0
  3 10  4  0
  4  8  4  0
  4 18  4  0
  4 25  1  0
  5  9  4  0
  5 12  4  0
  6 13  1  0
  6 27  1  0
  7 28  4  0
  8 11  4  0
  9 29  4  0
 10 12  4  0
 11 24  1  0
 11 26  4  0
 12 25  1  0
 13 28  1  0
 14 20  4  0
 14 23  4  0
 15 17  4  0
 15 21  4  0
 16 19  4  0
 16 23  4  0
 17 22  4  0
 18 26  4  0
 19 24  4  0
 20 24  4  0
 22 27  4  0
 28 29  4  0
M  END
$$$$

 Created by Python create_sdf_string function

 29 33  0  0  0  0  0  0  0  0999 V2000
   10.7215   -3.3326   17.6437 C   0  0  0  0  0  0  0  0  0  0  0  0
    9.9489   -3.4675   24.6487 N   0  0  0  0  0  0  0  0  0  0  0  0
   10.0172   -4.4740   17.4101 C   0  0  0  0  0  0  0  0  0  0  0  0
    6.9051   -7.9575   16.4222 C   0  0  0  0  0  0  0  0  0  0  0  0
    8.9969   -6.3552   17.9668 N   0  0  0  0  0  0  0  0  0  0  0  0
   10.6702   -3.9051   22.4070 C   0  0  0  0  0  0  0  0  0  0  0  0
   11.0625   -3.0028   18.8894 C   0  0  0  0  0  0  0  0  0  0  0  0
    5.6180   -7.9194   16.1754 O   0  0  0  0  0  0  0  0  0  0  0  0
    9.7259   -5.3080   18.4485 C   0  0  0  0  0  0  0  0  0  0  0  0
    9.4578   -5.0200   16.3036 N   0  0  0  0  0  0  0  0  0  0  0  0
    5.0287   -8.9365   16.8223 C   0  0  0  0  0  0  0  0  0  0  0  0
    8.7742   -6.1498   16.6764 C   0  0  0  0  0  0  0  0  0  0  0  0
   10.9418   -3.4032   21.2053 O   0  0  0  0  0  0  0  0  0  0  0  0
    1.4797   -8.6258   16.2950 C   0  0  0  0  0  0  0  0  0  0  0  0
    9.2861   -1.2743   25.3585 C   0  0  0  0  0  0  0  0  0  0  0  0
    1.8892  -10.3985   17.7511 N   0  0  0  0  0  0  0  0  0  0  0  0
    9.6210   -0.6952   24.0976 C   0  0  0  0  0  0  0  0  0  0  0  0
    7.0792   -9.0217   17.1429 C   0  0  0  0  0  0  0  0  0  0  0  0
    3.1713  -10.1816   17.6634 C   0  0  0  0  0  0  0  0  0  0  0  0
    2.7878   -8.3822   16.2137 C   0  0  0  0  0  0  0  0  0  0  0  0
    9.4601   -2.6590   25.6528 C   0  0  0  0  0  0  0  0  0  0  0  0
   10.1182   -1.5672   23.1165 C   0  0  0  0  0  0  0  0  0  0  0  0
    1.0552   -9.6360   17.0650 C   0  0  0  0  0  0  0  0  0  0  0  0
    3.6519   -9.1783   16.9039 C   0  0  0  0  0  0  0  0  0  0  0  0
    7.8675   -7.0096   15.9415 C   0  0  0  0  0  0  0  0  0  0  0  0
    5.9733   -9.6553   17.3832 N   0  0  0  0  0  0  0  0  0  0  0  0
   10.2411   -2.9363   23.4301 C   0  0  0  0  0  0  0  0  0  0  0  0
   10.7288   -3.8197   19.9525 C   0  0  0  0  0  0  0  0  0  0  0  0
   10.1189   -5.0054   19.6987 C   0  0  0  0  0  0  0  0  0  0  0  0
  1  3  4  0
  1  7  4  0
  2 21  4  0
  2 27  4  0
  3  9  4  0
  3 10  4  0
  4  8  4  0
  4 18  4  0
  4 25  1  0
  5  9  4  0
  5 12  4  0
  6 13  1  0
  6 27  1  0
  7 28  4  0
  8 11  4  0
  9 29  4  0
 10 12  4  0
 11 24  1  0
 11 26  4  0
 12 25  1  0
 13 28  1  0
 14 20  4  0
 14 23  4  0
 15 17  4  0
 15 21  4  0
 16 19  4  0
 16 23  4  0
 17 22  4  0
 18 26  4  0
 19 24  4  0
 20 24  4  0
 22 27  4  0
 28 29  4  0
M  END
$$$$

 Created by Python create_sdf_string function

 29 33  0  0  0  0  0  0  0  0999 V2000
   10.7215   -3.3326   17.6437 C   0  0  0  0  0  0  0  0  0  0  0  0
    9.9489   -3.4675   24.6487 N   0  0  0  0  0  0  0  0  0  0  0  0
   10.0172   -4.4740   17.4101 C   0  0  0  0  0  0  0  0  0  0  0  0
    6.9051   -7.9575   16.4222 C   0  0  0  0  0  0  0  0  0  0  0  0
    8.9969   -6.3552   17.9668 N   0  0  0  0  0  0  0  0  0  0  0  0
   10.6702   -3.9051   22.4070 C   0  0  0  0  0  0  0  0  0  0  0  0
   11.0625   -3.0028   18.8894 C   0  0  0  0  0  0  0  0  0  0  0  0
    5.6180   -7.9194   16.1754 O   0  0  0  0  0  0  0  0  0  0  0  0
    9.7259   -5.3080   18.4485 C   0  0  0  0  0  0  0  0  0  0  0  0
    9.4578   -5.0200   16.3036 N   0  0  0  0  0  0  0  0  0  0  0  0
    5.0287   -8.9365   16.8223 C   0  0  0  0  0  0  0  0  0  0  0  0
    8.7742   -6.1498   16.6764 C   0  0  0  0  0  0  0  0  0  0  0  0
   10.9418   -3.4032   21.2053 O   0  0  0  0  0  0  0  0  0  0  0  0
    1.4797   -8.6258   16.2950 C   0  0  0  0  0  0  0  0  0  0  0  0
    9.2861   -1.2743   25.3585 C   0  0  0  0  0  0  0  0  0  0  0  0
    1.8892  -10.3985   17.7511 N   0  0  0  0  0  0  0  0  0  0  0  0
    9.6210   -0.6952   24.0976 C   0  0  0  0  0  0  0  0  0  0  0  0
    7.0792   -9.0217   17.1429 C   0  0  0  0  0  0  0  0  0  0  0  0
    3.1713  -10.1816   17.6634 C   0  0  0  0  0  0  0  0  0  0  0  0
    2.7878   -8.3822   16.2137 C   0  0  0  0  0  0  0  0  0  0  0  0
    9.4601   -2.6590   25.6528 C   0  0  0  0  0  0  0  0  0  0  0  0
   10.1182   -1.5672   23.1165 C   0  0  0  0  0  0  0  0  0  0  0  0
    1.0552   -9.6360   17.0650 C   0  0  0  0  0  0  0  0  0  0  0  0
    3.6519   -9.1783   16.9039 C   0  0  0  0  0  0  0  0  0  0  0  0
    7.8675   -7.0096   15.9415 C   0  0  0  0  0  0  0  0  0  0  0  0
    5.9733   -9.6553   17.3832 N   0  0  0  0  0  0  0  0  0  0  0  0
   10.2411   -2.9363   23.4301 C   0  0  0  0  0  0  0  0  0  0  0  0
   10.7288   -3.8197   19.9525 C   0  0  0  0  0  0  0  0  0  0  0  0
   10.1189   -5.0054   19.6987 C   0  0  0  0  0  0  0  0  0  0  0  0
  1  3  4  0
  1  7  4  0
  2 21  4  0
  2 27  4  0
  3  9  4  0
  3 10  4  0
  4  8  4  0
  4 18  4  0
  4 25  1  0
  5  9  4  0
  5 12  4  0
  6 13  1  0
  6 27  1  0
  7 28  4  0
  8 11  4  0
  9 29  4  0
 10 12  4  0
 11 24  1  0
 11 26  4  0
 12 25  1  0
 13 28  1  0
 14 20  4  0
 14 23  4  0
 15 17  4  0
 15 21  4  0
 16 19  4  0
 16 23  4  0
 17 22  4  0
 18 26  4  0
 19 24  4  0
 20 24  4  0
 22 27  4  0
 28 29  4  0
M  END
$$$$

 Created by Python create_sdf_string function

 29 33  0  0  0  0  0  0  0  0999 V2000
   10.7215   -3.3326   17.6437 C   0  0  0  0  0  0  0  0  0  0  0  0
    9.9489   -3.4675   24.6487 N   0  0  0  0  0  0  0  0  0  0  0  0
   10.0172   -4.4740   17.4101 C   0  0  0  0  0  0  0  0  0  0  0  0
    6.9051   -7.9575   16.4222 C   0  0  0  0  0  0  0  0  0  0  0  0
    8.9969   -6.3552   17.9668 N   0  0  0  0  0  0  0  0  0  0  0  0
   10.6702   -3.9051   22.4070 C   0  0  0  0  0  0  0  0  0  0  0  0
   11.0625   -3.0028   18.8894 C   0  0  0  0  0  0  0  0  0  0  0  0
    5.6180   -7.9194   16.1754 O   0  0  0  0  0  0  0  0  0  0  0  0
    9.7259   -5.3080   18.4485 C   0  0  0  0  0  0  0  0  0  0  0  0
    9.4578   -5.0200   16.3036 N   0  0  0  0  0  0  0  0  0  0  0  0
    5.0287   -8.9365   16.8223 C   0  0  0  0  0  0  0  0  0  0  0  0
    8.7742   -6.1498   16.6764 C   0  0  0  0  0  0  0  0  0  0  0  0
   10.9418   -3.4032   21.2053 O   0  0  0  0  0  0  0  0  0  0  0  0
    1.4797   -8.6258   16.2950 C   0  0  0  0  0  0  0  0  0  0  0  0
    9.2861   -1.2743   25.3585 C   0  0  0  0  0  0  0  0  0  0  0  0
    1.8892  -10.3985   17.7511 N   0  0  0  0  0  0  0  0  0  0  0  0
    9.6210   -0.6952   24.0976 C   0  0  0  0  0  0  0  0  0  0  0  0
    7.0792   -9.0217   17.1429 C   0  0  0  0  0  0  0  0  0  0  0  0
    3.1713  -10.1816   17.6634 C   0  0  0  0  0  0  0  0  0  0  0  0
    2.7878   -8.3822   16.2137 C   0  0  0  0  0  0  0  0  0  0  0  0
    9.4601   -2.6590   25.6528 C   0  0  0  0  0  0  0  0  0  0  0  0
   10.1182   -1.5672   23.1165 C   0  0  0  0  0  0  0  0  0  0  0  0
    1.0552   -9.6360   17.0650 C   0  0  0  0  0  0  0  0  0  0  0  0
    3.6519   -9.1783   16.9039 C   0  0  0  0  0  0  0  0  0  0  0  0
    7.8675   -7.0096   15.9415 C   0  0  0  0  0  0  0  0  0  0  0  0
    5.9733   -9.6553   17.3832 N   0  0  0  0  0  0  0  0  0  0  0  0
   10.2411   -2.9363   23.4301 C   0  0  0  0  0  0  0  0  0  0  0  0
   10.7288   -3.8197   19.9525 C   0  0  0  0  0  0  0  0  0  0  0  0
   10.1189   -5.0054   19.6987 C   0  0  0  0  0  0  0  0  0  0  0  0
  1  3  4  0
  1  7  4  0
  2 21  4  0
  2 27  4  0
  3  9  4  0
  3 10  4  0
  4  8  4  0
  4 18  4  0
  4 25  1  0
  5  9  4  0
  5 12  4  0
  6 13  1  0
  6 27  1  0
  7 28  4  0
  8 11  4  0
  9 29  4  0
 10 12  4  0
 11 24  1  0
 11 26  4  0
 12 25  1  0
 13 28  1  0
 14 20  4  0
 14 23  4  0
 15 17  4  0
 15 21  4  0
 16 19  4  0
 16 23  4  0
 17 22  4  0
 18 26  4  0
 19 24  4  0
 20 24  4  0
 22 27  4  0
 28 29  4  0
M  END
$$$$

 Created by Python create_sdf_string function

 29 33  0  0  0  0  0  0  0  0999 V2000
   10.7215   -3.3326   17.6437 C   0  0  0  0  0  0  0  0  0  0  0  0
    9.9489   -3.4675   24.6487 N   0  0  0  0  0  0  0  0  0  0  0  0
   10.0172   -4.4740   17.4101 C   0  0  0  0  0  0  0  0  0  0  0  0
    6.9051   -7.9575   16.4222 C   0  0  0  0  0  0  0  0  0  0  0  0
    8.9969   -6.3552   17.9668 N   0  0  0  0  0  0  0  0  0  0  0  0
   10.6702   -3.9051   22.4070 C   0  0  0  0  0  0  0  0  0  0  0  0
   11.0625   -3.0028   18.8894 C   0  0  0  0  0  0  0  0  0  0  0  0
    5.6180   -7.9194   16.1754 O   0  0  0  0  0  0  0  0  0  0  0  0
    9.7259   -5.3080   18.4485 C   0  0  0  0  0  0  0  0  0  0  0  0
    9.4578   -5.0200   16.3036 N   0  0  0  0  0  0  0  0  0  0  0  0
    5.0287   -8.9365   16.8223 C   0  0  0  0  0  0  0  0  0  0  0  0
    8.7742   -6.1498   16.6764 C   0  0  0  0  0  0  0  0  0  0  0  0
   10.9418   -3.4032   21.2053 O   0  0  0  0  0  0  0  0  0  0  0  0
    1.4797   -8.6258   16.2950 C   0  0  0  0  0  0  0  0  0  0  0  0
    9.2861   -1.2743   25.3585 C   0  0  0  0  0  0  0  0  0  0  0  0
    1.8892  -10.3985   17.7511 N   0  0  0  0  0  0  0  0  0  0  0  0
    9.6210   -0.6952   24.0976 C   0  0  0  0  0  0  0  0  0  0  0  0
    7.0792   -9.0217   17.1429 C   0  0  0  0  0  0  0  0  0  0  0  0
    3.1713  -10.1816   17.6634 C   0  0  0  0  0  0  0  0  0  0  0  0
    2.7878   -8.3822   16.2137 C   0  0  0  0  0  0  0  0  0  0  0  0
    9.4601   -2.6590   25.6528 C   0  0  0  0  0  0  0  0  0  0  0  0
   10.1182   -1.5672   23.1165 C   0  0  0  0  0  0  0  0  0  0  0  0
    1.0552   -9.6360   17.0650 C   0  0  0  0  0  0  0  0  0  0  0  0
    3.6519   -9.1783   16.9039 C   0  0  0  0  0  0  0  0  0  0  0  0
    7.8675   -7.0096   15.9415 C   0  0  0  0  0  0  0  0  0  0  0  0
    5.9733   -9.6553   17.3832 N   0  0  0  0  0  0  0  0  0  0  0  0
   10.2411   -2.9363   23.4301 C   0  0  0  0  0  0  0  0  0  0  0  0
   10.7288   -3.8197   19.9525 C   0  0  0  0  0  0  0  0  0  0  0  0
   10.1189   -5.0054   19.6987 C   0  0  0  0  0  0  0  0  0  0  0  0
  1  3  4  0
  1  7  4  0
  2 21  4  0
  2 27  4  0
  3  9  4  0
  3 10  4  0
  4  8  4  0
  4 18  4  0
  4 25  1  0
  5  9  4  0
  5 12  4  0
  6 13  1  0
  6 27  1  0
  7 28  4  0
  8 11  4  0
  9 29  4  0
 10 12  4  0
 11 24  1  0
 11 26  4  0
 12 25  1  0
 13 28  1  0
 14 20  4  0
 14 23  4  0
 15 17  4  0
 15 21  4  0
 16 19  4  0
 16 23  4  0
 17 22  4  0
 18 26  4  0
 19 24  4  0
 20 24  4  0
 22 27  4  0
 28 29  4  0
M  END
$$$$

 Created by Python create_sdf_string function

 29 33  0  0  0  0  0  0  0  0999 V2000
   10.7215   -3.3326   17.6437 C   0  0  0  0  0  0  0  0  0  0  0  0
    9.9489   -3.4675   24.6487 N   0  0  0  0  0  0  0  0  0  0  0  0
   10.0172   -4.4740   17.4101 C   0  0  0  0  0  0  0  0  0  0  0  0
    6.9051   -7.9575   16.4222 C   0  0  0  0  0  0  0  0  0  0  0  0
    8.9969   -6.3552   17.9668 N   0  0  0  0  0  0  0  0  0  0  0  0
   10.6702   -3.9051   22.4070 C   0  0  0  0  0  0  0  0  0  0  0  0
   11.0625   -3.0028   18.8894 C   0  0  0  0  0  0  0  0  0  0  0  0
    5.6180   -7.9194   16.1754 O   0  0  0  0  0  0  0  0  0  0  0  0
    9.7259   -5.3080   18.4485 C   0  0  0  0  0  0  0  0  0  0  0  0
    9.4578   -5.0200   16.3036 N   0  0  0  0  0  0  0  0  0  0  0  0
    5.0287   -8.9365   16.8223 C   0  0  0  0  0  0  0  0  0  0  0  0
    8.7742   -6.1498   16.6764 C   0  0  0  0  0  0  0  0  0  0  0  0
   10.9418   -3.4032   21.2053 O   0  0  0  0  0  0  0  0  0  0  0  0
    1.4797   -8.6258   16.2950 C   0  0  0  0  0  0  0  0  0  0  0  0
    9.2861   -1.2743   25.3585 C   0  0  0  0  0  0  0  0  0  0  0  0
    1.8892  -10.3985   17.7511 N   0  0  0  0  0  0  0  0  0  0  0  0
    9.6210   -0.6952   24.0976 C   0  0  0  0  0  0  0  0  0  0  0  0
    7.0792   -9.0217   17.1429 C   0  0  0  0  0  0  0  0  0  0  0  0
    3.1713  -10.1816   17.6634 C   0  0  0  0  0  0  0  0  0  0  0  0
    2.7878   -8.3822   16.2137 C   0  0  0  0  0  0  0  0  0  0  0  0
    9.4601   -2.6590   25.6528 C   0  0  0  0  0  0  0  0  0  0  0  0
   10.1182   -1.5672   23.1165 C   0  0  0  0  0  0  0  0  0  0  0  0
    1.0552   -9.6360   17.0650 C   0  0  0  0  0  0  0  0  0  0  0  0
    3.6519   -9.1783   16.9039 C   0  0  0  0  0  0  0  0  0  0  0  0
    7.8675   -7.0096   15.9415 C   0  0  0  0  0  0  0  0  0  0  0  0
    5.9733   -9.6553   17.3832 N   0  0  0  0  0  0  0  0  0  0  0  0
   10.2411   -2.9363   23.4301 C   0  0  0  0  0  0  0  0  0  0  0  0
   10.7288   -3.8197   19.9525 C   0  0  0  0  0  0  0  0  0  0  0  0
   10.1189   -5.0054   19.6987 C   0  0  0  0  0  0  0  0  0  0  0  0
  1  3  4  0
  1  7  4  0
  2 21  4  0
  2 27  4  0
  3  9  4  0
  3 10  4  0
  4  8  4  0
  4 18  4  0
  4 25  1  0
  5  9  4  0
  5 12  4  0
  6 13  1  0
  6 27  1  0
  7 28  4  0
  8 11  4  0
  9 29  4  0
 10 12  4  0
 11 24  1  0
 11 26  4  0
 12 25  1  0
 13 28  1  0
 14 20  4  0
 14 23  4  0
 15 17  4  0
 15 21  4  0
 16 19  4  0
 16 23  4  0
 17 22  4  0
 18 26  4  0
 19 24  4  0
 20 24  4  0
 22 27  4  0
 28 29  4  0
M  END
$$$$

 Created by Python create_sdf_string function

 29 33  0  0  0  0  0  0  0  0999 V2000
   10.7215   -3.3326   17.6437 C   0  0  0  0  0  0  0  0  0  0  0  0
    9.9489   -3.4675   24.6487 N   0  0  0  0  0  0  0  0  0  0  0  0
   10.0172   -4.4740   17.4101 C   0  0  0  0  0  0  0  0  0  0  0  0
    6.9051   -7.9575   16.4222 C   0  0  0  0  0  0  0  0  0  0  0  0
    8.9969   -6.3552   17.9668 N   0  0  0  0  0  0  0  0  0  0  0  0
   10.6702   -3.9051   22.4070 C   0  0  0  0  0  0  0  0  0  0  0  0
   11.0625   -3.0028   18.8894 C   0  0  0  0  0  0  0  0  0  0  0  0
    5.6180   -7.9194   16.1754 O   0  0  0  0  0  0  0  0  0  0  0  0
    9.7259   -5.3080   18.4485 C   0  0  0  0  0  0  0  0  0  0  0  0
    9.4578   -5.0200   16.3036 N   0  0  0  0  0  0  0  0  0  0  0  0
    5.0287   -8.9365   16.8223 C   0  0  0  0  0  0  0  0  0  0  0  0
    8.7742   -6.1498   16.6764 C   0  0  0  0  0  0  0  0  0  0  0  0
   10.9418   -3.4032   21.2053 O   0  0  0  0  0  0  0  0  0  0  0  0
    1.4797   -8.6258   16.2950 C   0  0  0  0  0  0  0  0  0  0  0  0
    9.2861   -1.2743   25.3585 C   0  0  0  0  0  0  0  0  0  0  0  0
    1.8892  -10.3985   17.7511 N   0  0  0  0  0  0  0  0  0  0  0  0
    9.6210   -0.6952   24.0976 C   0  0  0  0  0  0  0  0  0  0  0  0
    7.0792   -9.0217   17.1429 C   0  0  0  0  0  0  0  0  0  0  0  0
    3.1713  -10.1816   17.6634 C   0  0  0  0  0  0  0  0  0  0  0  0
    2.7878   -8.3822   16.2137 C   0  0  0  0  0  0  0  0  0  0  0  0
    9.4601   -2.6590   25.6528 C   0  0  0  0  0  0  0  0  0  0  0  0
   10.1182   -1.5672   23.1165 C   0  0  0  0  0  0  0  0  0  0  0  0
    1.0552   -9.6360   17.0650 C   0  0  0  0  0  0  0  0  0  0  0  0
    3.6519   -9.1783   16.9039 C   0  0  0  0  0  0  0  0  0  0  0  0
    7.8675   -7.0096   15.9415 C   0  0  0  0  0  0  0  0  0  0  0  0
    5.9733   -9.6553   17.3832 N   0  0  0  0  0  0  0  0  0  0  0  0
   10.2411   -2.9363   23.4301 C   0  0  0  0  0  0  0  0  0  0  0  0
   10.7288   -3.8197   19.9525 C   0  0  0  0  0  0  0  0  0  0  0  0
   10.1189   -5.0054   19.6987 C   0  0  0  0  0  0  0  0  0  0  0  0
  1  3  4  0
  1  7  4  0
  2 21  4  0
  2 27  4  0
  3  9  4  0
  3 10  4  0
  4  8  4  0
  4 18  4  0
  4 25  1  0
  5  9  4  0
  5 12  4  0
  6 13  1  0
  6 27  1  0
  7 28  4  0
  8 11  4  0
  9 29  4  0
 10 12  4  0
 11 24  1  0
 11 26  4  0
 12 25  1  0
 13 28  1  0
 14 20  4  0
 14 23  4  0
 15 17  4  0
 15 21  4  0
 16 19  4  0
 16 23  4  0
 17 22  4  0
 18 26  4  0
 19 24  4  0
 20 24  4  0
 22 27  4  0
 28 29  4  0
M  END
$$$$

 Created by Python create_sdf_string function

 29 33  0  0  0  0  0  0  0  0999 V2000
   10.7215   -3.3326   17.6437 C   0  0  0  0  0  0  0  0  0  0  0  0
    9.9489   -3.4675   24.6487 N   0  0  0  0  0  0  0  0  0  0  0  0
   10.0172   -4.4740   17.4101 C   0  0  0  0  0  0  0  0  0  0  0  0
    6.9051   -7.9575   16.4222 C   0  0  0  0  0  0  0  0  0  0  0  0
    8.9969   -6.3552   17.9668 N   0  0  0  0  0  0  0  0  0  0  0  0
   10.6702   -3.9051   22.4070 C   0  0  0  0  0  0  0  0  0  0  0  0
   11.0625   -3.0028   18.8894 C   0  0  0  0  0  0  0  0  0  0  0  0
    5.6180   -7.9194   16.1754 O   0  0  0  0  0  0  0  0  0  0  0  0
    9.7259   -5.3080   18.4485 C   0  0  0  0  0  0  0  0  0  0  0  0
    9.4578   -5.0200   16.3036 N   0  0  0  0  0  0  0  0  0  0  0  0
    5.0287   -8.9365   16.8223 C   0  0  0  0  0  0  0  0  0  0  0  0
    8.7742   -6.1498   16.6764 C   0  0  0  0  0  0  0  0  0  0  0  0
   10.9418   -3.4032   21.2053 O   0  0  0  0  0  0  0  0  0  0  0  0
    1.4797   -8.6258   16.2950 C   0  0  0  0  0  0  0  0  0  0  0  0
    9.2861   -1.2743   25.3585 C   0  0  0  0  0  0  0  0  0  0  0  0
    1.8892  -10.3985   17.7511 N   0  0  0  0  0  0  0  0  0  0  0  0
    9.6210   -0.6952   24.0976 C   0  0  0  0  0  0  0  0  0  0  0  0
    7.0792   -9.0217   17.1429 C   0  0  0  0  0  0  0  0  0  0  0  0
    3.1713  -10.1816   17.6634 C   0  0  0  0  0  0  0  0  0  0  0  0
    2.7878   -8.3822   16.2137 C   0  0  0  0  0  0  0  0  0  0  0  0
    9.4601   -2.6590   25.6528 C   0  0  0  0  0  0  0  0  0  0  0  0
   10.1182   -1.5672   23.1165 C   0  0  0  0  0  0  0  0  0  0  0  0
    1.0552   -9.6360   17.0650 C   0  0  0  0  0  0  0  0  0  0  0  0
    3.6519   -9.1783   16.9039 C   0  0  0  0  0  0  0  0  0  0  0  0
    7.8675   -7.0096   15.9415 C   0  0  0  0  0  0  0  0  0  0  0  0
    5.9733   -9.6553   17.3832 N   0  0  0  0  0  0  0  0  0  0  0  0
   10.2411   -2.9363   23.4301 C   0  0  0  0  0  0  0  0  0  0  0  0
   10.7288   -3.8197   19.9525 C   0  0  0  0  0  0  0  0  0  0  0  0
   10.1189   -5.0054   19.6987 C   0  0  0  0  0  0  0  0  0  0  0  0
  1  3  4  0
  1  7  4  0
  2 21  4  0
  2 27  4  0
  3  9  4  0
  3 10  4  0
  4  8  4  0
  4 18  4  0
  4 25  1  0
  5  9  4  0
  5 12  4  0
  6 13  1  0
  6 27  1  0
  7 28  4  0
  8 11  4  0
  9 29  4  0
 10 12  4  0
 11 24  1  0
 11 26  4  0
 12 25  1  0
 13 28  1  0
 14 20  4  0
 14 23  4  0
 15 17  4  0
 15 21  4  0
 16 19  4  0
 16 23  4  0
 17 22  4  0
 18 26  4  0
 19 24  4  0
 20 24  4  0
 22 27  4  0
 28 29  4  0
M  END
$$$$

 Created by Python create_sdf_string function

 29 33  0  0  0  0  0  0  0  0999 V2000
   10.7215   -3.3326   17.6437 C   0  0  0  0  0  0  0  0  0  0  0  0
    9.9489   -3.4675   24.6487 N   0  0  0  0  0  0  0  0  0  0  0  0
   10.0172   -4.4740   17.4101 C   0  0  0  0  0  0  0  0  0  0  0  0
    6.9051   -7.9575   16.4222 C   0  0  0  0  0  0  0  0  0  0  0  0
    8.9969   -6.3552   17.9668 N   0  0  0  0  0  0  0  0  0  0  0  0
   10.6702   -3.9051   22.4070 C   0  0  0  0  0  0  0  0  0  0  0  0
   11.0625   -3.0028   18.8894 C   0  0  0  0  0  0  0  0  0  0  0  0
    5.6180   -7.9194   16.1754 O   0  0  0  0  0  0  0  0  0  0  0  0
    9.7259   -5.3080   18.4485 C   0  0  0  0  0  0  0  0  0  0  0  0
    9.4578   -5.0200   16.3036 N   0  0  0  0  0  0  0  0  0  0  0  0
    5.0287   -8.9365   16.8223 C   0  0  0  0  0  0  0  0  0  0  0  0
    8.7742   -6.1498   16.6764 C   0  0  0  0  0  0  0  0  0  0  0  0
   10.9418   -3.4032   21.2053 O   0  0  0  0  0  0  0  0  0  0  0  0
    1.4797   -8.6258   16.2950 C   0  0  0  0  0  0  0  0  0  0  0  0
    9.2861   -1.2743   25.3585 C   0  0  0  0  0  0  0  0  0  0  0  0
    1.8892  -10.3985   17.7511 N   0  0  0  0  0  0  0  0  0  0  0  0
    9.6210   -0.6952   24.0976 C   0  0  0  0  0  0  0  0  0  0  0  0
    7.0792   -9.0217   17.1429 C   0  0  0  0  0  0  0  0  0  0  0  0
    3.1713  -10.1816   17.6634 C   0  0  0  0  0  0  0  0  0  0  0  0
    2.7878   -8.3822   16.2137 C   0  0  0  0  0  0  0  0  0  0  0  0
    9.4601   -2.6590   25.6528 C   0  0  0  0  0  0  0  0  0  0  0  0
   10.1182   -1.5672   23.1165 C   0  0  0  0  0  0  0  0  0  0  0  0
    1.0552   -9.6360   17.0650 C   0  0  0  0  0  0  0  0  0  0  0  0
    3.6519   -9.1783   16.9039 C   0  0  0  0  0  0  0  0  0  0  0  0
    7.8675   -7.0096   15.9415 C   0  0  0  0  0  0  0  0  0  0  0  0
    5.9733   -9.6553   17.3832 N   0  0  0  0  0  0  0  0  0  0  0  0
   10.2411   -2.9363   23.4301 C   0  0  0  0  0  0  0  0  0  0  0  0
   10.7288   -3.8197   19.9525 C   0  0  0  0  0  0  0  0  0  0  0  0
   10.1189   -5.0054   19.6987 C   0  0  0  0  0  0  0  0  0  0  0  0
  1  3  4  0
  1  7  4  0
  2 21  4  0
  2 27  4  0
  3  9  4  0
  3 10  4  0
  4  8  4  0
  4 18  4  0
  4 25  1  0
  5  9  4  0
  5 12  4  0
  6 13  1  0
  6 27  1  0
  7 28  4  0
  8 11  4  0
  9 29  4  0
 10 12  4  0
 11 24  1  0
 11 26  4  0
 12 25  1  0
 13 28  1  0
 14 20  4  0
 14 23  4  0
 15 17  4  0
 15 21  4  0
 16 19  4  0
 16 23  4  0
 17 22  4  0
 18 26  4  0
 19 24  4  0
 20 24  4  0
 22 27  4  0
 28 29  4  0
M  END
$$$$

 Created by Python create_sdf_string function

 29 33  0  0  0  0  0  0  0  0999 V2000
   10.7215   -3.3326   17.6437 C   0  0  0  0  0  0  0  0  0  0  0  0
    9.9489   -3.4675   24.6487 N   0  0  0  0  0  0  0  0  0  0  0  0
   10.0172   -4.4740   17.4101 C   0  0  0  0  0  0  0  0  0  0  0  0
    6.9051   -7.9575   16.4222 C   0  0  0  0  0  0  0  0  0  0  0  0
    8.9969   -6.3552   17.9668 N   0  0  0  0  0  0  0  0  0  0  0  0
   10.6702   -3.9051   22.4070 C   0  0  0  0  0  0  0  0  0  0  0  0
   11.0625   -3.0028   18.8894 C   0  0  0  0  0  0  0  0  0  0  0  0
    5.6180   -7.9194   16.1754 O   0  0  0  0  0  0  0  0  0  0  0  0
    9.7259   -5.3080   18.4485 C   0  0  0  0  0  0  0  0  0  0  0  0
    9.4578   -5.0200   16.3036 N   0  0  0  0  0  0  0  0  0  0  0  0
    5.0287   -8.9365   16.8223 C   0  0  0  0  0  0  0  0  0  0  0  0
    8.7742   -6.1498   16.6764 C   0  0  0  0  0  0  0  0  0  0  0  0
   10.9418   -3.4032   21.2053 O   0  0  0  0  0  0  0  0  0  0  0  0
    1.4797   -8.6258   16.2950 C   0  0  0  0  0  0  0  0  0  0  0  0
    9.2861   -1.2743   25.3585 C   0  0  0  0  0  0  0  0  0  0  0  0
    1.8892  -10.3985   17.7511 N   0  0  0  0  0  0  0  0  0  0  0  0
    9.6210   -0.6952   24.0976 C   0  0  0  0  0  0  0  0  0  0  0  0
    7.0792   -9.0217   17.1429 C   0  0  0  0  0  0  0  0  0  0  0  0
    3.1713  -10.1816   17.6634 C   0  0  0  0  0  0  0  0  0  0  0  0
    2.7878   -8.3822   16.2137 C   0  0  0  0  0  0  0  0  0  0  0  0
    9.4601   -2.6590   25.6528 C   0  0  0  0  0  0  0  0  0  0  0  0
   10.1182   -1.5672   23.1165 C   0  0  0  0  0  0  0  0  0  0  0  0
    1.0552   -9.6360   17.0650 C   0  0  0  0  0  0  0  0  0  0  0  0
    3.6519   -9.1783   16.9039 C   0  0  0  0  0  0  0  0  0  0  0  0
    7.8675   -7.0096   15.9415 C   0  0  0  0  0  0  0  0  0  0  0  0
    5.9733   -9.6553   17.3832 N   0  0  0  0  0  0  0  0  0  0  0  0
   10.2411   -2.9363   23.4301 C   0  0  0  0  0  0  0  0  0  0  0  0
   10.7288   -3.8197   19.9525 C   0  0  0  0  0  0  0  0  0  0  0  0
   10.1189   -5.0054   19.6987 C   0  0  0  0  0  0  0  0  0  0  0  0
  1  3  4  0
  1  7  4  0
  2 21  4  0
  2 27  4  0
  3  9  4  0
  3 10  4  0
  4  8  4  0
  4 18  4  0
  4 25  1  0
  5  9  4  0
  5 12  4  0
  6 13  1  0
  6 27  1  0
  7 28  4  0
  8 11  4  0
  9 29  4  0
 10 12  4  0
 11 24  1  0
 11 26  4  0
 12 25  1  0
 13 28  1  0
 14 20  4  0
 14 23  4  0
 15 17  4  0
 15 21  4  0
 16 19  4  0
 16 23  4  0
 17 22  4  0
 18 26  4  0
 19 24  4  0
 20 24  4  0
 22 27  4  0
 28 29  4  0
M  END
$$$$

 Created by Python create_sdf_string function

 29 33  0  0  0  0  0  0  0  0999 V2000
   10.7215   -3.3326   17.6437 C   0  0  0  0  0  0  0  0  0  0  0  0
    9.9489   -3.4675   24.6487 N   0  0  0  0  0  0  0  0  0  0  0  0
   10.0172   -4.4740   17.4101 C   0  0  0  0  0  0  0  0  0  0  0  0
    6.9051   -7.9575   16.4222 C   0  0  0  0  0  0  0  0  0  0  0  0
    8.9969   -6.3552   17.9668 N   0  0  0  0  0  0  0  0  0  0  0  0
   10.6702   -3.9051   22.4070 C   0  0  0  0  0  0  0  0  0  0  0  0
   11.0625   -3.0028   18.8894 C   0  0  0  0  0  0  0  0  0  0  0  0
    5.6180   -7.9194   16.1754 O   0  0  0  0  0  0  0  0  0  0  0  0
    9.7259   -5.3080   18.4485 C   0  0  0  0  0  0  0  0  0  0  0  0
    9.4578   -5.0200   16.3036 N   0  0  0  0  0  0  0  0  0  0  0  0
    5.0287   -8.9365   16.8223 C   0  0  0  0  0  0  0  0  0  0  0  0
    8.7742   -6.1498   16.6764 C   0  0  0  0  0  0  0  0  0  0  0  0
   10.9418   -3.4032   21.2053 O   0  0  0  0  0  0  0  0  0  0  0  0
    1.4797   -8.6258   16.2950 C   0  0  0  0  0  0  0  0  0  0  0  0
    9.2861   -1.2743   25.3585 C   0  0  0  0  0  0  0  0  0  0  0  0
    1.8892  -10.3985   17.7511 N   0  0  0  0  0  0  0  0  0  0  0  0
    9.6210   -0.6952   24.0976 C   0  0  0  0  0  0  0  0  0  0  0  0
    7.0792   -9.0217   17.1429 C   0  0  0  0  0  0  0  0  0  0  0  0
    3.1713  -10.1816   17.6634 C   0  0  0  0  0  0  0  0  0  0  0  0
    2.7878   -8.3822   16.2137 C   0  0  0  0  0  0  0  0  0  0  0  0
    9.4601   -2.6590   25.6528 C   0  0  0  0  0  0  0  0  0  0  0  0
   10.1182   -1.5672   23.1165 C   0  0  0  0  0  0  0  0  0  0  0  0
    1.0552   -9.6360   17.0650 C   0  0  0  0  0  0  0  0  0  0  0  0
    3.6519   -9.1783   16.9039 C   0  0  0  0  0  0  0  0  0  0  0  0
    7.8675   -7.0096   15.9415 C   0  0  0  0  0  0  0  0  0  0  0  0
    5.9733   -9.6553   17.3832 N   0  0  0  0  0  0  0  0  0  0  0  0
   10.2411   -2.9363   23.4301 C   0  0  0  0  0  0  0  0  0  0  0  0
   10.7288   -3.8197   19.9525 C   0  0  0  0  0  0  0  0  0  0  0  0
   10.1189   -5.0054   19.6987 C   0  0  0  0  0  0  0  0  0  0  0  0
  1  3  4  0
  1  7  4  0
  2 21  4  0
  2 27  4  0
  3  9  4  0
  3 10  4  0
  4  8  4  0
  4 18  4  0
  4 25  1  0
  5  9  4  0
  5 12  4  0
  6 13  1  0
  6 27  1  0
  7 28  4  0
  8 11  4  0
  9 29  4  0
 10 12  4  0
 11 24  1  0
 11 26  4  0
 12 25  1  0
 13 28  1  0
 14 20  4  0
 14 23  4  0
 15 17  4  0
 15 21  4  0
 16 19  4  0
 16 23  4  0
 17 22  4  0
 18 26  4  0
 19 24  4  0
 20 24  4  0
 22 27  4  0
 28 29  4  0
M  END
$$$$

 Created by Python create_sdf_string function

 29 33  0  0  0  0  0  0  0  0999 V2000
   10.7215   -3.3326   17.6437 C   0  0  0  0  0  0  0  0  0  0  0  0
    9.9489   -3.4675   24.6487 N   0  0  0  0  0  0  0  0  0  0  0  0
   10.0172   -4.4740   17.4101 C   0  0  0  0  0  0  0  0  0  0  0  0
    6.9051   -7.9575   16.4222 C   0  0  0  0  0  0  0  0  0  0  0  0
    8.9969   -6.3552   17.9668 N   0  0  0  0  0  0  0  0  0  0  0  0
   10.6702   -3.9051   22.4070 C   0  0  0  0  0  0  0  0  0  0  0  0
   11.0625   -3.0028   18.8894 C   0  0  0  0  0  0  0  0  0  0  0  0
    5.6180   -7.9194   16.1754 O   0  0  0  0  0  0  0  0  0  0  0  0
    9.7259   -5.3080   18.4485 C   0  0  0  0  0  0  0  0  0  0  0  0
    9.4578   -5.0200   16.3036 N   0  0  0  0  0  0  0  0  0  0  0  0
    5.0287   -8.9365   16.8223 C   0  0  0  0  0  0  0  0  0  0  0  0
    8.7742   -6.1498   16.6764 C   0  0  0  0  0  0  0  0  0  0  0  0
   10.9418   -3.4032   21.2053 O   0  0  0  0  0  0  0  0  0  0  0  0
    1.4797   -8.6258   16.2950 C   0  0  0  0  0  0  0  0  0  0  0  0
    9.2861   -1.2743   25.3585 C   0  0  0  0  0  0  0  0  0  0  0  0
    1.8892  -10.3985   17.7511 N   0  0  0  0  0  0  0  0  0  0  0  0
    9.6210   -0.6952   24.0976 C   0  0  0  0  0  0  0  0  0  0  0  0
    7.0792   -9.0217   17.1429 C   0  0  0  0  0  0  0  0  0  0  0  0
    3.1713  -10.1816   17.6634 C   0  0  0  0  0  0  0  0  0  0  0  0
    2.7878   -8.3822   16.2137 C   0  0  0  0  0  0  0  0  0  0  0  0
    9.4601   -2.6590   25.6528 C   0  0  0  0  0  0  0  0  0  0  0  0
   10.1182   -1.5672   23.1165 C   0  0  0  0  0  0  0  0  0  0  0  0
    1.0552   -9.6360   17.0650 C   0  0  0  0  0  0  0  0  0  0  0  0
    3.6519   -9.1783   16.9039 C   0  0  0  0  0  0  0  0  0  0  0  0
    7.8675   -7.0096   15.9415 C   0  0  0  0  0  0  0  0  0  0  0  0
    5.9733   -9.6553   17.3832 N   0  0  0  0  0  0  0  0  0  0  0  0
   10.2411   -2.9363   23.4301 C   0  0  0  0  0  0  0  0  0  0  0  0
   10.7288   -3.8197   19.9525 C   0  0  0  0  0  0  0  0  0  0  0  0
   10.1189   -5.0054   19.6987 C   0  0  0  0  0  0  0  0  0  0  0  0
  1  3  4  0
  1  7  4  0
  2 21  4  0
  2 27  4  0
  3  9  4  0
  3 10  4  0
  4  8  4  0
  4 18  4  0
  4 25  1  0
  5  9  4  0
  5 12  4  0
  6 13  1  0
  6 27  1  0
  7 28  4  0
  8 11  4  0
  9 29  4  0
 10 12  4  0
 11 24  1  0
 11 26  4  0
 12 25  1  0
 13 28  1  0
 14 20  4  0
 14 23  4  0
 15 17  4  0
 15 21  4  0
 16 19  4  0
 16 23  4  0
 17 22  4  0
 18 26  4  0
 19 24  4  0
 20 24  4  0
 22 27  4  0
 28 29  4  0
M  END
$$$$

 Created by Python create_sdf_string function

 29 33  0  0  0  0  0  0  0  0999 V2000
   10.7215   -3.3326   17.6437 C   0  0  0  0  0  0  0  0  0  0  0  0
    9.9489   -3.4675   24.6487 N   0  0  0  0  0  0  0  0  0  0  0  0
   10.0172   -4.4740   17.4101 C   0  0  0  0  0  0  0  0  0  0  0  0
    6.9051   -7.9575   16.4222 C   0  0  0  0  0  0  0  0  0  0  0  0
    8.9969   -6.3552   17.9668 N   0  0  0  0  0  0  0  0  0  0  0  0
   10.6702   -3.9051   22.4070 C   0  0  0  0  0  0  0  0  0  0  0  0
   11.0625   -3.0028   18.8894 C   0  0  0  0  0  0  0  0  0  0  0  0
    5.6180   -7.9194   16.1754 O   0  0  0  0  0  0  0  0  0  0  0  0
    9.7259   -5.3080   18.4485 C   0  0  0  0  0  0  0  0  0  0  0  0
    9.4578   -5.0200   16.3036 N   0  0  0  0  0  0  0  0  0  0  0  0
    5.0287   -8.9365   16.8223 C   0  0  0  0  0  0  0  0  0  0  0  0
    8.7742   -6.1498   16.6764 C   0  0  0  0  0  0  0  0  0  0  0  0
   10.9418   -3.4032   21.2053 O   0  0  0  0  0  0  0  0  0  0  0  0
    1.4797   -8.6258   16.2950 C   0  0  0  0  0  0  0  0  0  0  0  0
    9.2861   -1.2743   25.3585 C   0  0  0  0  0  0  0  0  0  0  0  0
    1.8892  -10.3985   17.7511 N   0  0  0  0  0  0  0  0  0  0  0  0
    9.6210   -0.6952   24.0976 C   0  0  0  0  0  0  0  0  0  0  0  0
    7.0792   -9.0217   17.1429 C   0  0  0  0  0  0  0  0  0  0  0  0
    3.1713  -10.1816   17.6634 C   0  0  0  0  0  0  0  0  0  0  0  0
    2.7878   -8.3822   16.2137 C   0  0  0  0  0  0  0  0  0  0  0  0
    9.4601   -2.6590   25.6528 C   0  0  0  0  0  0  0  0  0  0  0  0
   10.1182   -1.5672   23.1165 C   0  0  0  0  0  0  0  0  0  0  0  0
    1.0552   -9.6360   17.0650 C   0  0  0  0  0  0  0  0  0  0  0  0
    3.6519   -9.1783   16.9039 C   0  0  0  0  0  0  0  0  0  0  0  0
    7.8675   -7.0096   15.9415 C   0  0  0  0  0  0  0  0  0  0  0  0
    5.9733   -9.6553   17.3832 N   0  0  0  0  0  0  0  0  0  0  0  0
   10.2411   -2.9363   23.4301 C   0  0  0  0  0  0  0  0  0  0  0  0
   10.7288   -3.8197   19.9525 C   0  0  0  0  0  0  0  0  0  0  0  0
   10.1189   -5.0054   19.6987 C   0  0  0  0  0  0  0  0  0  0  0  0
  1  3  4  0
  1  7  4  0
  2 21  4  0
  2 27  4  0
  3  9  4  0
  3 10  4  0
  4  8  4  0
  4 18  4  0
  4 25  1  0
  5  9  4  0
  5 12  4  0
  6 13  1  0
  6 27  1  0
  7 28  4  0
  8 11  4  0
  9 29  4  0
 10 12  4  0
 11 24  1  0
 11 26  4  0
 12 25  1  0
 13 28  1  0
 14 20  4  0
 14 23  4  0
 15 17  4  0
 15 21  4  0
 16 19  4  0
 16 23  4  0
 17 22  4  0
 18 26  4  0
 19 24  4  0
 20 24  4  0
 22 27  4  0
 28 29  4  0
M  END
$$$$

 Created by Python create_sdf_string function

 29 33  0  0  0  0  0  0  0  0999 V2000
   10.7215   -3.3326   17.6437 C   0  0  0  0  0  0  0  0  0  0  0  0
    9.9489   -3.4675   24.6487 N   0  0  0  0  0  0  0  0  0  0  0  0
   10.0172   -4.4740   17.4101 C   0  0  0  0  0  0  0  0  0  0  0  0
    6.9051   -7.9575   16.4222 C   0  0  0  0  0  0  0  0  0  0  0  0
    8.9969   -6.3552   17.9668 N   0  0  0  0  0  0  0  0  0  0  0  0
   10.6702   -3.9051   22.4070 C   0  0  0  0  0  0  0  0  0  0  0  0
   11.0625   -3.0028   18.8894 C   0  0  0  0  0  0  0  0  0  0  0  0
    5.6180   -7.9194   16.1754 O   0  0  0  0  0  0  0  0  0  0  0  0
    9.7259   -5.3080   18.4485 C   0  0  0  0  0  0  0  0  0  0  0  0
    9.4578   -5.0200   16.3036 N   0  0  0  0  0  0  0  0  0  0  0  0
    5.0287   -8.9365   16.8223 C   0  0  0  0  0  0  0  0  0  0  0  0
    8.7742   -6.1498   16.6764 C   0  0  0  0  0  0  0  0  0  0  0  0
   10.9418   -3.4032   21.2053 O   0  0  0  0  0  0  0  0  0  0  0  0
    1.4797   -8.6258   16.2950 C   0  0  0  0  0  0  0  0  0  0  0  0
    9.2861   -1.2743   25.3585 C   0  0  0  0  0  0  0  0  0  0  0  0
    1.8892  -10.3985   17.7511 N   0  0  0  0  0  0  0  0  0  0  0  0
    9.6210   -0.6952   24.0976 C   0  0  0  0  0  0  0  0  0  0  0  0
    7.0792   -9.0217   17.1429 C   0  0  0  0  0  0  0  0  0  0  0  0
    3.1713  -10.1816   17.6634 C   0  0  0  0  0  0  0  0  0  0  0  0
    2.7878   -8.3822   16.2137 C   0  0  0  0  0  0  0  0  0  0  0  0
    9.4601   -2.6590   25.6528 C   0  0  0  0  0  0  0  0  0  0  0  0
   10.1182   -1.5672   23.1165 C   0  0  0  0  0  0  0  0  0  0  0  0
    1.0552   -9.6360   17.0650 C   0  0  0  0  0  0  0  0  0  0  0  0
    3.6519   -9.1783   16.9039 C   0  0  0  0  0  0  0  0  0  0  0  0
    7.8675   -7.0096   15.9415 C   0  0  0  0  0  0  0  0  0  0  0  0
    5.9733   -9.6553   17.3832 N   0  0  0  0  0  0  0  0  0  0  0  0
   10.2411   -2.9363   23.4301 C   0  0  0  0  0  0  0  0  0  0  0  0
   10.7288   -3.8197   19.9525 C   0  0  0  0  0  0  0  0  0  0  0  0
   10.1189   -5.0054   19.6987 C   0  0  0  0  0  0  0  0  0  0  0  0
  1  3  4  0
  1  7  4  0
  2 21  4  0
  2 27  4  0
  3  9  4  0
  3 10  4  0
  4  8  4  0
  4 18  4  0
  4 25  1  0
  5  9  4  0
  5 12  4  0
  6 13  1  0
  6 27  1  0
  7 28  4  0
  8 11  4  0
  9 29  4  0
 10 12  4  0
 11 24  1  0
 11 26  4  0
 12 25  1  0
 13 28  1  0
 14 20  4  0
 14 23  4  0
 15 17  4  0
 15 21  4  0
 16 19  4  0
 16 23  4  0
 17 22  4  0
 18 26  4  0
 19 24  4  0
 20 24  4  0
 22 27  4  0
 28 29  4  0
M  END
$$$$

 Created by Python create_sdf_string function

 29 33  0  0  0  0  0  0  0  0999 V2000
   10.7215   -3.3326   17.6437 C   0  0  0  0  0  0  0  0  0  0  0  0
    9.9489   -3.4675   24.6487 N   0  0  0  0  0  0  0  0  0  0  0  0
   10.0172   -4.4740   17.4101 C   0  0  0  0  0  0  0  0  0  0  0  0
    6.9051   -7.9575   16.4222 C   0  0  0  0  0  0  0  0  0  0  0  0
    8.9969   -6.3552   17.9668 N   0  0  0  0  0  0  0  0  0  0  0  0
   10.6702   -3.9051   22.4070 C   0  0  0  0  0  0  0  0  0  0  0  0
   11.0625   -3.0028   18.8894 C   0  0  0  0  0  0  0  0  0  0  0  0
    5.6180   -7.9194   16.1754 O   0  0  0  0  0  0  0  0  0  0  0  0
    9.7259   -5.3080   18.4485 C   0  0  0  0  0  0  0  0  0  0  0  0
    9.4578   -5.0200   16.3036 N   0  0  0  0  0  0  0  0  0  0  0  0
    5.0287   -8.9365   16.8223 C   0  0  0  0  0  0  0  0  0  0  0  0
    8.7742   -6.1498   16.6764 C   0  0  0  0  0  0  0  0  0  0  0  0
   10.9418   -3.4032   21.2053 O   0  0  0  0  0  0  0  0  0  0  0  0
    1.4797   -8.6258   16.2950 C   0  0  0  0  0  0  0  0  0  0  0  0
    9.2861   -1.2743   25.3585 C   0  0  0  0  0  0  0  0  0  0  0  0
    1.8892  -10.3985   17.7511 N   0  0  0  0  0  0  0  0  0  0  0  0
    9.6210   -0.6952   24.0976 C   0  0  0  0  0  0  0  0  0  0  0  0
    7.0792   -9.0217   17.1429 C   0  0  0  0  0  0  0  0  0  0  0  0
    3.1713  -10.1816   17.6634 C   0  0  0  0  0  0  0  0  0  0  0  0
    2.7878   -8.3822   16.2137 C   0  0  0  0  0  0  0  0  0  0  0  0
    9.4601   -2.6590   25.6528 C   0  0  0  0  0  0  0  0  0  0  0  0
   10.1182   -1.5672   23.1165 C   0  0  0  0  0  0  0  0  0  0  0  0
    1.0552   -9.6360   17.0650 C   0  0  0  0  0  0  0  0  0  0  0  0
    3.6519   -9.1783   16.9039 C   0  0  0  0  0  0  0  0  0  0  0  0
    7.8675   -7.0096   15.9415 C   0  0  0  0  0  0  0  0  0  0  0  0
    5.9733   -9.6553   17.3832 N   0  0  0  0  0  0  0  0  0  0  0  0
   10.2411   -2.9363   23.4301 C   0  0  0  0  0  0  0  0  0  0  0  0
   10.7288   -3.8197   19.9525 C   0  0  0  0  0  0  0  0  0  0  0  0
   10.1189   -5.0054   19.6987 C   0  0  0  0  0  0  0  0  0  0  0  0
  1  3  4  0
  1  7  4  0
  2 21  4  0
  2 27  4  0
  3  9  4  0
  3 10  4  0
  4  8  4  0
  4 18  4  0
  4 25  1  0
  5  9  4  0
  5 12  4  0
  6 13  1  0
  6 27  1  0
  7 28  4  0
  8 11  4  0
  9 29  4  0
 10 12  4  0
 11 24  1  0
 11 26  4  0
 12 25  1  0
 13 28  1  0
 14 20  4  0
 14 23  4  0
 15 17  4  0
 15 21  4  0
 16 19  4  0
 16 23  4  0
 17 22  4  0
 18 26  4  0
 19 24  4  0
 20 24  4  0
 22 27  4  0
 28 29  4  0
M  END
$$$$

 Created by Python create_sdf_string function

 29 33  0  0  0  0  0  0  0  0999 V2000
   10.7215   -3.3326   17.6437 C   0  0  0  0  0  0  0  0  0  0  0  0
    9.9489   -3.4675   24.6487 N   0  0  0  0  0  0  0  0  0  0  0  0
   10.0172   -4.4740   17.4101 C   0  0  0  0  0  0  0  0  0  0  0  0
    6.9051   -7.9575   16.4222 C   0  0  0  0  0  0  0  0  0  0  0  0
    8.9969   -6.3552   17.9668 N   0  0  0  0  0  0  0  0  0  0  0  0
   10.6702   -3.9051   22.4070 C   0  0  0  0  0  0  0  0  0  0  0  0
   11.0625   -3.0028   18.8894 C   0  0  0  0  0  0  0  0  0  0  0  0
    5.6180   -7.9194   16.1754 O   0  0  0  0  0  0  0  0  0  0  0  0
    9.7259   -5.3080   18.4485 C   0  0  0  0  0  0  0  0  0  0  0  0
    9.4578   -5.0200   16.3036 N   0  0  0  0  0  0  0  0  0  0  0  0
    5.0287   -8.9365   16.8223 C   0  0  0  0  0  0  0  0  0  0  0  0
    8.7742   -6.1498   16.6764 C   0  0  0  0  0  0  0  0  0  0  0  0
   10.9418   -3.4032   21.2053 O   0  0  0  0  0  0  0  0  0  0  0  0
    1.4797   -8.6258   16.2950 C   0  0  0  0  0  0  0  0  0  0  0  0
    9.2861   -1.2743   25.3585 C   0  0  0  0  0  0  0  0  0  0  0  0
    1.8892  -10.3985   17.7511 N   0  0  0  0  0  0  0  0  0  0  0  0
    9.6210   -0.6952   24.0976 C   0  0  0  0  0  0  0  0  0  0  0  0
    7.0792   -9.0217   17.1429 C   0  0  0  0  0  0  0  0  0  0  0  0
    3.1713  -10.1816   17.6634 C   0  0  0  0  0  0  0  0  0  0  0  0
    2.7878   -8.3822   16.2137 C   0  0  0  0  0  0  0  0  0  0  0  0
    9.4601   -2.6590   25.6528 C   0  0  0  0  0  0  0  0  0  0  0  0
   10.1182   -1.5672   23.1165 C   0  0  0  0  0  0  0  0  0  0  0  0
    1.0552   -9.6360   17.0650 C   0  0  0  0  0  0  0  0  0  0  0  0
    3.6519   -9.1783   16.9039 C   0  0  0  0  0  0  0  0  0  0  0  0
    7.8675   -7.0096   15.9415 C   0  0  0  0  0  0  0  0  0  0  0  0
    5.9733   -9.6553   17.3832 N   0  0  0  0  0  0  0  0  0  0  0  0
   10.2411   -2.9363   23.4301 C   0  0  0  0  0  0  0  0  0  0  0  0
   10.7288   -3.8197   19.9525 C   0  0  0  0  0  0  0  0  0  0  0  0
   10.1189   -5.0054   19.6987 C   0  0  0  0  0  0  0  0  0  0  0  0
  1  3  4  0
  1  7  4  0
  2 21  4  0
  2 27  4  0
  3  9  4  0
  3 10  4  0
  4  8  4  0
  4 18  4  0
  4 25  1  0
  5  9  4  0
  5 12  4  0
  6 13  1  0
  6 27  1  0
  7 28  4  0
  8 11  4  0
  9 29  4  0
 10 12  4  0
 11 24  1  0
 11 26  4  0
 12 25  1  0
 13 28  1  0
 14 20  4  0
 14 23  4  0
 15 17  4  0
 15 21  4  0
 16 19  4  0
 16 23  4  0
 17 22  4  0
 18 26  4  0
 19 24  4  0
 20 24  4  0
 22 27  4  0
 28 29  4  0
M  END
$$$$

 Created by Python create_sdf_string function

 29 33  0  0  0  0  0  0  0  0999 V2000
   10.7215   -3.3326   17.6437 C   0  0  0  0  0  0  0  0  0  0  0  0
    9.9489   -3.4675   24.6487 N   0  0  0  0  0  0  0  0  0  0  0  0
   10.0172   -4.4740   17.4101 C   0  0  0  0  0  0  0  0  0  0  0  0
    6.9051   -7.9575   16.4222 C   0  0  0  0  0  0  0  0  0  0  0  0
    8.9969   -6.3552   17.9668 N   0  0  0  0  0  0  0  0  0  0  0  0
   10.6702   -3.9051   22.4070 C   0  0  0  0  0  0  0  0  0  0  0  0
   11.0625   -3.0028   18.8894 C   0  0  0  0  0  0  0  0  0  0  0  0
    5.6180   -7.9194   16.1754 O   0  0  0  0  0  0  0  0  0  0  0  0
    9.7259   -5.3080   18.4485 C   0  0  0  0  0  0  0  0  0  0  0  0
    9.4578   -5.0200   16.3036 N   0  0  0  0  0  0  0  0  0  0  0  0
    5.0287   -8.9365   16.8223 C   0  0  0  0  0  0  0  0  0  0  0  0
    8.7742   -6.1498   16.6764 C   0  0  0  0  0  0  0  0  0  0  0  0
   10.9418   -3.4032   21.2053 O   0  0  0  0  0  0  0  0  0  0  0  0
    1.4797   -8.6258   16.2950 C   0  0  0  0  0  0  0  0  0  0  0  0
    9.2861   -1.2743   25.3585 C   0  0  0  0  0  0  0  0  0  0  0  0
    1.8892  -10.3985   17.7511 N   0  0  0  0  0  0  0  0  0  0  0  0
    9.6210   -0.6952   24.0976 C   0  0  0  0  0  0  0  0  0  0  0  0
    7.0792   -9.0217   17.1429 C   0  0  0  0  0  0  0  0  0  0  0  0
    3.1713  -10.1816   17.6634 C   0  0  0  0  0  0  0  0  0  0  0  0
    2.7878   -8.3822   16.2137 C   0  0  0  0  0  0  0  0  0  0  0  0
    9.4601   -2.6590   25.6528 C   0  0  0  0  0  0  0  0  0  0  0  0
   10.1182   -1.5672   23.1165 C   0  0  0  0  0  0  0  0  0  0  0  0
    1.0552   -9.6360   17.0650 C   0  0  0  0  0  0  0  0  0  0  0  0
    3.6519   -9.1783   16.9039 C   0  0  0  0  0  0  0  0  0  0  0  0
    7.8675   -7.0096   15.9415 C   0  0  0  0  0  0  0  0  0  0  0  0
    5.9733   -9.6553   17.3832 N   0  0  0  0  0  0  0  0  0  0  0  0
   10.2411   -2.9363   23.4301 C   0  0  0  0  0  0  0  0  0  0  0  0
   10.7288   -3.8197   19.9525 C   0  0  0  0  0  0  0  0  0  0  0  0
   10.1189   -5.0054   19.6987 C   0  0  0  0  0  0  0  0  0  0  0  0
  1  3  4  0
  1  7  4  0
  2 21  4  0
  2 27  4  0
  3  9  4  0
  3 10  4  0
  4  8  4  0
  4 18  4  0
  4 25  1  0
  5  9  4  0
  5 12  4  0
  6 13  1  0
  6 27  1  0
  7 28  4  0
  8 11  4  0
  9 29  4  0
 10 12  4  0
 11 24  1  0
 11 26  4  0
 12 25  1  0
 13 28  1  0
 14 20  4  0
 14 23  4  0
 15 17  4  0
 15 21  4  0
 16 19  4  0
 16 23  4  0
 17 22  4  0
 18 26  4  0
 19 24  4  0
 20 24  4  0
 22 27  4  0
 28 29  4  0
M  END
$$$$

 Created by Python create_sdf_string function

 29 33  0  0  0  0  0  0  0  0999 V2000
   10.7215   -3.3326   17.6437 C   0  0  0  0  0  0  0  0  0  0  0  0
    9.9489   -3.4675   24.6487 N   0  0  0  0  0  0  0  0  0  0  0  0
   10.0172   -4.4740   17.4101 C   0  0  0  0  0  0  0  0  0  0  0  0
    6.9051   -7.9575   16.4222 C   0  0  0  0  0  0  0  0  0  0  0  0
    8.9969   -6.3552   17.9668 N   0  0  0  0  0  0  0  0  0  0  0  0
   10.6702   -3.9051   22.4070 C   0  0  0  0  0  0  0  0  0  0  0  0
   11.0625   -3.0028   18.8894 C   0  0  0  0  0  0  0  0  0  0  0  0
    5.6180   -7.9194   16.1754 O   0  0  0  0  0  0  0  0  0  0  0  0
    9.7259   -5.3080   18.4485 C   0  0  0  0  0  0  0  0  0  0  0  0
    9.4578   -5.0200   16.3036 N   0  0  0  0  0  0  0  0  0  0  0  0
    5.0287   -8.9365   16.8223 C   0  0  0  0  0  0  0  0  0  0  0  0
    8.7742   -6.1498   16.6764 C   0  0  0  0  0  0  0  0  0  0  0  0
   10.9418   -3.4032   21.2053 O   0  0  0  0  0  0  0  0  0  0  0  0
    1.4797   -8.6258   16.2950 C   0  0  0  0  0  0  0  0  0  0  0  0
    9.2861   -1.2743   25.3585 C   0  0  0  0  0  0  0  0  0  0  0  0
    1.8892  -10.3985   17.7511 N   0  0  0  0  0  0  0  0  0  0  0  0
    9.6210   -0.6952   24.0976 C   0  0  0  0  0  0  0  0  0  0  0  0
    7.0792   -9.0217   17.1429 C   0  0  0  0  0  0  0  0  0  0  0  0
    3.1713  -10.1816   17.6634 C   0  0  0  0  0  0  0  0  0  0  0  0
    2.7878   -8.3822   16.2137 C   0  0  0  0  0  0  0  0  0  0  0  0
    9.4601   -2.6590   25.6528 C   0  0  0  0  0  0  0  0  0  0  0  0
   10.1182   -1.5672   23.1165 C   0  0  0  0  0  0  0  0  0  0  0  0
    1.0552   -9.6360   17.0650 C   0  0  0  0  0  0  0  0  0  0  0  0
    3.6519   -9.1783   16.9039 C   0  0  0  0  0  0  0  0  0  0  0  0
    7.8675   -7.0096   15.9415 C   0  0  0  0  0  0  0  0  0  0  0  0
    5.9733   -9.6553   17.3832 N   0  0  0  0  0  0  0  0  0  0  0  0
   10.2411   -2.9363   23.4301 C   0  0  0  0  0  0  0  0  0  0  0  0
   10.7288   -3.8197   19.9525 C   0  0  0  0  0  0  0  0  0  0  0  0
   10.1189   -5.0054   19.6987 C   0  0  0  0  0  0  0  0  0  0  0  0
  1  3  4  0
  1  7  4  0
  2 21  4  0
  2 27  4  0
  3  9  4  0
  3 10  4  0
  4  8  4  0
  4 18  4  0
  4 25  1  0
  5  9  4  0
  5 12  4  0
  6 13  1  0
  6 27  1  0
  7 28  4  0
  8 11  4  0
  9 29  4  0
 10 12  4  0
 11 24  1  0
 11 26  4  0
 12 25  1  0
 13 28  1  0
 14 20  4  0
 14 23  4  0
 15 17  4  0
 15 21  4  0
 16 19  4  0
 16 23  4  0
 17 22  4  0
 18 26  4  0
 19 24  4  0
 20 24  4  0
 22 27  4  0
 28 29  4  0
M  END
$$$$

 Created by Python create_sdf_string function

 29 33  0  0  0  0  0  0  0  0999 V2000
   10.7215   -3.3326   17.6437 C   0  0  0  0  0  0  0  0  0  0  0  0
    9.9489   -3.4675   24.6487 N   0  0  0  0  0  0  0  0  0  0  0  0
   10.0172   -4.4740   17.4101 C   0  0  0  0  0  0  0  0  0  0  0  0
    6.9051   -7.9575   16.4222 C   0  0  0  0  0  0  0  0  0  0  0  0
    8.9969   -6.3552   17.9668 N   0  0  0  0  0  0  0  0  0  0  0  0
   10.6702   -3.9051   22.4070 C   0  0  0  0  0  0  0  0  0  0  0  0
   11.0625   -3.0028   18.8894 C   0  0  0  0  0  0  0  0  0  0  0  0
    5.6180   -7.9194   16.1754 O   0  0  0  0  0  0  0  0  0  0  0  0
    9.7259   -5.3080   18.4485 C   0  0  0  0  0  0  0  0  0  0  0  0
    9.4578   -5.0200   16.3036 N   0  0  0  0  0  0  0  0  0  0  0  0
    5.0287   -8.9365   16.8223 C   0  0  0  0  0  0  0  0  0  0  0  0
    8.7742   -6.1498   16.6764 C   0  0  0  0  0  0  0  0  0  0  0  0
   10.9418   -3.4032   21.2053 O   0  0  0  0  0  0  0  0  0  0  0  0
    1.4797   -8.6258   16.2950 C   0  0  0  0  0  0  0  0  0  0  0  0
    9.2861   -1.2743   25.3585 C   0  0  0  0  0  0  0  0  0  0  0  0
    1.8892  -10.3985   17.7511 N   0  0  0  0  0  0  0  0  0  0  0  0
    9.6210   -0.6952   24.0976 C   0  0  0  0  0  0  0  0  0  0  0  0
    7.0792   -9.0217   17.1429 C   0  0  0  0  0  0  0  0  0  0  0  0
    3.1713  -10.1816   17.6634 C   0  0  0  0  0  0  0  0  0  0  0  0
    2.7878   -8.3822   16.2137 C   0  0  0  0  0  0  0  0  0  0  0  0
    9.4601   -2.6590   25.6528 C   0  0  0  0  0  0  0  0  0  0  0  0
   10.1182   -1.5672   23.1165 C   0  0  0  0  0  0  0  0  0  0  0  0
    1.0552   -9.6360   17.0650 C   0  0  0  0  0  0  0  0  0  0  0  0
    3.6519   -9.1783   16.9039 C   0  0  0  0  0  0  0  0  0  0  0  0
    7.8675   -7.0096   15.9415 C   0  0  0  0  0  0  0  0  0  0  0  0
    5.9733   -9.6553   17.3832 N   0  0  0  0  0  0  0  0  0  0  0  0
   10.2411   -2.9363   23.4301 C   0  0  0  0  0  0  0  0  0  0  0  0
   10.7288   -3.8197   19.9525 C   0  0  0  0  0  0  0  0  0  0  0  0
   10.1189   -5.0054   19.6987 C   0  0  0  0  0  0  0  0  0  0  0  0
  1  3  4  0
  1  7  4  0
  2 21  4  0
  2 27  4  0
  3  9  4  0
  3 10  4  0
  4  8  4  0
  4 18  4  0
  4 25  1  0
  5  9  4  0
  5 12  4  0
  6 13  1  0
  6 27  1  0
  7 28  4  0
  8 11  4  0
  9 29  4  0
 10 12  4  0
 11 24  1  0
 11 26  4  0
 12 25  1  0
 13 28  1  0
 14 20  4  0
 14 23  4  0
 15 17  4  0
 15 21  4  0
 16 19  4  0
 16 23  4  0
 17 22  4  0
 18 26  4  0
 19 24  4  0
 20 24  4  0
 22 27  4  0
 28 29  4  0
M  END
$$$$

 Created by Python create_sdf_string function

 29 33  0  0  0  0  0  0  0  0999 V2000
   10.7215   -3.3326   17.6437 C   0  0  0  0  0  0  0  0  0  0  0  0
    9.9489   -3.4675   24.6487 N   0  0  0  0  0  0  0  0  0  0  0  0
   10.0172   -4.4740   17.4101 C   0  0  0  0  0  0  0  0  0  0  0  0
    6.9051   -7.9575   16.4222 C   0  0  0  0  0  0  0  0  0  0  0  0
    8.9969   -6.3552   17.9668 N   0  0  0  0  0  0  0  0  0  0  0  0
   10.6702   -3.9051   22.4070 C   0  0  0  0  0  0  0  0  0  0  0  0
   11.0625   -3.0028   18.8894 C   0  0  0  0  0  0  0  0  0  0  0  0
    5.6180   -7.9194   16.1754 O   0  0  0  0  0  0  0  0  0  0  0  0
    9.7259   -5.3080   18.4485 C   0  0  0  0  0  0  0  0  0  0  0  0
    9.4578   -5.0200   16.3036 N   0  0  0  0  0  0  0  0  0  0  0  0
    5.0287   -8.9365   16.8223 C   0  0  0  0  0  0  0  0  0  0  0  0
    8.7742   -6.1498   16.6764 C   0  0  0  0  0  0  0  0  0  0  0  0
   10.9418   -3.4032   21.2053 O   0  0  0  0  0  0  0  0  0  0  0  0
    1.4797   -8.6258   16.2950 C   0  0  0  0  0  0  0  0  0  0  0  0
    9.2861   -1.2743   25.3585 C   0  0  0  0  0  0  0  0  0  0  0  0
    1.8892  -10.3985   17.7511 N   0  0  0  0  0  0  0  0  0  0  0  0
    9.6210   -0.6952   24.0976 C   0  0  0  0  0  0  0  0  0  0  0  0
    7.0792   -9.0217   17.1429 C   0  0  0  0  0  0  0  0  0  0  0  0
    3.1713  -10.1816   17.6634 C   0  0  0  0  0  0  0  0  0  0  0  0
    2.7878   -8.3822   16.2137 C   0  0  0  0  0  0  0  0  0  0  0  0
    9.4601   -2.6590   25.6528 C   0  0  0  0  0  0  0  0  0  0  0  0
   10.1182   -1.5672   23.1165 C   0  0  0  0  0  0  0  0  0  0  0  0
    1.0552   -9.6360   17.0650 C   0  0  0  0  0  0  0  0  0  0  0  0
    3.6519   -9.1783   16.9039 C   0  0  0  0  0  0  0  0  0  0  0  0
    7.8675   -7.0096   15.9415 C   0  0  0  0  0  0  0  0  0  0  0  0
    5.9733   -9.6553   17.3832 N   0  0  0  0  0  0  0  0  0  0  0  0
   10.2411   -2.9363   23.4301 C   0  0  0  0  0  0  0  0  0  0  0  0
   10.7288   -3.8197   19.9525 C   0  0  0  0  0  0  0  0  0  0  0  0
   10.1189   -5.0054   19.6987 C   0  0  0  0  0  0  0  0  0  0  0  0
  1  3  4  0
  1  7  4  0
  2 21  4  0
  2 27  4  0
  3  9  4  0
  3 10  4  0
  4  8  4  0
  4 18  4  0
  4 25  1  0
  5  9  4  0
  5 12  4  0
  6 13  1  0
  6 27  1  0
  7 28  4  0
  8 11  4  0
  9 29  4  0
 10 12  4  0
 11 24  1  0
 11 26  4  0
 12 25  1  0
 13 28  1  0
 14 20  4  0
 14 23  4  0
 15 17  4  0
 15 21  4  0
 16 19  4  0
 16 23  4  0
 17 22  4  0
 18 26  4  0
 19 24  4  0
 20 24  4  0
 22 27  4  0
 28 29  4  0
M  END
$$$$

 Created by Python create_sdf_string function

 29 33  0  0  0  0  0  0  0  0999 V2000
   10.7215   -3.3326   17.6437 C   0  0  0  0  0  0  0  0  0  0  0  0
    9.9489   -3.4675   24.6487 N   0  0  0  0  0  0  0  0  0  0  0  0
   10.0172   -4.4740   17.4101 C   0  0  0  0  0  0  0  0  0  0  0  0
    6.9051   -7.9575   16.4222 C   0  0  0  0  0  0  0  0  0  0  0  0
    8.9969   -6.3552   17.9668 N   0  0  0  0  0  0  0  0  0  0  0  0
   10.6702   -3.9051   22.4070 C   0  0  0  0  0  0  0  0  0  0  0  0
   11.0625   -3.0028   18.8894 C   0  0  0  0  0  0  0  0  0  0  0  0
    5.6180   -7.9194   16.1754 O   0  0  0  0  0  0  0  0  0  0  0  0
    9.7259   -5.3080   18.4485 C   0  0  0  0  0  0  0  0  0  0  0  0
    9.4578   -5.0200   16.3036 N   0  0  0  0  0  0  0  0  0  0  0  0
    5.0287   -8.9365   16.8223 C   0  0  0  0  0  0  0  0  0  0  0  0
    8.7742   -6.1498   16.6764 C   0  0  0  0  0  0  0  0  0  0  0  0
   10.9418   -3.4032   21.2053 O   0  0  0  0  0  0  0  0  0  0  0  0
    1.4797   -8.6258   16.2950 C   0  0  0  0  0  0  0  0  0  0  0  0
    9.2861   -1.2743   25.3585 C   0  0  0  0  0  0  0  0  0  0  0  0
    1.8892  -10.3985   17.7511 N   0  0  0  0  0  0  0  0  0  0  0  0
    9.6210   -0.6952   24.0976 C   0  0  0  0  0  0  0  0  0  0  0  0
    7.0792   -9.0217   17.1429 C   0  0  0  0  0  0  0  0  0  0  0  0
    3.1713  -10.1816   17.6634 C   0  0  0  0  0  0  0  0  0  0  0  0
    2.7878   -8.3822   16.2137 C   0  0  0  0  0  0  0  0  0  0  0  0
    9.4601   -2.6590   25.6528 C   0  0  0  0  0  0  0  0  0  0  0  0
   10.1182   -1.5672   23.1165 C   0  0  0  0  0  0  0  0  0  0  0  0
    1.0552   -9.6360   17.0650 C   0  0  0  0  0  0  0  0  0  0  0  0
    3.6519   -9.1783   16.9039 C   0  0  0  0  0  0  0  0  0  0  0  0
    7.8675   -7.0096   15.9415 C   0  0  0  0  0  0  0  0  0  0  0  0
    5.9733   -9.6553   17.3832 N   0  0  0  0  0  0  0  0  0  0  0  0
   10.2411   -2.9363   23.4301 C   0  0  0  0  0  0  0  0  0  0  0  0
   10.7288   -3.8197   19.9525 C   0  0  0  0  0  0  0  0  0  0  0  0
   10.1189   -5.0054   19.6987 C   0  0  0  0  0  0  0  0  0  0  0  0
  1  3  4  0
  1  7  4  0
  2 21  4  0
  2 27  4  0
  3  9  4  0
  3 10  4  0
  4  8  4  0
  4 18  4  0
  4 25  1  0
  5  9  4  0
  5 12  4  0
  6 13  1  0
  6 27  1  0
  7 28  4  0
  8 11  4  0
  9 29  4  0
 10 12  4  0
 11 24  1  0
 11 26  4  0
 12 25  1  0
 13 28  1  0
 14 20  4  0
 14 23  4  0
 15 17  4  0
 15 21  4  0
 16 19  4  0
 16 23  4  0
 17 22  4  0
 18 26  4  0
 19 24  4  0
 20 24  4  0
 22 27  4  0
 28 29  4  0
M  END
$$$$

 Created by Python create_sdf_string function

 29 33  0  0  0  0  0  0  0  0999 V2000
   10.7215   -3.3326   17.6437 C   0  0  0  0  0  0  0  0  0  0  0  0
    9.9489   -3.4675   24.6487 N   0  0  0  0  0  0  0  0  0  0  0  0
   10.0172   -4.4740   17.4101 C   0  0  0  0  0  0  0  0  0  0  0  0
    6.9051   -7.9575   16.4222 C   0  0  0  0  0  0  0  0  0  0  0  0
    8.9969   -6.3552   17.9668 N   0  0  0  0  0  0  0  0  0  0  0  0
   10.6702   -3.9051   22.4070 C   0  0  0  0  0  0  0  0  0  0  0  0
   11.0625   -3.0028   18.8894 C   0  0  0  0  0  0  0  0  0  0  0  0
    5.6180   -7.9194   16.1754 O   0  0  0  0  0  0  0  0  0  0  0  0
    9.7259   -5.3080   18.4485 C   0  0  0  0  0  0  0  0  0  0  0  0
    9.4578   -5.0200   16.3036 N   0  0  0  0  0  0  0  0  0  0  0  0
    5.0287   -8.9365   16.8223 C   0  0  0  0  0  0  0  0  0  0  0  0
    8.7742   -6.1498   16.6764 C   0  0  0  0  0  0  0  0  0  0  0  0
   10.9418   -3.4032   21.2053 O   0  0  0  0  0  0  0  0  0  0  0  0
    1.4797   -8.6258   16.2950 C   0  0  0  0  0  0  0  0  0  0  0  0
    9.2861   -1.2743   25.3585 C   0  0  0  0  0  0  0  0  0  0  0  0
    1.8892  -10.3985   17.7511 N   0  0  0  0  0  0  0  0  0  0  0  0
    9.6210   -0.6952   24.0976 C   0  0  0  0  0  0  0  0  0  0  0  0
    7.0792   -9.0217   17.1429 C   0  0  0  0  0  0  0  0  0  0  0  0
    3.1713  -10.1816   17.6634 C   0  0  0  0  0  0  0  0  0  0  0  0
    2.7878   -8.3822   16.2137 C   0  0  0  0  0  0  0  0  0  0  0  0
    9.4601   -2.6590   25.6528 C   0  0  0  0  0  0  0  0  0  0  0  0
   10.1182   -1.5672   23.1165 C   0  0  0  0  0  0  0  0  0  0  0  0
    1.0552   -9.6360   17.0650 C   0  0  0  0  0  0  0  0  0  0  0  0
    3.6519   -9.1783   16.9039 C   0  0  0  0  0  0  0  0  0  0  0  0
    7.8675   -7.0096   15.9415 C   0  0  0  0  0  0  0  0  0  0  0  0
    5.9733   -9.6553   17.3832 N   0  0  0  0  0  0  0  0  0  0  0  0
   10.2411   -2.9363   23.4301 C   0  0  0  0  0  0  0  0  0  0  0  0
   10.7288   -3.8197   19.9525 C   0  0  0  0  0  0  0  0  0  0  0  0
   10.1189   -5.0054   19.6987 C   0  0  0  0  0  0  0  0  0  0  0  0
  1  3  4  0
  1  7  4  0
  2 21  4  0
  2 27  4  0
  3  9  4  0
  3 10  4  0
  4  8  4  0
  4 18  4  0
  4 25  1  0
  5  9  4  0
  5 12  4  0
  6 13  1  0
  6 27  1  0
  7 28  4  0
  8 11  4  0
  9 29  4  0
 10 12  4  0
 11 24  1  0
 11 26  4  0
 12 25  1  0
 13 28  1  0
 14 20  4  0
 14 23  4  0
 15 17  4  0
 15 21  4  0
 16 19  4  0
 16 23  4  0
 17 22  4  0
 18 26  4  0
 19 24  4  0
 20 24  4  0
 22 27  4  0
 28 29  4  0
M  END
$$$$

 Created by Python create_sdf_string function

 29 33  0  0  0  0  0  0  0  0999 V2000
   10.7215   -3.3326   17.6437 C   0  0  0  0  0  0  0  0  0  0  0  0
    9.9489   -3.4675   24.6487 N   0  0  0  0  0  0  0  0  0  0  0  0
   10.0172   -4.4740   17.4101 C   0  0  0  0  0  0  0  0  0  0  0  0
    6.9051   -7.9575   16.4222 C   0  0  0  0  0  0  0  0  0  0  0  0
    8.9969   -6.3552   17.9668 N   0  0  0  0  0  0  0  0  0  0  0  0
   10.6702   -3.9051   22.4070 C   0  0  0  0  0  0  0  0  0  0  0  0
   11.0625   -3.0028   18.8894 C   0  0  0  0  0  0  0  0  0  0  0  0
    5.6180   -7.9194   16.1754 O   0  0  0  0  0  0  0  0  0  0  0  0
    9.7259   -5.3080   18.4485 C   0  0  0  0  0  0  0  0  0  0  0  0
    9.4578   -5.0200   16.3036 N   0  0  0  0  0  0  0  0  0  0  0  0
    5.0287   -8.9365   16.8223 C   0  0  0  0  0  0  0  0  0  0  0  0
    8.7742   -6.1498   16.6764 C   0  0  0  0  0  0  0  0  0  0  0  0
   10.9418   -3.4032   21.2053 O   0  0  0  0  0  0  0  0  0  0  0  0
    1.4797   -8.6258   16.2950 C   0  0  0  0  0  0  0  0  0  0  0  0
    9.2861   -1.2743   25.3585 C   0  0  0  0  0  0  0  0  0  0  0  0
    1.8892  -10.3985   17.7511 N   0  0  0  0  0  0  0  0  0  0  0  0
    9.6210   -0.6952   24.0976 C   0  0  0  0  0  0  0  0  0  0  0  0
    7.0792   -9.0217   17.1429 C   0  0  0  0  0  0  0  0  0  0  0  0
    3.1713  -10.1816   17.6634 C   0  0  0  0  0  0  0  0  0  0  0  0
    2.7878   -8.3822   16.2137 C   0  0  0  0  0  0  0  0  0  0  0  0
    9.4601   -2.6590   25.6528 C   0  0  0  0  0  0  0  0  0  0  0  0
   10.1182   -1.5672   23.1165 C   0  0  0  0  0  0  0  0  0  0  0  0
    1.0552   -9.6360   17.0650 C   0  0  0  0  0  0  0  0  0  0  0  0
    3.6519   -9.1783   16.9039 C   0  0  0  0  0  0  0  0  0  0  0  0
    7.8675   -7.0096   15.9415 C   0  0  0  0  0  0  0  0  0  0  0  0
    5.9733   -9.6553   17.3832 N   0  0  0  0  0  0  0  0  0  0  0  0
   10.2411   -2.9363   23.4301 C   0  0  0  0  0  0  0  0  0  0  0  0
   10.7288   -3.8197   19.9525 C   0  0  0  0  0  0  0  0  0  0  0  0
   10.1189   -5.0054   19.6987 C   0  0  0  0  0  0  0  0  0  0  0  0
  1  3  4  0
  1  7  4  0
  2 21  4  0
  2 27  4  0
  3  9  4  0
  3 10  4  0
  4  8  4  0
  4 18  4  0
  4 25  1  0
  5  9  4  0
  5 12  4  0
  6 13  1  0
  6 27  1  0
  7 28  4  0
  8 11  4  0
  9 29  4  0
 10 12  4  0
 11 24  1  0
 11 26  4  0
 12 25  1  0
 13 28  1  0
 14 20  4  0
 14 23  4  0
 15 17  4  0
 15 21  4  0
 16 19  4  0
 16 23  4  0
 17 22  4  0
 18 26  4  0
 19 24  4  0
 20 24  4  0
 22 27  4  0
 28 29  4  0
M  END
$$$$

 Created by Python create_sdf_string function

 29 33  0  0  0  0  0  0  0  0999 V2000
   10.7215   -3.3326   17.6437 C   0  0  0  0  0  0  0  0  0  0  0  0
    9.9489   -3.4675   24.6487 N   0  0  0  0  0  0  0  0  0  0  0  0
   10.0172   -4.4740   17.4101 C   0  0  0  0  0  0  0  0  0  0  0  0
    6.9051   -7.9575   16.4222 C   0  0  0  0  0  0  0  0  0  0  0  0
    8.9969   -6.3552   17.9668 N   0  0  0  0  0  0  0  0  0  0  0  0
   10.6702   -3.9051   22.4070 C   0  0  0  0  0  0  0  0  0  0  0  0
   11.0625   -3.0028   18.8894 C   0  0  0  0  0  0  0  0  0  0  0  0
    5.6180   -7.9194   16.1754 O   0  0  0  0  0  0  0  0  0  0  0  0
    9.7259   -5.3080   18.4485 C   0  0  0  0  0  0  0  0  0  0  0  0
    9.4578   -5.0200   16.3036 N   0  0  0  0  0  0  0  0  0  0  0  0
    5.0287   -8.9365   16.8223 C   0  0  0  0  0  0  0  0  0  0  0  0
    8.7742   -6.1498   16.6764 C   0  0  0  0  0  0  0  0  0  0  0  0
   10.9418   -3.4032   21.2053 O   0  0  0  0  0  0  0  0  0  0  0  0
    1.4797   -8.6258   16.2950 C   0  0  0  0  0  0  0  0  0  0  0  0
    9.2861   -1.2743   25.3585 C   0  0  0  0  0  0  0  0  0  0  0  0
    1.8892  -10.3985   17.7511 N   0  0  0  0  0  0  0  0  0  0  0  0
    9.6210   -0.6952   24.0976 C   0  0  0  0  0  0  0  0  0  0  0  0
    7.0792   -9.0217   17.1429 C   0  0  0  0  0  0  0  0  0  0  0  0
    3.1713  -10.1816   17.6634 C   0  0  0  0  0  0  0  0  0  0  0  0
    2.7878   -8.3822   16.2137 C   0  0  0  0  0  0  0  0  0  0  0  0
    9.4601   -2.6590   25.6528 C   0  0  0  0  0  0  0  0  0  0  0  0
   10.1182   -1.5672   23.1165 C   0  0  0  0  0  0  0  0  0  0  0  0
    1.0552   -9.6360   17.0650 C   0  0  0  0  0  0  0  0  0  0  0  0
    3.6519   -9.1783   16.9039 C   0  0  0  0  0  0  0  0  0  0  0  0
    7.8675   -7.0096   15.9415 C   0  0  0  0  0  0  0  0  0  0  0  0
    5.9733   -9.6553   17.3832 N   0  0  0  0  0  0  0  0  0  0  0  0
   10.2411   -2.9363   23.4301 C   0  0  0  0  0  0  0  0  0  0  0  0
   10.7288   -3.8197   19.9525 C   0  0  0  0  0  0  0  0  0  0  0  0
   10.1189   -5.0054   19.6987 C   0  0  0  0  0  0  0  0  0  0  0  0
  1  3  4  0
  1  7  4  0
  2 21  4  0
  2 27  4  0
  3  9  4  0
  3 10  4  0
  4  8  4  0
  4 18  4  0
  4 25  1  0
  5  9  4  0
  5 12  4  0
  6 13  1  0
  6 27  1  0
  7 28  4  0
  8 11  4  0
  9 29  4  0
 10 12  4  0
 11 24  1  0
 11 26  4  0
 12 25  1  0
 13 28  1  0
 14 20  4  0
 14 23  4  0
 15 17  4  0
 15 21  4  0
 16 19  4  0
 16 23  4  0
 17 22  4  0
 18 26  4  0
 19 24  4  0
 20 24  4  0
 22 27  4  0
 28 29  4  0
M  END
$$$$

 Created by Python create_sdf_string function

 29 33  0  0  0  0  0  0  0  0999 V2000
   10.7215   -3.3326   17.6437 C   0  0  0  0  0  0  0  0  0  0  0  0
    9.9489   -3.4675   24.6487 N   0  0  0  0  0  0  0  0  0  0  0  0
   10.0172   -4.4740   17.4101 C   0  0  0  0  0  0  0  0  0  0  0  0
    6.9051   -7.9575   16.4222 C   0  0  0  0  0  0  0  0  0  0  0  0
    8.9969   -6.3552   17.9668 N   0  0  0  0  0  0  0  0  0  0  0  0
   10.6702   -3.9051   22.4070 C   0  0  0  0  0  0  0  0  0  0  0  0
   11.0625   -3.0028   18.8894 C   0  0  0  0  0  0  0  0  0  0  0  0
    5.6180   -7.9194   16.1754 O   0  0  0  0  0  0  0  0  0  0  0  0
    9.7259   -5.3080   18.4485 C   0  0  0  0  0  0  0  0  0  0  0  0
    9.4578   -5.0200   16.3036 N   0  0  0  0  0  0  0  0  0  0  0  0
    5.0287   -8.9365   16.8223 C   0  0  0  0  0  0  0  0  0  0  0  0
    8.7742   -6.1498   16.6764 C   0  0  0  0  0  0  0  0  0  0  0  0
   10.9418   -3.4032   21.2053 O   0  0  0  0  0  0  0  0  0  0  0  0
    1.4797   -8.6258   16.2950 C   0  0  0  0  0  0  0  0  0  0  0  0
    9.2861   -1.2743   25.3585 C   0  0  0  0  0  0  0  0  0  0  0  0
    1.8892  -10.3985   17.7511 N   0  0  0  0  0  0  0  0  0  0  0  0
    9.6210   -0.6952   24.0976 C   0  0  0  0  0  0  0  0  0  0  0  0
    7.0792   -9.0217   17.1429 C   0  0  0  0  0  0  0  0  0  0  0  0
    3.1713  -10.1816   17.6634 C   0  0  0  0  0  0  0  0  0  0  0  0
    2.7878   -8.3822   16.2137 C   0  0  0  0  0  0  0  0  0  0  0  0
    9.4601   -2.6590   25.6528 C   0  0  0  0  0  0  0  0  0  0  0  0
   10.1182   -1.5672   23.1165 C   0  0  0  0  0  0  0  0  0  0  0  0
    1.0552   -9.6360   17.0650 C   0  0  0  0  0  0  0  0  0  0  0  0
    3.6519   -9.1783   16.9039 C   0  0  0  0  0  0  0  0  0  0  0  0
    7.8675   -7.0096   15.9415 C   0  0  0  0  0  0  0  0  0  0  0  0
    5.9733   -9.6553   17.3832 N   0  0  0  0  0  0  0  0  0  0  0  0
   10.2411   -2.9363   23.4301 C   0  0  0  0  0  0  0  0  0  0  0  0
   10.7288   -3.8197   19.9525 C   0  0  0  0  0  0  0  0  0  0  0  0
   10.1189   -5.0054   19.6987 C   0  0  0  0  0  0  0  0  0  0  0  0
  1  3  4  0
  1  7  4  0
  2 21  4  0
  2 27  4  0
  3  9  4  0
  3 10  4  0
  4  8  4  0
  4 18  4  0
  4 25  1  0
  5  9  4  0
  5 12  4  0
  6 13  1  0
  6 27  1  0
  7 28  4  0
  8 11  4  0
  9 29  4  0
 10 12  4  0
 11 24  1  0
 11 26  4  0
 12 25  1  0
 13 28  1  0
 14 20  4  0
 14 23  4  0
 15 17  4  0
 15 21  4  0
 16 19  4  0
 16 23  4  0
 17 22  4  0
 18 26  4  0
 19 24  4  0
 20 24  4  0
 22 27  4  0
 28 29  4  0
M  END
$$$$

 Created by Python create_sdf_string function

 29 33  0  0  0  0  0  0  0  0999 V2000
   10.7215   -3.3326   17.6437 C   0  0  0  0  0  0  0  0  0  0  0  0
    9.9489   -3.4675   24.6487 N   0  0  0  0  0  0  0  0  0  0  0  0
   10.0172   -4.4740   17.4101 C   0  0  0  0  0  0  0  0  0  0  0  0
    6.9051   -7.9575   16.4222 C   0  0  0  0  0  0  0  0  0  0  0  0
    8.9969   -6.3552   17.9668 N   0  0  0  0  0  0  0  0  0  0  0  0
   10.6702   -3.9051   22.4070 C   0  0  0  0  0  0  0  0  0  0  0  0
   11.0625   -3.0028   18.8894 C   0  0  0  0  0  0  0  0  0  0  0  0
    5.6180   -7.9194   16.1754 O   0  0  0  0  0  0  0  0  0  0  0  0
    9.7259   -5.3080   18.4485 C   0  0  0  0  0  0  0  0  0  0  0  0
    9.4578   -5.0200   16.3036 N   0  0  0  0  0  0  0  0  0  0  0  0
    5.0287   -8.9365   16.8223 C   0  0  0  0  0  0  0  0  0  0  0  0
    8.7742   -6.1498   16.6764 C   0  0  0  0  0  0  0  0  0  0  0  0
   10.9418   -3.4032   21.2053 O   0  0  0  0  0  0  0  0  0  0  0  0
    1.4797   -8.6258   16.2950 C   0  0  0  0  0  0  0  0  0  0  0  0
    9.2861   -1.2743   25.3585 C   0  0  0  0  0  0  0  0  0  0  0  0
    1.8892  -10.3985   17.7511 N   0  0  0  0  0  0  0  0  0  0  0  0
    9.6210   -0.6952   24.0976 C   0  0  0  0  0  0  0  0  0  0  0  0
    7.0792   -9.0217   17.1429 C   0  0  0  0  0  0  0  0  0  0  0  0
    3.1713  -10.1816   17.6634 C   0  0  0  0  0  0  0  0  0  0  0  0
    2.7878   -8.3822   16.2137 C   0  0  0  0  0  0  0  0  0  0  0  0
    9.4601   -2.6590   25.6528 C   0  0  0  0  0  0  0  0  0  0  0  0
   10.1182   -1.5672   23.1165 C   0  0  0  0  0  0  0  0  0  0  0  0
    1.0552   -9.6360   17.0650 C   0  0  0  0  0  0  0  0  0  0  0  0
    3.6519   -9.1783   16.9039 C   0  0  0  0  0  0  0  0  0  0  0  0
    7.8675   -7.0096   15.9415 C   0  0  0  0  0  0  0  0  0  0  0  0
    5.9733   -9.6553   17.3832 N   0  0  0  0  0  0  0  0  0  0  0  0
   10.2411   -2.9363   23.4301 C   0  0  0  0  0  0  0  0  0  0  0  0
   10.7288   -3.8197   19.9525 C   0  0  0  0  0  0  0  0  0  0  0  0
   10.1189   -5.0054   19.6987 C   0  0  0  0  0  0  0  0  0  0  0  0
  1  3  4  0
  1  7  4  0
  2 21  4  0
  2 27  4  0
  3  9  4  0
  3 10  4  0
  4  8  4  0
  4 18  4  0
  4 25  1  0
  5  9  4  0
  5 12  4  0
  6 13  1  0
  6 27  1  0
  7 28  4  0
  8 11  4  0
  9 29  4  0
 10 12  4  0
 11 24  1  0
 11 26  4  0
 12 25  1  0
 13 28  1  0
 14 20  4  0
 14 23  4  0
 15 17  4  0
 15 21  4  0
 16 19  4  0
 16 23  4  0
 17 22  4  0
 18 26  4  0
 19 24  4  0
 20 24  4  0
 22 27  4  0
 28 29  4  0
M  END
$$$$

 Created by Python create_sdf_string function

 29 33  0  0  0  0  0  0  0  0999 V2000
   10.7215   -3.3326   17.6437 C   0  0  0  0  0  0  0  0  0  0  0  0
    9.9489   -3.4675   24.6487 N   0  0  0  0  0  0  0  0  0  0  0  0
   10.0172   -4.4740   17.4101 C   0  0  0  0  0  0  0  0  0  0  0  0
    6.9051   -7.9575   16.4222 C   0  0  0  0  0  0  0  0  0  0  0  0
    8.9969   -6.3552   17.9668 N   0  0  0  0  0  0  0  0  0  0  0  0
   10.6702   -3.9051   22.4070 C   0  0  0  0  0  0  0  0  0  0  0  0
   11.0625   -3.0028   18.8894 C   0  0  0  0  0  0  0  0  0  0  0  0
    5.6180   -7.9194   16.1754 O   0  0  0  0  0  0  0  0  0  0  0  0
    9.7259   -5.3080   18.4485 C   0  0  0  0  0  0  0  0  0  0  0  0
    9.4578   -5.0200   16.3036 N   0  0  0  0  0  0  0  0  0  0  0  0
    5.0287   -8.9365   16.8223 C   0  0  0  0  0  0  0  0  0  0  0  0
    8.7742   -6.1498   16.6764 C   0  0  0  0  0  0  0  0  0  0  0  0
   10.9418   -3.4032   21.2053 O   0  0  0  0  0  0  0  0  0  0  0  0
    1.4797   -8.6258   16.2950 C   0  0  0  0  0  0  0  0  0  0  0  0
    9.2861   -1.2743   25.3585 C   0  0  0  0  0  0  0  0  0  0  0  0
    1.8892  -10.3985   17.7511 N   0  0  0  0  0  0  0  0  0  0  0  0
    9.6210   -0.6952   24.0976 C   0  0  0  0  0  0  0  0  0  0  0  0
    7.0792   -9.0217   17.1429 C   0  0  0  0  0  0  0  0  0  0  0  0
    3.1713  -10.1816   17.6634 C   0  0  0  0  0  0  0  0  0  0  0  0
    2.7878   -8.3822   16.2137 C   0  0  0  0  0  0  0  0  0  0  0  0
    9.4601   -2.6590   25.6528 C   0  0  0  0  0  0  0  0  0  0  0  0
   10.1182   -1.5672   23.1165 C   0  0  0  0  0  0  0  0  0  0  0  0
    1.0552   -9.6360   17.0650 C   0  0  0  0  0  0  0  0  0  0  0  0
    3.6519   -9.1783   16.9039 C   0  0  0  0  0  0  0  0  0  0  0  0
    7.8675   -7.0096   15.9415 C   0  0  0  0  0  0  0  0  0  0  0  0
    5.9733   -9.6553   17.3832 N   0  0  0  0  0  0  0  0  0  0  0  0
   10.2411   -2.9363   23.4301 C   0  0  0  0  0  0  0  0  0  0  0  0
   10.7288   -3.8197   19.9525 C   0  0  0  0  0  0  0  0  0  0  0  0
   10.1189   -5.0054   19.6987 C   0  0  0  0  0  0  0  0  0  0  0  0
  1  3  4  0
  1  7  4  0
  2 21  4  0
  2 27  4  0
  3  9  4  0
  3 10  4  0
  4  8  4  0
  4 18  4  0
  4 25  1  0
  5  9  4  0
  5 12  4  0
  6 13  1  0
  6 27  1  0
  7 28  4  0
  8 11  4  0
  9 29  4  0
 10 12  4  0
 11 24  1  0
 11 26  4  0
 12 25  1  0
 13 28  1  0
 14 20  4  0
 14 23  4  0
 15 17  4  0
 15 21  4  0
 16 19  4  0
 16 23  4  0
 17 22  4  0
 18 26  4  0
 19 24  4  0
 20 24  4  0
 22 27  4  0
 28 29  4  0
M  END
$$$$

 Created by Python create_sdf_string function

 29 33  0  0  0  0  0  0  0  0999 V2000
   10.7215   -3.3326   17.6437 C   0  0  0  0  0  0  0  0  0  0  0  0
    9.9489   -3.4675   24.6487 N   0  0  0  0  0  0  0  0  0  0  0  0
   10.0172   -4.4740   17.4101 C   0  0  0  0  0  0  0  0  0  0  0  0
    6.9051   -7.9575   16.4222 C   0  0  0  0  0  0  0  0  0  0  0  0
    8.9969   -6.3552   17.9668 N   0  0  0  0  0  0  0  0  0  0  0  0
   10.6702   -3.9051   22.4070 C   0  0  0  0  0  0  0  0  0  0  0  0
   11.0625   -3.0028   18.8894 C   0  0  0  0  0  0  0  0  0  0  0  0
    5.6180   -7.9194   16.1754 O   0  0  0  0  0  0  0  0  0  0  0  0
    9.7259   -5.3080   18.4485 C   0  0  0  0  0  0  0  0  0  0  0  0
    9.4578   -5.0200   16.3036 N   0  0  0  0  0  0  0  0  0  0  0  0
    5.0287   -8.9365   16.8223 C   0  0  0  0  0  0  0  0  0  0  0  0
    8.7742   -6.1498   16.6764 C   0  0  0  0  0  0  0  0  0  0  0  0
   10.9418   -3.4032   21.2053 O   0  0  0  0  0  0  0  0  0  0  0  0
    1.4797   -8.6258   16.2950 C   0  0  0  0  0  0  0  0  0  0  0  0
    9.2861   -1.2743   25.3585 C   0  0  0  0  0  0  0  0  0  0  0  0
    1.8892  -10.3985   17.7511 N   0  0  0  0  0  0  0  0  0  0  0  0
    9.6210   -0.6952   24.0976 C   0  0  0  0  0  0  0  0  0  0  0  0
    7.0792   -9.0217   17.1429 C   0  0  0  0  0  0  0  0  0  0  0  0
    3.1713  -10.1816   17.6634 C   0  0  0  0  0  0  0  0  0  0  0  0
    2.7878   -8.3822   16.2137 C   0  0  0  0  0  0  0  0  0  0  0  0
    9.4601   -2.6590   25.6528 C   0  0  0  0  0  0  0  0  0  0  0  0
   10.1182   -1.5672   23.1165 C   0  0  0  0  0  0  0  0  0  0  0  0
    1.0552   -9.6360   17.0650 C   0  0  0  0  0  0  0  0  0  0  0  0
    3.6519   -9.1783   16.9039 C   0  0  0  0  0  0  0  0  0  0  0  0
    7.8675   -7.0096   15.9415 C   0  0  0  0  0  0  0  0  0  0  0  0
    5.9733   -9.6553   17.3832 N   0  0  0  0  0  0  0  0  0  0  0  0
   10.2411   -2.9363   23.4301 C   0  0  0  0  0  0  0  0  0  0  0  0
   10.7288   -3.8197   19.9525 C   0  0  0  0  0  0  0  0  0  0  0  0
   10.1189   -5.0054   19.6987 C   0  0  0  0  0  0  0  0  0  0  0  0
  1  3  4  0
  1  7  4  0
  2 21  4  0
  2 27  4  0
  3  9  4  0
  3 10  4  0
  4  8  4  0
  4 18  4  0
  4 25  1  0
  5  9  4  0
  5 12  4  0
  6 13  1  0
  6 27  1  0
  7 28  4  0
  8 11  4  0
  9 29  4  0
 10 12  4  0
 11 24  1  0
 11 26  4  0
 12 25  1  0
 13 28  1  0
 14 20  4  0
 14 23  4  0
 15 17  4  0
 15 21  4  0
 16 19  4  0
 16 23  4  0
 17 22  4  0
 18 26  4  0
 19 24  4  0
 20 24  4  0
 22 27  4  0
 28 29  4  0
M  END
$$$$

 Created by Python create_sdf_string function

 29 33  0  0  0  0  0  0  0  0999 V2000
   10.7215   -3.3326   17.6437 C   0  0  0  0  0  0  0  0  0  0  0  0
    9.9489   -3.4675   24.6487 N   0  0  0  0  0  0  0  0  0  0  0  0
   10.0172   -4.4740   17.4101 C   0  0  0  0  0  0  0  0  0  0  0  0
    6.9051   -7.9575   16.4222 C   0  0  0  0  0  0  0  0  0  0  0  0
    8.9969   -6.3552   17.9668 N   0  0  0  0  0  0  0  0  0  0  0  0
   10.6702   -3.9051   22.4070 C   0  0  0  0  0  0  0  0  0  0  0  0
   11.0625   -3.0028   18.8894 C   0  0  0  0  0  0  0  0  0  0  0  0
    5.6180   -7.9194   16.1754 O   0  0  0  0  0  0  0  0  0  0  0  0
    9.7259   -5.3080   18.4485 C   0  0  0  0  0  0  0  0  0  0  0  0
    9.4578   -5.0200   16.3036 N   0  0  0  0  0  0  0  0  0  0  0  0
    5.0287   -8.9365   16.8223 C   0  0  0  0  0  0  0  0  0  0  0  0
    8.7742   -6.1498   16.6764 C   0  0  0  0  0  0  0  0  0  0  0  0
   10.9418   -3.4032   21.2053 O   0  0  0  0  0  0  0  0  0  0  0  0
    1.4797   -8.6258   16.2950 C   0  0  0  0  0  0  0  0  0  0  0  0
    9.2861   -1.2743   25.3585 C   0  0  0  0  0  0  0  0  0  0  0  0
    1.8892  -10.3985   17.7511 N   0  0  0  0  0  0  0  0  0  0  0  0
    9.6210   -0.6952   24.0976 C   0  0  0  0  0  0  0  0  0  0  0  0
    7.0792   -9.0217   17.1429 C   0  0  0  0  0  0  0  0  0  0  0  0
    3.1713  -10.1816   17.6634 C   0  0  0  0  0  0  0  0  0  0  0  0
    2.7878   -8.3822   16.2137 C   0  0  0  0  0  0  0  0  0  0  0  0
    9.4601   -2.6590   25.6528 C   0  0  0  0  0  0  0  0  0  0  0  0
   10.1182   -1.5672   23.1165 C   0  0  0  0  0  0  0  0  0  0  0  0
    1.0552   -9.6360   17.0650 C   0  0  0  0  0  0  0  0  0  0  0  0
    3.6519   -9.1783   16.9039 C   0  0  0  0  0  0  0  0  0  0  0  0
    7.8675   -7.0096   15.9415 C   0  0  0  0  0  0  0  0  0  0  0  0
    5.9733   -9.6553   17.3832 N   0  0  0  0  0  0  0  0  0  0  0  0
   10.2411   -2.9363   23.4301 C   0  0  0  0  0  0  0  0  0  0  0  0
   10.7288   -3.8197   19.9525 C   0  0  0  0  0  0  0  0  0  0  0  0
   10.1189   -5.0054   19.6987 C   0  0  0  0  0  0  0  0  0  0  0  0
  1  3  4  0
  1  7  4  0
  2 21  4  0
  2 27  4  0
  3  9  4  0
  3 10  4  0
  4  8  4  0
  4 18  4  0
  4 25  1  0
  5  9  4  0
  5 12  4  0
  6 13  1  0
  6 27  1  0
  7 28  4  0
  8 11  4  0
  9 29  4  0
 10 12  4  0
 11 24  1  0
 11 26  4  0
 12 25  1  0
 13 28  1  0
 14 20  4  0
 14 23  4  0
 15 17  4  0
 15 21  4  0
 16 19  4  0
 16 23  4  0
 17 22  4  0
 18 26  4  0
 19 24  4  0
 20 24  4  0
 22 27  4  0
 28 29  4  0
M  END
$$$$

 Created by Python create_sdf_string function

 29 33  0  0  0  0  0  0  0  0999 V2000
   10.7215   -3.3326   17.6437 C   0  0  0  0  0  0  0  0  0  0  0  0
    9.9489   -3.4675   24.6487 N   0  0  0  0  0  0  0  0  0  0  0  0
   10.0172   -4.4740   17.4101 C   0  0  0  0  0  0  0  0  0  0  0  0
    6.9051   -7.9575   16.4222 C   0  0  0  0  0  0  0  0  0  0  0  0
    8.9969   -6.3552   17.9668 N   0  0  0  0  0  0  0  0  0  0  0  0
   10.6702   -3.9051   22.4070 C   0  0  0  0  0  0  0  0  0  0  0  0
   11.0625   -3.0028   18.8894 C   0  0  0  0  0  0  0  0  0  0  0  0
    5.6180   -7.9194   16.1754 O   0  0  0  0  0  0  0  0  0  0  0  0
    9.7259   -5.3080   18.4485 C   0  0  0  0  0  0  0  0  0  0  0  0
    9.4578   -5.0200   16.3036 N   0  0  0  0  0  0  0  0  0  0  0  0
    5.0287   -8.9365   16.8223 C   0  0  0  0  0  0  0  0  0  0  0  0
    8.7742   -6.1498   16.6764 C   0  0  0  0  0  0  0  0  0  0  0  0
   10.9418   -3.4032   21.2053 O   0  0  0  0  0  0  0  0  0  0  0  0
    1.4797   -8.6258   16.2950 C   0  0  0  0  0  0  0  0  0  0  0  0
    9.2861   -1.2743   25.3585 C   0  0  0  0  0  0  0  0  0  0  0  0
    1.8892  -10.3985   17.7511 N   0  0  0  0  0  0  0  0  0  0  0  0
    9.6210   -0.6952   24.0976 C   0  0  0  0  0  0  0  0  0  0  0  0
    7.0792   -9.0217   17.1429 C   0  0  0  0  0  0  0  0  0  0  0  0
    3.1713  -10.1816   17.6634 C   0  0  0  0  0  0  0  0  0  0  0  0
    2.7878   -8.3822   16.2137 C   0  0  0  0  0  0  0  0  0  0  0  0
    9.4601   -2.6590   25.6528 C   0  0  0  0  0  0  0  0  0  0  0  0
   10.1182   -1.5672   23.1165 C   0  0  0  0  0  0  0  0  0  0  0  0
    1.0552   -9.6360   17.0650 C   0  0  0  0  0  0  0  0  0  0  0  0
    3.6519   -9.1783   16.9039 C   0  0  0  0  0  0  0  0  0  0  0  0
    7.8675   -7.0096   15.9415 C   0  0  0  0  0  0  0  0  0  0  0  0
    5.9733   -9.6553   17.3832 N   0  0  0  0  0  0  0  0  0  0  0  0
   10.2411   -2.9363   23.4301 C   0  0  0  0  0  0  0  0  0  0  0  0
   10.7288   -3.8197   19.9525 C   0  0  0  0  0  0  0  0  0  0  0  0
   10.1189   -5.0054   19.6987 C   0  0  0  0  0  0  0  0  0  0  0  0
  1  3  4  0
  1  7  4  0
  2 21  4  0
  2 27  4  0
  3  9  4  0
  3 10  4  0
  4  8  4  0
  4 18  4  0
  4 25  1  0
  5  9  4  0
  5 12  4  0
  6 13  1  0
  6 27  1  0
  7 28  4  0
  8 11  4  0
  9 29  4  0
 10 12  4  0
 11 24  1  0
 11 26  4  0
 12 25  1  0
 13 28  1  0
 14 20  4  0
 14 23  4  0
 15 17  4  0
 15 21  4  0
 16 19  4  0
 16 23  4  0
 17 22  4  0
 18 26  4  0
 19 24  4  0
 20 24  4  0
 22 27  4  0
 28 29  4  0
M  END
$$$$

 Created by Python create_sdf_string function

 29 33  0  0  0  0  0  0  0  0999 V2000
   10.7215   -3.3326   17.6437 C   0  0  0  0  0  0  0  0  0  0  0  0
    9.9489   -3.4675   24.6487 N   0  0  0  0  0  0  0  0  0  0  0  0
   10.0172   -4.4740   17.4101 C   0  0  0  0  0  0  0  0  0  0  0  0
    6.9051   -7.9575   16.4222 C   0  0  0  0  0  0  0  0  0  0  0  0
    8.9969   -6.3552   17.9668 N   0  0  0  0  0  0  0  0  0  0  0  0
   10.6702   -3.9051   22.4070 C   0  0  0  0  0  0  0  0  0  0  0  0
   11.0625   -3.0028   18.8894 C   0  0  0  0  0  0  0  0  0  0  0  0
    5.6180   -7.9194   16.1754 O   0  0  0  0  0  0  0  0  0  0  0  0
    9.7259   -5.3080   18.4485 C   0  0  0  0  0  0  0  0  0  0  0  0
    9.4578   -5.0200   16.3036 N   0  0  0  0  0  0  0  0  0  0  0  0
    5.0287   -8.9365   16.8223 C   0  0  0  0  0  0  0  0  0  0  0  0
    8.7742   -6.1498   16.6764 C   0  0  0  0  0  0  0  0  0  0  0  0
   10.9418   -3.4032   21.2053 O   0  0  0  0  0  0  0  0  0  0  0  0
    1.4797   -8.6258   16.2950 C   0  0  0  0  0  0  0  0  0  0  0  0
    9.2861   -1.2743   25.3585 C   0  0  0  0  0  0  0  0  0  0  0  0
    1.8892  -10.3985   17.7511 N   0  0  0  0  0  0  0  0  0  0  0  0
    9.6210   -0.6952   24.0976 C   0  0  0  0  0  0  0  0  0  0  0  0
    7.0792   -9.0217   17.1429 C   0  0  0  0  0  0  0  0  0  0  0  0
    3.1713  -10.1816   17.6634 C   0  0  0  0  0  0  0  0  0  0  0  0
    2.7878   -8.3822   16.2137 C   0  0  0  0  0  0  0  0  0  0  0  0
    9.4601   -2.6590   25.6528 C   0  0  0  0  0  0  0  0  0  0  0  0
   10.1182   -1.5672   23.1165 C   0  0  0  0  0  0  0  0  0  0  0  0
    1.0552   -9.6360   17.0650 C   0  0  0  0  0  0  0  0  0  0  0  0
    3.6519   -9.1783   16.9039 C   0  0  0  0  0  0  0  0  0  0  0  0
    7.8675   -7.0096   15.9415 C   0  0  0  0  0  0  0  0  0  0  0  0
    5.9733   -9.6553   17.3832 N   0  0  0  0  0  0  0  0  0  0  0  0
   10.2411   -2.9363   23.4301 C   0  0  0  0  0  0  0  0  0  0  0  0
   10.7288   -3.8197   19.9525 C   0  0  0  0  0  0  0  0  0  0  0  0
   10.1189   -5.0054   19.6987 C   0  0  0  0  0  0  0  0  0  0  0  0
  1  3  4  0
  1  7  4  0
  2 21  4  0
  2 27  4  0
  3  9  4  0
  3 10  4  0
  4  8  4  0
  4 18  4  0
  4 25  1  0
  5  9  4  0
  5 12  4  0
  6 13  1  0
  6 27  1  0
  7 28  4  0
  8 11  4  0
  9 29  4  0
 10 12  4  0
 11 24  1  0
 11 26  4  0
 12 25  1  0
 13 28  1  0
 14 20  4  0
 14 23  4  0
 15 17  4  0
 15 21  4  0
 16 19  4  0
 16 23  4  0
 17 22  4  0
 18 26  4  0
 19 24  4  0
 20 24  4  0
 22 27  4  0
 28 29  4  0
M  END
$$$$

 Created by Python create_sdf_string function

 29 33  0  0  0  0  0  0  0  0999 V2000
   10.7215   -3.3326   17.6437 C   0  0  0  0  0  0  0  0  0  0  0  0
    9.9489   -3.4675   24.6487 N   0  0  0  0  0  0  0  0  0  0  0  0
   10.0172   -4.4740   17.4101 C   0  0  0  0  0  0  0  0  0  0  0  0
    6.9051   -7.9575   16.4222 C   0  0  0  0  0  0  0  0  0  0  0  0
    8.9969   -6.3552   17.9668 N   0  0  0  0  0  0  0  0  0  0  0  0
   10.6702   -3.9051   22.4070 C   0  0  0  0  0  0  0  0  0  0  0  0
   11.0625   -3.0028   18.8894 C   0  0  0  0  0  0  0  0  0  0  0  0
    5.6180   -7.9194   16.1754 O   0  0  0  0  0  0  0  0  0  0  0  0
    9.7259   -5.3080   18.4485 C   0  0  0  0  0  0  0  0  0  0  0  0
    9.4578   -5.0200   16.3036 N   0  0  0  0  0  0  0  0  0  0  0  0
    5.0287   -8.9365   16.8223 C   0  0  0  0  0  0  0  0  0  0  0  0
    8.7742   -6.1498   16.6764 C   0  0  0  0  0  0  0  0  0  0  0  0
   10.9418   -3.4032   21.2053 O   0  0  0  0  0  0  0  0  0  0  0  0
    1.4797   -8.6258   16.2950 C   0  0  0  0  0  0  0  0  0  0  0  0
    9.2861   -1.2743   25.3585 C   0  0  0  0  0  0  0  0  0  0  0  0
    1.8892  -10.3985   17.7511 N   0  0  0  0  0  0  0  0  0  0  0  0
    9.6210   -0.6952   24.0976 C   0  0  0  0  0  0  0  0  0  0  0  0
    7.0792   -9.0217   17.1429 C   0  0  0  0  0  0  0  0  0  0  0  0
    3.1713  -10.1816   17.6634 C   0  0  0  0  0  0  0  0  0  0  0  0
    2.7878   -8.3822   16.2137 C   0  0  0  0  0  0  0  0  0  0  0  0
    9.4601   -2.6590   25.6528 C   0  0  0  0  0  0  0  0  0  0  0  0
   10.1182   -1.5672   23.1165 C   0  0  0  0  0  0  0  0  0  0  0  0
    1.0552   -9.6360   17.0650 C   0  0  0  0  0  0  0  0  0  0  0  0
    3.6519   -9.1783   16.9039 C   0  0  0  0  0  0  0  0  0  0  0  0
    7.8675   -7.0096   15.9415 C   0  0  0  0  0  0  0  0  0  0  0  0
    5.9733   -9.6553   17.3832 N   0  0  0  0  0  0  0  0  0  0  0  0
   10.2411   -2.9363   23.4301 C   0  0  0  0  0  0  0  0  0  0  0  0
   10.7288   -3.8197   19.9525 C   0  0  0  0  0  0  0  0  0  0  0  0
   10.1189   -5.0054   19.6987 C   0  0  0  0  0  0  0  0  0  0  0  0
  1  3  4  0
  1  7  4  0
  2 21  4  0
  2 27  4  0
  3  9  4  0
  3 10  4  0
  4  8  4  0
  4 18  4  0
  4 25  1  0
  5  9  4  0
  5 12  4  0
  6 13  1  0
  6 27  1  0
  7 28  4  0
  8 11  4  0
  9 29  4  0
 10 12  4  0
 11 24  1  0
 11 26  4  0
 12 25  1  0
 13 28  1  0
 14 20  4  0
 14 23  4  0
 15 17  4  0
 15 21  4  0
 16 19  4  0
 16 23  4  0
 17 22  4  0
 18 26  4  0
 19 24  4  0
 20 24  4  0
 22 27  4  0
 28 29  4  0
M  END
$$$$

 Created by Python create_sdf_string function

 29 33  0  0  0  0  0  0  0  0999 V2000
   10.7215   -3.3326   17.6437 C   0  0  0  0  0  0  0  0  0  0  0  0
    9.9489   -3.4675   24.6487 N   0  0  0  0  0  0  0  0  0  0  0  0
   10.0172   -4.4740   17.4101 C   0  0  0  0  0  0  0  0  0  0  0  0
    6.9051   -7.9575   16.4222 C   0  0  0  0  0  0  0  0  0  0  0  0
    8.9969   -6.3552   17.9668 N   0  0  0  0  0  0  0  0  0  0  0  0
   10.6702   -3.9051   22.4070 C   0  0  0  0  0  0  0  0  0  0  0  0
   11.0625   -3.0028   18.8894 C   0  0  0  0  0  0  0  0  0  0  0  0
    5.6180   -7.9194   16.1754 O   0  0  0  0  0  0  0  0  0  0  0  0
    9.7259   -5.3080   18.4485 C   0  0  0  0  0  0  0  0  0  0  0  0
    9.4578   -5.0200   16.3036 N   0  0  0  0  0  0  0  0  0  0  0  0
    5.0287   -8.9365   16.8223 C   0  0  0  0  0  0  0  0  0  0  0  0
    8.7742   -6.1498   16.6764 C   0  0  0  0  0  0  0  0  0  0  0  0
   10.9418   -3.4032   21.2053 O   0  0  0  0  0  0  0  0  0  0  0  0
    1.4797   -8.6258   16.2950 C   0  0  0  0  0  0  0  0  0  0  0  0
    9.2861   -1.2743   25.3585 C   0  0  0  0  0  0  0  0  0  0  0  0
    1.8892  -10.3985   17.7511 N   0  0  0  0  0  0  0  0  0  0  0  0
    9.6210   -0.6952   24.0976 C   0  0  0  0  0  0  0  0  0  0  0  0
    7.0792   -9.0217   17.1429 C   0  0  0  0  0  0  0  0  0  0  0  0
    3.1713  -10.1816   17.6634 C   0  0  0  0  0  0  0  0  0  0  0  0
    2.7878   -8.3822   16.2137 C   0  0  0  0  0  0  0  0  0  0  0  0
    9.4601   -2.6590   25.6528 C   0  0  0  0  0  0  0  0  0  0  0  0
   10.1182   -1.5672   23.1165 C   0  0  0  0  0  0  0  0  0  0  0  0
    1.0552   -9.6360   17.0650 C   0  0  0  0  0  0  0  0  0  0  0  0
    3.6519   -9.1783   16.9039 C   0  0  0  0  0  0  0  0  0  0  0  0
    7.8675   -7.0096   15.9415 C   0  0  0  0  0  0  0  0  0  0  0  0
    5.9733   -9.6553   17.3832 N   0  0  0  0  0  0  0  0  0  0  0  0
   10.2411   -2.9363   23.4301 C   0  0  0  0  0  0  0  0  0  0  0  0
   10.7288   -3.8197   19.9525 C   0  0  0  0  0  0  0  0  0  0  0  0
   10.1189   -5.0054   19.6987 C   0  0  0  0  0  0  0  0  0  0  0  0
  1  3  4  0
  1  7  4  0
  2 21  4  0
  2 27  4  0
  3  9  4  0
  3 10  4  0
  4  8  4  0
  4 18  4  0
  4 25  1  0
  5  9  4  0
  5 12  4  0
  6 13  1  0
  6 27  1  0
  7 28  4  0
  8 11  4  0
  9 29  4  0
 10 12  4  0
 11 24  1  0
 11 26  4  0
 12 25  1  0
 13 28  1  0
 14 20  4  0
 14 23  4  0
 15 17  4  0
 15 21  4  0
 16 19  4  0
 16 23  4  0
 17 22  4  0
 18 26  4  0
 19 24  4  0
 20 24  4  0
 22 27  4  0
 28 29  4  0
M  END
$$$$

 Created by Python create_sdf_string function

 29 33  0  0  0  0  0  0  0  0999 V2000
   10.7215   -3.3326   17.6437 C   0  0  0  0  0  0  0  0  0  0  0  0
    9.9489   -3.4675   24.6487 N   0  0  0  0  0  0  0  0  0  0  0  0
   10.0172   -4.4740   17.4101 C   0  0  0  0  0  0  0  0  0  0  0  0
    6.9051   -7.9575   16.4222 C   0  0  0  0  0  0  0  0  0  0  0  0
    8.9969   -6.3552   17.9668 N   0  0  0  0  0  0  0  0  0  0  0  0
   10.6702   -3.9051   22.4070 C   0  0  0  0  0  0  0  0  0  0  0  0
   11.0625   -3.0028   18.8894 C   0  0  0  0  0  0  0  0  0  0  0  0
    5.6180   -7.9194   16.1754 O   0  0  0  0  0  0  0  0  0  0  0  0
    9.7259   -5.3080   18.4485 C   0  0  0  0  0  0  0  0  0  0  0  0
    9.4578   -5.0200   16.3036 N   0  0  0  0  0  0  0  0  0  0  0  0
    5.0287   -8.9365   16.8223 C   0  0  0  0  0  0  0  0  0  0  0  0
    8.7742   -6.1498   16.6764 C   0  0  0  0  0  0  0  0  0  0  0  0
   10.9418   -3.4032   21.2053 O   0  0  0  0  0  0  0  0  0  0  0  0
    1.4797   -8.6258   16.2950 C   0  0  0  0  0  0  0  0  0  0  0  0
    9.2861   -1.2743   25.3585 C   0  0  0  0  0  0  0  0  0  0  0  0
    1.8892  -10.3985   17.7511 N   0  0  0  0  0  0  0  0  0  0  0  0
    9.6210   -0.6952   24.0976 C   0  0  0  0  0  0  0  0  0  0  0  0
    7.0792   -9.0217   17.1429 C   0  0  0  0  0  0  0  0  0  0  0  0
    3.1713  -10.1816   17.6634 C   0  0  0  0  0  0  0  0  0  0  0  0
    2.7878   -8.3822   16.2137 C   0  0  0  0  0  0  0  0  0  0  0  0
    9.4601   -2.6590   25.6528 C   0  0  0  0  0  0  0  0  0  0  0  0
   10.1182   -1.5672   23.1165 C   0  0  0  0  0  0  0  0  0  0  0  0
    1.0552   -9.6360   17.0650 C   0  0  0  0  0  0  0  0  0  0  0  0
    3.6519   -9.1783   16.9039 C   0  0  0  0  0  0  0  0  0  0  0  0
    7.8675   -7.0096   15.9415 C   0  0  0  0  0  0  0  0  0  0  0  0
    5.9733   -9.6553   17.3832 N   0  0  0  0  0  0  0  0  0  0  0  0
   10.2411   -2.9363   23.4301 C   0  0  0  0  0  0  0  0  0  0  0  0
   10.7288   -3.8197   19.9525 C   0  0  0  0  0  0  0  0  0  0  0  0
   10.1189   -5.0054   19.6987 C   0  0  0  0  0  0  0  0  0  0  0  0
  1  3  4  0
  1  7  4  0
  2 21  4  0
  2 27  4  0
  3  9  4  0
  3 10  4  0
  4  8  4  0
  4 18  4  0
  4 25  1  0
  5  9  4  0
  5 12  4  0
  6 13  1  0
  6 27  1  0
  7 28  4  0
  8 11  4  0
  9 29  4  0
 10 12  4  0
 11 24  1  0
 11 26  4  0
 12 25  1  0
 13 28  1  0
 14 20  4  0
 14 23  4  0
 15 17  4  0
 15 21  4  0
 16 19  4  0
 16 23  4  0
 17 22  4  0
 18 26  4  0
 19 24  4  0
 20 24  4  0
 22 27  4  0
 28 29  4  0
M  END
$$$$

 Created by Python create_sdf_string function

 29 33  0  0  0  0  0  0  0  0999 V2000
   10.7215   -3.3326   17.6437 C   0  0  0  0  0  0  0  0  0  0  0  0
    9.9489   -3.4675   24.6487 N   0  0  0  0  0  0  0  0  0  0  0  0
   10.0172   -4.4740   17.4101 C   0  0  0  0  0  0  0  0  0  0  0  0
    6.9051   -7.9575   16.4222 C   0  0  0  0  0  0  0  0  0  0  0  0
    8.9969   -6.3552   17.9668 N   0  0  0  0  0  0  0  0  0  0  0  0
   10.6702   -3.9051   22.4070 C   0  0  0  0  0  0  0  0  0  0  0  0
   11.0625   -3.0028   18.8894 C   0  0  0  0  0  0  0  0  0  0  0  0
    5.6180   -7.9194   16.1754 O   0  0  0  0  0  0  0  0  0  0  0  0
    9.7259   -5.3080   18.4485 C   0  0  0  0  0  0  0  0  0  0  0  0
    9.4578   -5.0200   16.3036 N   0  0  0  0  0  0  0  0  0  0  0  0
    5.0287   -8.9365   16.8223 C   0  0  0  0  0  0  0  0  0  0  0  0
    8.7742   -6.1498   16.6764 C   0  0  0  0  0  0  0  0  0  0  0  0
   10.9418   -3.4032   21.2053 O   0  0  0  0  0  0  0  0  0  0  0  0
    1.4797   -8.6258   16.2950 C   0  0  0  0  0  0  0  0  0  0  0  0
    9.2861   -1.2743   25.3585 C   0  0  0  0  0  0  0  0  0  0  0  0
    1.8892  -10.3985   17.7511 N   0  0  0  0  0  0  0  0  0  0  0  0
    9.6210   -0.6952   24.0976 C   0  0  0  0  0  0  0  0  0  0  0  0
    7.0792   -9.0217   17.1429 C   0  0  0  0  0  0  0  0  0  0  0  0
    3.1713  -10.1816   17.6634 C   0  0  0  0  0  0  0  0  0  0  0  0
    2.7878   -8.3822   16.2137 C   0  0  0  0  0  0  0  0  0  0  0  0
    9.4601   -2.6590   25.6528 C   0  0  0  0  0  0  0  0  0  0  0  0
   10.1182   -1.5672   23.1165 C   0  0  0  0  0  0  0  0  0  0  0  0
    1.0552   -9.6360   17.0650 C   0  0  0  0  0  0  0  0  0  0  0  0
    3.6519   -9.1783   16.9039 C   0  0  0  0  0  0  0  0  0  0  0  0
    7.8675   -7.0096   15.9415 C   0  0  0  0  0  0  0  0  0  0  0  0
    5.9733   -9.6553   17.3832 N   0  0  0  0  0  0  0  0  0  0  0  0
   10.2411   -2.9363   23.4301 C   0  0  0  0  0  0  0  0  0  0  0  0
   10.7288   -3.8197   19.9525 C   0  0  0  0  0  0  0  0  0  0  0  0
   10.1189   -5.0054   19.6987 C   0  0  0  0  0  0  0  0  0  0  0  0
  1  3  4  0
  1  7  4  0
  2 21  4  0
  2 27  4  0
  3  9  4  0
  3 10  4  0
  4  8  4  0
  4 18  4  0
  4 25  1  0
  5  9  4  0
  5 12  4  0
  6 13  1  0
  6 27  1  0
  7 28  4  0
  8 11  4  0
  9 29  4  0
 10 12  4  0
 11 24  1  0
 11 26  4  0
 12 25  1  0
 13 28  1  0
 14 20  4  0
 14 23  4  0
 15 17  4  0
 15 21  4  0
 16 19  4  0
 16 23  4  0
 17 22  4  0
 18 26  4  0
 19 24  4  0
 20 24  4  0
 22 27  4  0
 28 29  4  0
M  END
$$$$

 Created by Python create_sdf_string function

 29 33  0  0  0  0  0  0  0  0999 V2000
   10.7215   -3.3326   17.6437 C   0  0  0  0  0  0  0  0  0  0  0  0
    9.9489   -3.4675   24.6487 N   0  0  0  0  0  0  0  0  0  0  0  0
   10.0172   -4.4740   17.4101 C   0  0  0  0  0  0  0  0  0  0  0  0
    6.9051   -7.9575   16.4222 C   0  0  0  0  0  0  0  0  0  0  0  0
    8.9969   -6.3552   17.9668 N   0  0  0  0  0  0  0  0  0  0  0  0
   10.6702   -3.9051   22.4070 C   0  0  0  0  0  0  0  0  0  0  0  0
   11.0625   -3.0028   18.8894 C   0  0  0  0  0  0  0  0  0  0  0  0
    5.6180   -7.9194   16.1754 O   0  0  0  0  0  0  0  0  0  0  0  0
    9.7259   -5.3080   18.4485 C   0  0  0  0  0  0  0  0  0  0  0  0
    9.4578   -5.0200   16.3036 N   0  0  0  0  0  0  0  0  0  0  0  0
    5.0287   -8.9365   16.8223 C   0  0  0  0  0  0  0  0  0  0  0  0
    8.7742   -6.1498   16.6764 C   0  0  0  0  0  0  0  0  0  0  0  0
   10.9418   -3.4032   21.2053 O   0  0  0  0  0  0  0  0  0  0  0  0
    1.4797   -8.6258   16.2950 C   0  0  0  0  0  0  0  0  0  0  0  0
    9.2861   -1.2743   25.3585 C   0  0  0  0  0  0  0  0  0  0  0  0
    1.8892  -10.3985   17.7511 N   0  0  0  0  0  0  0  0  0  0  0  0
    9.6210   -0.6952   24.0976 C   0  0  0  0  0  0  0  0  0  0  0  0
    7.0792   -9.0217   17.1429 C   0  0  0  0  0  0  0  0  0  0  0  0
    3.1713  -10.1816   17.6634 C   0  0  0  0  0  0  0  0  0  0  0  0
    2.7878   -8.3822   16.2137 C   0  0  0  0  0  0  0  0  0  0  0  0
    9.4601   -2.6590   25.6528 C   0  0  0  0  0  0  0  0  0  0  0  0
   10.1182   -1.5672   23.1165 C   0  0  0  0  0  0  0  0  0  0  0  0
    1.0552   -9.6360   17.0650 C   0  0  0  0  0  0  0  0  0  0  0  0
    3.6519   -9.1783   16.9039 C   0  0  0  0  0  0  0  0  0  0  0  0
    7.8675   -7.0096   15.9415 C   0  0  0  0  0  0  0  0  0  0  0  0
    5.9733   -9.6553   17.3832 N   0  0  0  0  0  0  0  0  0  0  0  0
   10.2411   -2.9363   23.4301 C   0  0  0  0  0  0  0  0  0  0  0  0
   10.7288   -3.8197   19.9525 C   0  0  0  0  0  0  0  0  0  0  0  0
   10.1189   -5.0054   19.6987 C   0  0  0  0  0  0  0  0  0  0  0  0
  1  3  4  0
  1  7  4  0
  2 21  4  0
  2 27  4  0
  3  9  4  0
  3 10  4  0
  4  8  4  0
  4 18  4  0
  4 25  1  0
  5  9  4  0
  5 12  4  0
  6 13  1  0
  6 27  1  0
  7 28  4  0
  8 11  4  0
  9 29  4  0
 10 12  4  0
 11 24  1  0
 11 26  4  0
 12 25  1  0
 13 28  1  0
 14 20  4  0
 14 23  4  0
 15 17  4  0
 15 21  4  0
 16 19  4  0
 16 23  4  0
 17 22  4  0
 18 26  4  0
 19 24  4  0
 20 24  4  0
 22 27  4  0
 28 29  4  0
M  END
$$$$

 Created by Python create_sdf_string function

 29 33  0  0  0  0  0  0  0  0999 V2000
   10.7215   -3.3326   17.6437 C   0  0  0  0  0  0  0  0  0  0  0  0
    9.9489   -3.4675   24.6487 N   0  0  0  0  0  0  0  0  0  0  0  0
   10.0172   -4.4740   17.4101 C   0  0  0  0  0  0  0  0  0  0  0  0
    6.9051   -7.9575   16.4222 C   0  0  0  0  0  0  0  0  0  0  0  0
    8.9969   -6.3552   17.9668 N   0  0  0  0  0  0  0  0  0  0  0  0
   10.6702   -3.9051   22.4070 C   0  0  0  0  0  0  0  0  0  0  0  0
   11.0625   -3.0028   18.8894 C   0  0  0  0  0  0  0  0  0  0  0  0
    5.6180   -7.9194   16.1754 O   0  0  0  0  0  0  0  0  0  0  0  0
    9.7259   -5.3080   18.4485 C   0  0  0  0  0  0  0  0  0  0  0  0
    9.4578   -5.0200   16.3036 N   0  0  0  0  0  0  0  0  0  0  0  0
    5.0287   -8.9365   16.8223 C   0  0  0  0  0  0  0  0  0  0  0  0
    8.7742   -6.1498   16.6764 C   0  0  0  0  0  0  0  0  0  0  0  0
   10.9418   -3.4032   21.2053 O   0  0  0  0  0  0  0  0  0  0  0  0
    1.4797   -8.6258   16.2950 C   0  0  0  0  0  0  0  0  0  0  0  0
    9.2861   -1.2743   25.3585 C   0  0  0  0  0  0  0  0  0  0  0  0
    1.8892  -10.3985   17.7511 N   0  0  0  0  0  0  0  0  0  0  0  0
    9.6210   -0.6952   24.0976 C   0  0  0  0  0  0  0  0  0  0  0  0
    7.0792   -9.0217   17.1429 C   0  0  0  0  0  0  0  0  0  0  0  0
    3.1713  -10.1816   17.6634 C   0  0  0  0  0  0  0  0  0  0  0  0
    2.7878   -8.3822   16.2137 C   0  0  0  0  0  0  0  0  0  0  0  0
    9.4601   -2.6590   25.6528 C   0  0  0  0  0  0  0  0  0  0  0  0
   10.1182   -1.5672   23.1165 C   0  0  0  0  0  0  0  0  0  0  0  0
    1.0552   -9.6360   17.0650 C   0  0  0  0  0  0  0  0  0  0  0  0
    3.6519   -9.1783   16.9039 C   0  0  0  0  0  0  0  0  0  0  0  0
    7.8675   -7.0096   15.9415 C   0  0  0  0  0  0  0  0  0  0  0  0
    5.9733   -9.6553   17.3832 N   0  0  0  0  0  0  0  0  0  0  0  0
   10.2411   -2.9363   23.4301 C   0  0  0  0  0  0  0  0  0  0  0  0
   10.7288   -3.8197   19.9525 C   0  0  0  0  0  0  0  0  0  0  0  0
   10.1189   -5.0054   19.6987 C   0  0  0  0  0  0  0  0  0  0  0  0
  1  3  4  0
  1  7  4  0
  2 21  4  0
  2 27  4  0
  3  9  4  0
  3 10  4  0
  4  8  4  0
  4 18  4  0
  4 25  1  0
  5  9  4  0
  5 12  4  0
  6 13  1  0
  6 27  1  0
  7 28  4  0
  8 11  4  0
  9 29  4  0
 10 12  4  0
 11 24  1  0
 11 26  4  0
 12 25  1  0
 13 28  1  0
 14 20  4  0
 14 23  4  0
 15 17  4  0
 15 21  4  0
 16 19  4  0
 16 23  4  0
 17 22  4  0
 18 26  4  0
 19 24  4  0
 20 24  4  0
 22 27  4  0
 28 29  4  0
M  END
$$$$

 Created by Python create_sdf_string function

 29 33  0  0  0  0  0  0  0  0999 V2000
   10.7215   -3.3326   17.6437 C   0  0  0  0  0  0  0  0  0  0  0  0
    9.9489   -3.4675   24.6487 N   0  0  0  0  0  0  0  0  0  0  0  0
   10.0172   -4.4740   17.4101 C   0  0  0  0  0  0  0  0  0  0  0  0
    6.9051   -7.9575   16.4222 C   0  0  0  0  0  0  0  0  0  0  0  0
    8.9969   -6.3552   17.9668 N   0  0  0  0  0  0  0  0  0  0  0  0
   10.6702   -3.9051   22.4070 C   0  0  0  0  0  0  0  0  0  0  0  0
   11.0625   -3.0028   18.8894 C   0  0  0  0  0  0  0  0  0  0  0  0
    5.6180   -7.9194   16.1754 O   0  0  0  0  0  0  0  0  0  0  0  0
    9.7259   -5.3080   18.4485 C   0  0  0  0  0  0  0  0  0  0  0  0
    9.4578   -5.0200   16.3036 N   0  0  0  0  0  0  0  0  0  0  0  0
    5.0287   -8.9365   16.8223 C   0  0  0  0  0  0  0  0  0  0  0  0
    8.7742   -6.1498   16.6764 C   0  0  0  0  0  0  0  0  0  0  0  0
   10.9418   -3.4032   21.2053 O   0  0  0  0  0  0  0  0  0  0  0  0
    1.4797   -8.6258   16.2950 C   0  0  0  0  0  0  0  0  0  0  0  0
    9.2861   -1.2743   25.3585 C   0  0  0  0  0  0  0  0  0  0  0  0
    1.8892  -10.3985   17.7511 N   0  0  0  0  0  0  0  0  0  0  0  0
    9.6210   -0.6952   24.0976 C   0  0  0  0  0  0  0  0  0  0  0  0
    7.0792   -9.0217   17.1429 C   0  0  0  0  0  0  0  0  0  0  0  0
    3.1713  -10.1816   17.6634 C   0  0  0  0  0  0  0  0  0  0  0  0
    2.7878   -8.3822   16.2137 C   0  0  0  0  0  0  0  0  0  0  0  0
    9.4601   -2.6590   25.6528 C   0  0  0  0  0  0  0  0  0  0  0  0
   10.1182   -1.5672   23.1165 C   0  0  0  0  0  0  0  0  0  0  0  0
    1.0552   -9.6360   17.0650 C   0  0  0  0  0  0  0  0  0  0  0  0
    3.6519   -9.1783   16.9039 C   0  0  0  0  0  0  0  0  0  0  0  0
    7.8675   -7.0096   15.9415 C   0  0  0  0  0  0  0  0  0  0  0  0
    5.9733   -9.6553   17.3832 N   0  0  0  0  0  0  0  0  0  0  0  0
   10.2411   -2.9363   23.4301 C   0  0  0  0  0  0  0  0  0  0  0  0
   10.7288   -3.8197   19.9525 C   0  0  0  0  0  0  0  0  0  0  0  0
   10.1189   -5.0054   19.6987 C   0  0  0  0  0  0  0  0  0  0  0  0
  1  3  4  0
  1  7  4  0
  2 21  4  0
  2 27  4  0
  3  9  4  0
  3 10  4  0
  4  8  4  0
  4 18  4  0
  4 25  1  0
  5  9  4  0
  5 12  4  0
  6 13  1  0
  6 27  1  0
  7 28  4  0
  8 11  4  0
  9 29  4  0
 10 12  4  0
 11 24  1  0
 11 26  4  0
 12 25  1  0
 13 28  1  0
 14 20  4  0
 14 23  4  0
 15 17  4  0
 15 21  4  0
 16 19  4  0
 16 23  4  0
 17 22  4  0
 18 26  4  0
 19 24  4  0
 20 24  4  0
 22 27  4  0
 28 29  4  0
M  END
$$$$

 Created by Python create_sdf_string function

 29 33  0  0  0  0  0  0  0  0999 V2000
   10.7215   -3.3326   17.6437 C   0  0  0  0  0  0  0  0  0  0  0  0
    9.9489   -3.4675   24.6487 N   0  0  0  0  0  0  0  0  0  0  0  0
   10.0172   -4.4740   17.4101 C   0  0  0  0  0  0  0  0  0  0  0  0
    6.9051   -7.9575   16.4222 C   0  0  0  0  0  0  0  0  0  0  0  0
    8.9969   -6.3552   17.9668 N   0  0  0  0  0  0  0  0  0  0  0  0
   10.6702   -3.9051   22.4070 C   0  0  0  0  0  0  0  0  0  0  0  0
   11.0625   -3.0028   18.8894 C   0  0  0  0  0  0  0  0  0  0  0  0
    5.6180   -7.9194   16.1754 O   0  0  0  0  0  0  0  0  0  0  0  0
    9.7259   -5.3080   18.4485 C   0  0  0  0  0  0  0  0  0  0  0  0
    9.4578   -5.0200   16.3036 N   0  0  0  0  0  0  0  0  0  0  0  0
    5.0287   -8.9365   16.8223 C   0  0  0  0  0  0  0  0  0  0  0  0
    8.7742   -6.1498   16.6764 C   0  0  0  0  0  0  0  0  0  0  0  0
   10.9418   -3.4032   21.2053 O   0  0  0  0  0  0  0  0  0  0  0  0
    1.4797   -8.6258   16.2950 C   0  0  0  0  0  0  0  0  0  0  0  0
    9.2861   -1.2743   25.3585 C   0  0  0  0  0  0  0  0  0  0  0  0
    1.8892  -10.3985   17.7511 N   0  0  0  0  0  0  0  0  0  0  0  0
    9.6210   -0.6952   24.0976 C   0  0  0  0  0  0  0  0  0  0  0  0
    7.0792   -9.0217   17.1429 C   0  0  0  0  0  0  0  0  0  0  0  0
    3.1713  -10.1816   17.6634 C   0  0  0  0  0  0  0  0  0  0  0  0
    2.7878   -8.3822   16.2137 C   0  0  0  0  0  0  0  0  0  0  0  0
    9.4601   -2.6590   25.6528 C   0  0  0  0  0  0  0  0  0  0  0  0
   10.1182   -1.5672   23.1165 C   0  0  0  0  0  0  0  0  0  0  0  0
    1.0552   -9.6360   17.0650 C   0  0  0  0  0  0  0  0  0  0  0  0
    3.6519   -9.1783   16.9039 C   0  0  0  0  0  0  0  0  0  0  0  0
    7.8675   -7.0096   15.9415 C   0  0  0  0  0  0  0  0  0  0  0  0
    5.9733   -9.6553   17.3832 N   0  0  0  0  0  0  0  0  0  0  0  0
   10.2411   -2.9363   23.4301 C   0  0  0  0  0  0  0  0  0  0  0  0
   10.7288   -3.8197   19.9525 C   0  0  0  0  0  0  0  0  0  0  0  0
   10.1189   -5.0054   19.6987 C   0  0  0  0  0  0  0  0  0  0  0  0
  1  3  4  0
  1  7  4  0
  2 21  4  0
  2 27  4  0
  3  9  4  0
  3 10  4  0
  4  8  4  0
  4 18  4  0
  4 25  1  0
  5  9  4  0
  5 12  4  0
  6 13  1  0
  6 27  1  0
  7 28  4  0
  8 11  4  0
  9 29  4  0
 10 12  4  0
 11 24  1  0
 11 26  4  0
 12 25  1  0
 13 28  1  0
 14 20  4  0
 14 23  4  0
 15 17  4  0
 15 21  4  0
 16 19  4  0
 16 23  4  0
 17 22  4  0
 18 26  4  0
 19 24  4  0
 20 24  4  0
 22 27  4  0
 28 29  4  0
M  END
$$$$

 Created by Python create_sdf_string function

 29 33  0  0  0  0  0  0  0  0999 V2000
   10.7215   -3.3326   17.6437 C   0  0  0  0  0  0  0  0  0  0  0  0
    9.9489   -3.4675   24.6487 N   0  0  0  0  0  0  0  0  0  0  0  0
   10.0172   -4.4740   17.4101 C   0  0  0  0  0  0  0  0  0  0  0  0
    6.9051   -7.9575   16.4222 C   0  0  0  0  0  0  0  0  0  0  0  0
    8.9969   -6.3552   17.9668 N   0  0  0  0  0  0  0  0  0  0  0  0
   10.6702   -3.9051   22.4070 C   0  0  0  0  0  0  0  0  0  0  0  0
   11.0625   -3.0028   18.8894 C   0  0  0  0  0  0  0  0  0  0  0  0
    5.6180   -7.9194   16.1754 O   0  0  0  0  0  0  0  0  0  0  0  0
    9.7259   -5.3080   18.4485 C   0  0  0  0  0  0  0  0  0  0  0  0
    9.4578   -5.0200   16.3036 N   0  0  0  0  0  0  0  0  0  0  0  0
    5.0287   -8.9365   16.8223 C   0  0  0  0  0  0  0  0  0  0  0  0
    8.7742   -6.1498   16.6764 C   0  0  0  0  0  0  0  0  0  0  0  0
   10.9418   -3.4032   21.2053 O   0  0  0  0  0  0  0  0  0  0  0  0
    1.4797   -8.6258   16.2950 C   0  0  0  0  0  0  0  0  0  0  0  0
    9.2861   -1.2743   25.3585 C   0  0  0  0  0  0  0  0  0  0  0  0
    1.8892  -10.3985   17.7511 N   0  0  0  0  0  0  0  0  0  0  0  0
    9.6210   -0.6952   24.0976 C   0  0  0  0  0  0  0  0  0  0  0  0
    7.0792   -9.0217   17.1429 C   0  0  0  0  0  0  0  0  0  0  0  0
    3.1713  -10.1816   17.6634 C   0  0  0  0  0  0  0  0  0  0  0  0
    2.7878   -8.3822   16.2137 C   0  0  0  0  0  0  0  0  0  0  0  0
    9.4601   -2.6590   25.6528 C   0  0  0  0  0  0  0  0  0  0  0  0
   10.1182   -1.5672   23.1165 C   0  0  0  0  0  0  0  0  0  0  0  0
    1.0552   -9.6360   17.0650 C   0  0  0  0  0  0  0  0  0  0  0  0
    3.6519   -9.1783   16.9039 C   0  0  0  0  0  0  0  0  0  0  0  0
    7.8675   -7.0096   15.9415 C   0  0  0  0  0  0  0  0  0  0  0  0
    5.9733   -9.6553   17.3832 N   0  0  0  0  0  0  0  0  0  0  0  0
   10.2411   -2.9363   23.4301 C   0  0  0  0  0  0  0  0  0  0  0  0
   10.7288   -3.8197   19.9525 C   0  0  0  0  0  0  0  0  0  0  0  0
   10.1189   -5.0054   19.6987 C   0  0  0  0  0  0  0  0  0  0  0  0
  1  3  4  0
  1  7  4  0
  2 21  4  0
  2 27  4  0
  3  9  4  0
  3 10  4  0
  4  8  4  0
  4 18  4  0
  4 25  1  0
  5  9  4  0
  5 12  4  0
  6 13  1  0
  6 27  1  0
  7 28  4  0
  8 11  4  0
  9 29  4  0
 10 12  4  0
 11 24  1  0
 11 26  4  0
 12 25  1  0
 13 28  1  0
 14 20  4  0
 14 23  4  0
 15 17  4  0
 15 21  4  0
 16 19  4  0
 16 23  4  0
 17 22  4  0
 18 26  4  0
 19 24  4  0
 20 24  4  0
 22 27  4  0
 28 29  4  0
M  END
$$$$

 Created by Python create_sdf_string function

 29 33  0  0  0  0  0  0  0  0999 V2000
   10.7215   -3.3326   17.6437 C   0  0  0  0  0  0  0  0  0  0  0  0
    9.9489   -3.4675   24.6487 N   0  0  0  0  0  0  0  0  0  0  0  0
   10.0172   -4.4740   17.4101 C   0  0  0  0  0  0  0  0  0  0  0  0
    6.9051   -7.9575   16.4222 C   0  0  0  0  0  0  0  0  0  0  0  0
    8.9969   -6.3552   17.9668 N   0  0  0  0  0  0  0  0  0  0  0  0
   10.6702   -3.9051   22.4070 C   0  0  0  0  0  0  0  0  0  0  0  0
   11.0625   -3.0028   18.8894 C   0  0  0  0  0  0  0  0  0  0  0  0
    5.6180   -7.9194   16.1754 O   0  0  0  0  0  0  0  0  0  0  0  0
    9.7259   -5.3080   18.4485 C   0  0  0  0  0  0  0  0  0  0  0  0
    9.4578   -5.0200   16.3036 N   0  0  0  0  0  0  0  0  0  0  0  0
    5.0287   -8.9365   16.8223 C   0  0  0  0  0  0  0  0  0  0  0  0
    8.7742   -6.1498   16.6764 C   0  0  0  0  0  0  0  0  0  0  0  0
   10.9418   -3.4032   21.2053 O   0  0  0  0  0  0  0  0  0  0  0  0
    1.4797   -8.6258   16.2950 C   0  0  0  0  0  0  0  0  0  0  0  0
    9.2861   -1.2743   25.3585 C   0  0  0  0  0  0  0  0  0  0  0  0
    1.8892  -10.3985   17.7511 N   0  0  0  0  0  0  0  0  0  0  0  0
    9.6210   -0.6952   24.0976 C   0  0  0  0  0  0  0  0  0  0  0  0
    7.0792   -9.0217   17.1429 C   0  0  0  0  0  0  0  0  0  0  0  0
    3.1713  -10.1816   17.6634 C   0  0  0  0  0  0  0  0  0  0  0  0
    2.7878   -8.3822   16.2137 C   0  0  0  0  0  0  0  0  0  0  0  0
    9.4601   -2.6590   25.6528 C   0  0  0  0  0  0  0  0  0  0  0  0
   10.1182   -1.5672   23.1165 C   0  0  0  0  0  0  0  0  0  0  0  0
    1.0552   -9.6360   17.0650 C   0  0  0  0  0  0  0  0  0  0  0  0
    3.6519   -9.1783   16.9039 C   0  0  0  0  0  0  0  0  0  0  0  0
    7.8675   -7.0096   15.9415 C   0  0  0  0  0  0  0  0  0  0  0  0
    5.9733   -9.6553   17.3832 N   0  0  0  0  0  0  0  0  0  0  0  0
   10.2411   -2.9363   23.4301 C   0  0  0  0  0  0  0  0  0  0  0  0
   10.7288   -3.8197   19.9525 C   0  0  0  0  0  0  0  0  0  0  0  0
   10.1189   -5.0054   19.6987 C   0  0  0  0  0  0  0  0  0  0  0  0
  1  3  4  0
  1  7  4  0
  2 21  4  0
  2 27  4  0
  3  9  4  0
  3 10  4  0
  4  8  4  0
  4 18  4  0
  4 25  1  0
  5  9  4  0
  5 12  4  0
  6 13  1  0
  6 27  1  0
  7 28  4  0
  8 11  4  0
  9 29  4  0
 10 12  4  0
 11 24  1  0
 11 26  4  0
 12 25  1  0
 13 28  1  0
 14 20  4  0
 14 23  4  0
 15 17  4  0
 15 21  4  0
 16 19  4  0
 16 23  4  0
 17 22  4  0
 18 26  4  0
 19 24  4  0
 20 24  4  0
 22 27  4  0
 28 29  4  0
M  END
$$$$

 Created by Python create_sdf_string function

 29 33  0  0  0  0  0  0  0  0999 V2000
   10.7215   -3.3326   17.6437 C   0  0  0  0  0  0  0  0  0  0  0  0
    9.9489   -3.4675   24.6487 N   0  0  0  0  0  0  0  0  0  0  0  0
   10.0172   -4.4740   17.4101 C   0  0  0  0  0  0  0  0  0  0  0  0
    6.9051   -7.9575   16.4222 C   0  0  0  0  0  0  0  0  0  0  0  0
    8.9969   -6.3552   17.9668 N   0  0  0  0  0  0  0  0  0  0  0  0
   10.6702   -3.9051   22.4070 C   0  0  0  0  0  0  0  0  0  0  0  0
   11.0625   -3.0028   18.8894 C   0  0  0  0  0  0  0  0  0  0  0  0
    5.6180   -7.9194   16.1754 O   0  0  0  0  0  0  0  0  0  0  0  0
    9.7259   -5.3080   18.4485 C   0  0  0  0  0  0  0  0  0  0  0  0
    9.4578   -5.0200   16.3036 N   0  0  0  0  0  0  0  0  0  0  0  0
    5.0287   -8.9365   16.8223 C   0  0  0  0  0  0  0  0  0  0  0  0
    8.7742   -6.1498   16.6764 C   0  0  0  0  0  0  0  0  0  0  0  0
   10.9418   -3.4032   21.2053 O   0  0  0  0  0  0  0  0  0  0  0  0
    1.4797   -8.6258   16.2950 C   0  0  0  0  0  0  0  0  0  0  0  0
    9.2861   -1.2743   25.3585 C   0  0  0  0  0  0  0  0  0  0  0  0
    1.8892  -10.3985   17.7511 N   0  0  0  0  0  0  0  0  0  0  0  0
    9.6210   -0.6952   24.0976 C   0  0  0  0  0  0  0  0  0  0  0  0
    7.0792   -9.0217   17.1429 C   0  0  0  0  0  0  0  0  0  0  0  0
    3.1713  -10.1816   17.6634 C   0  0  0  0  0  0  0  0  0  0  0  0
    2.7878   -8.3822   16.2137 C   0  0  0  0  0  0  0  0  0  0  0  0
    9.4601   -2.6590   25.6528 C   0  0  0  0  0  0  0  0  0  0  0  0
   10.1182   -1.5672   23.1165 C   0  0  0  0  0  0  0  0  0  0  0  0
    1.0552   -9.6360   17.0650 C   0  0  0  0  0  0  0  0  0  0  0  0
    3.6519   -9.1783   16.9039 C   0  0  0  0  0  0  0  0  0  0  0  0
    7.8675   -7.0096   15.9415 C   0  0  0  0  0  0  0  0  0  0  0  0
    5.9733   -9.6553   17.3832 N   0  0  0  0  0  0  0  0  0  0  0  0
   10.2411   -2.9363   23.4301 C   0  0  0  0  0  0  0  0  0  0  0  0
   10.7288   -3.8197   19.9525 C   0  0  0  0  0  0  0  0  0  0  0  0
   10.1189   -5.0054   19.6987 C   0  0  0  0  0  0  0  0  0  0  0  0
  1  3  4  0
  1  7  4  0
  2 21  4  0
  2 27  4  0
  3  9  4  0
  3 10  4  0
  4  8  4  0
  4 18  4  0
  4 25  1  0
  5  9  4  0
  5 12  4  0
  6 13  1  0
  6 27  1  0
  7 28  4  0
  8 11  4  0
  9 29  4  0
 10 12  4  0
 11 24  1  0
 11 26  4  0
 12 25  1  0
 13 28  1  0
 14 20  4  0
 14 23  4  0
 15 17  4  0
 15 21  4  0
 16 19  4  0
 16 23  4  0
 17 22  4  0
 18 26  4  0
 19 24  4  0
 20 24  4  0
 22 27  4  0
 28 29  4  0
M  END
$$$$

 Created by Python create_sdf_string function

 29 33  0  0  0  0  0  0  0  0999 V2000
   10.7215   -3.3326   17.6437 C   0  0  0  0  0  0  0  0  0  0  0  0
    9.9489   -3.4675   24.6487 N   0  0  0  0  0  0  0  0  0  0  0  0
   10.0172   -4.4740   17.4101 C   0  0  0  0  0  0  0  0  0  0  0  0
    6.9051   -7.9575   16.4222 C   0  0  0  0  0  0  0  0  0  0  0  0
    8.9969   -6.3552   17.9668 N   0  0  0  0  0  0  0  0  0  0  0  0
   10.6702   -3.9051   22.4070 C   0  0  0  0  0  0  0  0  0  0  0  0
   11.0625   -3.0028   18.8894 C   0  0  0  0  0  0  0  0  0  0  0  0
    5.6180   -7.9194   16.1754 O   0  0  0  0  0  0  0  0  0  0  0  0
    9.7259   -5.3080   18.4485 C   0  0  0  0  0  0  0  0  0  0  0  0
    9.4578   -5.0200   16.3036 N   0  0  0  0  0  0  0  0  0  0  0  0
    5.0287   -8.9365   16.8223 C   0  0  0  0  0  0  0  0  0  0  0  0
    8.7742   -6.1498   16.6764 C   0  0  0  0  0  0  0  0  0  0  0  0
   10.9418   -3.4032   21.2053 O   0  0  0  0  0  0  0  0  0  0  0  0
    1.4797   -8.6258   16.2950 C   0  0  0  0  0  0  0  0  0  0  0  0
    9.2861   -1.2743   25.3585 C   0  0  0  0  0  0  0  0  0  0  0  0
    1.8892  -10.3985   17.7511 N   0  0  0  0  0  0  0  0  0  0  0  0
    9.6210   -0.6952   24.0976 C   0  0  0  0  0  0  0  0  0  0  0  0
    7.0792   -9.0217   17.1429 C   0  0  0  0  0  0  0  0  0  0  0  0
    3.1713  -10.1816   17.6634 C   0  0  0  0  0  0  0  0  0  0  0  0
    2.7878   -8.3822   16.2137 C   0  0  0  0  0  0  0  0  0  0  0  0
    9.4601   -2.6590   25.6528 C   0  0  0  0  0  0  0  0  0  0  0  0
   10.1182   -1.5672   23.1165 C   0  0  0  0  0  0  0  0  0  0  0  0
    1.0552   -9.6360   17.0650 C   0  0  0  0  0  0  0  0  0  0  0  0
    3.6519   -9.1783   16.9039 C   0  0  0  0  0  0  0  0  0  0  0  0
    7.8675   -7.0096   15.9415 C   0  0  0  0  0  0  0  0  0  0  0  0
    5.9733   -9.6553   17.3832 N   0  0  0  0  0  0  0  0  0  0  0  0
   10.2411   -2.9363   23.4301 C   0  0  0  0  0  0  0  0  0  0  0  0
   10.7288   -3.8197   19.9525 C   0  0  0  0  0  0  0  0  0  0  0  0
   10.1189   -5.0054   19.6987 C   0  0  0  0  0  0  0  0  0  0  0  0
  1  3  4  0
  1  7  4  0
  2 21  4  0
  2 27  4  0
  3  9  4  0
  3 10  4  0
  4  8  4  0
  4 18  4  0
  4 25  1  0
  5  9  4  0
  5 12  4  0
  6 13  1  0
  6 27  1  0
  7 28  4  0
  8 11  4  0
  9 29  4  0
 10 12  4  0
 11 24  1  0
 11 26  4  0
 12 25  1  0
 13 28  1  0
 14 20  4  0
 14 23  4  0
 15 17  4  0
 15 21  4  0
 16 19  4  0
 16 23  4  0
 17 22  4  0
 18 26  4  0
 19 24  4  0
 20 24  4  0
 22 27  4  0
 28 29  4  0
M  END
$$$$

 Created by Python create_sdf_string function

 29 33  0  0  0  0  0  0  0  0999 V2000
   10.7215   -3.3326   17.6437 C   0  0  0  0  0  0  0  0  0  0  0  0
    9.9489   -3.4675   24.6487 N   0  0  0  0  0  0  0  0  0  0  0  0
   10.0172   -4.4740   17.4101 C   0  0  0  0  0  0  0  0  0  0  0  0
    6.9051   -7.9575   16.4222 C   0  0  0  0  0  0  0  0  0  0  0  0
    8.9969   -6.3552   17.9668 N   0  0  0  0  0  0  0  0  0  0  0  0
   10.6702   -3.9051   22.4070 C   0  0  0  0  0  0  0  0  0  0  0  0
   11.0625   -3.0028   18.8894 C   0  0  0  0  0  0  0  0  0  0  0  0
    5.6180   -7.9194   16.1754 O   0  0  0  0  0  0  0  0  0  0  0  0
    9.7259   -5.3080   18.4485 C   0  0  0  0  0  0  0  0  0  0  0  0
    9.4578   -5.0200   16.3036 N   0  0  0  0  0  0  0  0  0  0  0  0
    5.0287   -8.9365   16.8223 C   0  0  0  0  0  0  0  0  0  0  0  0
    8.7742   -6.1498   16.6764 C   0  0  0  0  0  0  0  0  0  0  0  0
   10.9418   -3.4032   21.2053 O   0  0  0  0  0  0  0  0  0  0  0  0
    1.4797   -8.6258   16.2950 C   0  0  0  0  0  0  0  0  0  0  0  0
    9.2861   -1.2743   25.3585 C   0  0  0  0  0  0  0  0  0  0  0  0
    1.8892  -10.3985   17.7511 N   0  0  0  0  0  0  0  0  0  0  0  0
    9.6210   -0.6952   24.0976 C   0  0  0  0  0  0  0  0  0  0  0  0
    7.0792   -9.0217   17.1429 C   0  0  0  0  0  0  0  0  0  0  0  0
    3.1713  -10.1816   17.6634 C   0  0  0  0  0  0  0  0  0  0  0  0
    2.7878   -8.3822   16.2137 C   0  0  0  0  0  0  0  0  0  0  0  0
    9.4601   -2.6590   25.6528 C   0  0  0  0  0  0  0  0  0  0  0  0
   10.1182   -1.5672   23.1165 C   0  0  0  0  0  0  0  0  0  0  0  0
    1.0552   -9.6360   17.0650 C   0  0  0  0  0  0  0  0  0  0  0  0
    3.6519   -9.1783   16.9039 C   0  0  0  0  0  0  0  0  0  0  0  0
    7.8675   -7.0096   15.9415 C   0  0  0  0  0  0  0  0  0  0  0  0
    5.9733   -9.6553   17.3832 N   0  0  0  0  0  0  0  0  0  0  0  0
   10.2411   -2.9363   23.4301 C   0  0  0  0  0  0  0  0  0  0  0  0
   10.7288   -3.8197   19.9525 C   0  0  0  0  0  0  0  0  0  0  0  0
   10.1189   -5.0054   19.6987 C   0  0  0  0  0  0  0  0  0  0  0  0
  1  3  4  0
  1  7  4  0
  2 21  4  0
  2 27  4  0
  3  9  4  0
  3 10  4  0
  4  8  4  0
  4 18  4  0
  4 25  1  0
  5  9  4  0
  5 12  4  0
  6 13  1  0
  6 27  1  0
  7 28  4  0
  8 11  4  0
  9 29  4  0
 10 12  4  0
 11 24  1  0
 11 26  4  0
 12 25  1  0
 13 28  1  0
 14 20  4  0
 14 23  4  0
 15 17  4  0
 15 21  4  0
 16 19  4  0
 16 23  4  0
 17 22  4  0
 18 26  4  0
 19 24  4  0
 20 24  4  0
 22 27  4  0
 28 29  4  0
M  END
$$$$

 Created by Python create_sdf_string function

 29 33  0  0  0  0  0  0  0  0999 V2000
   10.7215   -3.3326   17.6437 C   0  0  0  0  0  0  0  0  0  0  0  0
    9.9489   -3.4675   24.6487 N   0  0  0  0  0  0  0  0  0  0  0  0
   10.0172   -4.4740   17.4101 C   0  0  0  0  0  0  0  0  0  0  0  0
    6.9051   -7.9575   16.4222 C   0  0  0  0  0  0  0  0  0  0  0  0
    8.9969   -6.3552   17.9668 N   0  0  0  0  0  0  0  0  0  0  0  0
   10.6702   -3.9051   22.4070 C   0  0  0  0  0  0  0  0  0  0  0  0
   11.0625   -3.0028   18.8894 C   0  0  0  0  0  0  0  0  0  0  0  0
    5.6180   -7.9194   16.1754 O   0  0  0  0  0  0  0  0  0  0  0  0
    9.7259   -5.3080   18.4485 C   0  0  0  0  0  0  0  0  0  0  0  0
    9.4578   -5.0200   16.3036 N   0  0  0  0  0  0  0  0  0  0  0  0
    5.0287   -8.9365   16.8223 C   0  0  0  0  0  0  0  0  0  0  0  0
    8.7742   -6.1498   16.6764 C   0  0  0  0  0  0  0  0  0  0  0  0
   10.9418   -3.4032   21.2053 O   0  0  0  0  0  0  0  0  0  0  0  0
    1.4797   -8.6258   16.2950 C   0  0  0  0  0  0  0  0  0  0  0  0
    9.2861   -1.2743   25.3585 C   0  0  0  0  0  0  0  0  0  0  0  0
    1.8892  -10.3985   17.7511 N   0  0  0  0  0  0  0  0  0  0  0  0
    9.6210   -0.6952   24.0976 C   0  0  0  0  0  0  0  0  0  0  0  0
    7.0792   -9.0217   17.1429 C   0  0  0  0  0  0  0  0  0  0  0  0
    3.1713  -10.1816   17.6634 C   0  0  0  0  0  0  0  0  0  0  0  0
    2.7878   -8.3822   16.2137 C   0  0  0  0  0  0  0  0  0  0  0  0
    9.4601   -2.6590   25.6528 C   0  0  0  0  0  0  0  0  0  0  0  0
   10.1182   -1.5672   23.1165 C   0  0  0  0  0  0  0  0  0  0  0  0
    1.0552   -9.6360   17.0650 C   0  0  0  0  0  0  0  0  0  0  0  0
    3.6519   -9.1783   16.9039 C   0  0  0  0  0  0  0  0  0  0  0  0
    7.8675   -7.0096   15.9415 C   0  0  0  0  0  0  0  0  0  0  0  0
    5.9733   -9.6553   17.3832 N   0  0  0  0  0  0  0  0  0  0  0  0
   10.2411   -2.9363   23.4301 C   0  0  0  0  0  0  0  0  0  0  0  0
   10.7288   -3.8197   19.9525 C   0  0  0  0  0  0  0  0  0  0  0  0
   10.1189   -5.0054   19.6987 C   0  0  0  0  0  0  0  0  0  0  0  0
  1  3  4  0
  1  7  4  0
  2 21  4  0
  2 27  4  0
  3  9  4  0
  3 10  4  0
  4  8  4  0
  4 18  4  0
  4 25  1  0
  5  9  4  0
  5 12  4  0
  6 13  1  0
  6 27  1  0
  7 28  4  0
  8 11  4  0
  9 29  4  0
 10 12  4  0
 11 24  1  0
 11 26  4  0
 12 25  1  0
 13 28  1  0
 14 20  4  0
 14 23  4  0
 15 17  4  0
 15 21  4  0
 16 19  4  0
 16 23  4  0
 17 22  4  0
 18 26  4  0
 19 24  4  0
 20 24  4  0
 22 27  4  0
 28 29  4  0
M  END
$$$$

 Created by Python create_sdf_string function

 29 33  0  0  0  0  0  0  0  0999 V2000
   10.7215   -3.3326   17.6437 C   0  0  0  0  0  0  0  0  0  0  0  0
    9.9489   -3.4675   24.6487 N   0  0  0  0  0  0  0  0  0  0  0  0
   10.0172   -4.4740   17.4101 C   0  0  0  0  0  0  0  0  0  0  0  0
    6.9051   -7.9575   16.4222 C   0  0  0  0  0  0  0  0  0  0  0  0
    8.9969   -6.3552   17.9668 N   0  0  0  0  0  0  0  0  0  0  0  0
   10.6702   -3.9051   22.4070 C   0  0  0  0  0  0  0  0  0  0  0  0
   11.0625   -3.0028   18.8894 C   0  0  0  0  0  0  0  0  0  0  0  0
    5.6180   -7.9194   16.1754 O   0  0  0  0  0  0  0  0  0  0  0  0
    9.7259   -5.3080   18.4485 C   0  0  0  0  0  0  0  0  0  0  0  0
    9.4578   -5.0200   16.3036 N   0  0  0  0  0  0  0  0  0  0  0  0
    5.0287   -8.9365   16.8223 C   0  0  0  0  0  0  0  0  0  0  0  0
    8.7742   -6.1498   16.6764 C   0  0  0  0  0  0  0  0  0  0  0  0
   10.9418   -3.4032   21.2053 O   0  0  0  0  0  0  0  0  0  0  0  0
    1.4797   -8.6258   16.2950 C   0  0  0  0  0  0  0  0  0  0  0  0
    9.2861   -1.2743   25.3585 C   0  0  0  0  0  0  0  0  0  0  0  0
    1.8892  -10.3985   17.7511 N   0  0  0  0  0  0  0  0  0  0  0  0
    9.6210   -0.6952   24.0976 C   0  0  0  0  0  0  0  0  0  0  0  0
    7.0792   -9.0217   17.1429 C   0  0  0  0  0  0  0  0  0  0  0  0
    3.1713  -10.1816   17.6634 C   0  0  0  0  0  0  0  0  0  0  0  0
    2.7878   -8.3822   16.2137 C   0  0  0  0  0  0  0  0  0  0  0  0
    9.4601   -2.6590   25.6528 C   0  0  0  0  0  0  0  0  0  0  0  0
   10.1182   -1.5672   23.1165 C   0  0  0  0  0  0  0  0  0  0  0  0
    1.0552   -9.6360   17.0650 C   0  0  0  0  0  0  0  0  0  0  0  0
    3.6519   -9.1783   16.9039 C   0  0  0  0  0  0  0  0  0  0  0  0
    7.8675   -7.0096   15.9415 C   0  0  0  0  0  0  0  0  0  0  0  0
    5.9733   -9.6553   17.3832 N   0  0  0  0  0  0  0  0  0  0  0  0
   10.2411   -2.9363   23.4301 C   0  0  0  0  0  0  0  0  0  0  0  0
   10.7288   -3.8197   19.9525 C   0  0  0  0  0  0  0  0  0  0  0  0
   10.1189   -5.0054   19.6987 C   0  0  0  0  0  0  0  0  0  0  0  0
  1  3  4  0
  1  7  4  0
  2 21  4  0
  2 27  4  0
  3  9  4  0
  3 10  4  0
  4  8  4  0
  4 18  4  0
  4 25  1  0
  5  9  4  0
  5 12  4  0
  6 13  1  0
  6 27  1  0
  7 28  4  0
  8 11  4  0
  9 29  4  0
 10 12  4  0
 11 24  1  0
 11 26  4  0
 12 25  1  0
 13 28  1  0
 14 20  4  0
 14 23  4  0
 15 17  4  0
 15 21  4  0
 16 19  4  0
 16 23  4  0
 17 22  4  0
 18 26  4  0
 19 24  4  0
 20 24  4  0
 22 27  4  0
 28 29  4  0
M  END
$$$$

 Created by Python create_sdf_string function

 29 33  0  0  0  0  0  0  0  0999 V2000
   10.7215   -3.3326   17.6437 C   0  0  0  0  0  0  0  0  0  0  0  0
    9.9489   -3.4675   24.6487 N   0  0  0  0  0  0  0  0  0  0  0  0
   10.0172   -4.4740   17.4101 C   0  0  0  0  0  0  0  0  0  0  0  0
    6.9051   -7.9575   16.4222 C   0  0  0  0  0  0  0  0  0  0  0  0
    8.9969   -6.3552   17.9668 N   0  0  0  0  0  0  0  0  0  0  0  0
   10.6702   -3.9051   22.4070 C   0  0  0  0  0  0  0  0  0  0  0  0
   11.0625   -3.0028   18.8894 C   0  0  0  0  0  0  0  0  0  0  0  0
    5.6180   -7.9194   16.1754 O   0  0  0  0  0  0  0  0  0  0  0  0
    9.7259   -5.3080   18.4485 C   0  0  0  0  0  0  0  0  0  0  0  0
    9.4578   -5.0200   16.3036 N   0  0  0  0  0  0  0  0  0  0  0  0
    5.0287   -8.9365   16.8223 C   0  0  0  0  0  0  0  0  0  0  0  0
    8.7742   -6.1498   16.6764 C   0  0  0  0  0  0  0  0  0  0  0  0
   10.9418   -3.4032   21.2053 O   0  0  0  0  0  0  0  0  0  0  0  0
    1.4797   -8.6258   16.2950 C   0  0  0  0  0  0  0  0  0  0  0  0
    9.2861   -1.2743   25.3585 C   0  0  0  0  0  0  0  0  0  0  0  0
    1.8892  -10.3985   17.7511 N   0  0  0  0  0  0  0  0  0  0  0  0
    9.6210   -0.6952   24.0976 C   0  0  0  0  0  0  0  0  0  0  0  0
    7.0792   -9.0217   17.1429 C   0  0  0  0  0  0  0  0  0  0  0  0
    3.1713  -10.1816   17.6634 C   0  0  0  0  0  0  0  0  0  0  0  0
    2.7878   -8.3822   16.2137 C   0  0  0  0  0  0  0  0  0  0  0  0
    9.4601   -2.6590   25.6528 C   0  0  0  0  0  0  0  0  0  0  0  0
   10.1182   -1.5672   23.1165 C   0  0  0  0  0  0  0  0  0  0  0  0
    1.0552   -9.6360   17.0650 C   0  0  0  0  0  0  0  0  0  0  0  0
    3.6519   -9.1783   16.9039 C   0  0  0  0  0  0  0  0  0  0  0  0
    7.8675   -7.0096   15.9415 C   0  0  0  0  0  0  0  0  0  0  0  0
    5.9733   -9.6553   17.3832 N   0  0  0  0  0  0  0  0  0  0  0  0
   10.2411   -2.9363   23.4301 C   0  0  0  0  0  0  0  0  0  0  0  0
   10.7288   -3.8197   19.9525 C   0  0  0  0  0  0  0  0  0  0  0  0
   10.1189   -5.0054   19.6987 C   0  0  0  0  0  0  0  0  0  0  0  0
  1  3  4  0
  1  7  4  0
  2 21  4  0
  2 27  4  0
  3  9  4  0
  3 10  4  0
  4  8  4  0
  4 18  4  0
  4 25  1  0
  5  9  4  0
  5 12  4  0
  6 13  1  0
  6 27  1  0
  7 28  4  0
  8 11  4  0
  9 29  4  0
 10 12  4  0
 11 24  1  0
 11 26  4  0
 12 25  1  0
 13 28  1  0
 14 20  4  0
 14 23  4  0
 15 17  4  0
 15 21  4  0
 16 19  4  0
 16 23  4  0
 17 22  4  0
 18 26  4  0
 19 24  4  0
 20 24  4  0
 22 27  4  0
 28 29  4  0
M  END
$$$$

 Created by Python create_sdf_string function

 29 33  0  0  0  0  0  0  0  0999 V2000
   10.7215   -3.3326   17.6437 C   0  0  0  0  0  0  0  0  0  0  0  0
    9.9489   -3.4675   24.6487 N   0  0  0  0  0  0  0  0  0  0  0  0
   10.0172   -4.4740   17.4101 C   0  0  0  0  0  0  0  0  0  0  0  0
    6.9051   -7.9575   16.4222 C   0  0  0  0  0  0  0  0  0  0  0  0
    8.9969   -6.3552   17.9668 N   0  0  0  0  0  0  0  0  0  0  0  0
   10.6702   -3.9051   22.4070 C   0  0  0  0  0  0  0  0  0  0  0  0
   11.0625   -3.0028   18.8894 C   0  0  0  0  0  0  0  0  0  0  0  0
    5.6180   -7.9194   16.1754 O   0  0  0  0  0  0  0  0  0  0  0  0
    9.7259   -5.3080   18.4485 C   0  0  0  0  0  0  0  0  0  0  0  0
    9.4578   -5.0200   16.3036 N   0  0  0  0  0  0  0  0  0  0  0  0
    5.0287   -8.9365   16.8223 C   0  0  0  0  0  0  0  0  0  0  0  0
    8.7742   -6.1498   16.6764 C   0  0  0  0  0  0  0  0  0  0  0  0
   10.9418   -3.4032   21.2053 O   0  0  0  0  0  0  0  0  0  0  0  0
    1.4797   -8.6258   16.2950 C   0  0  0  0  0  0  0  0  0  0  0  0
    9.2861   -1.2743   25.3585 C   0  0  0  0  0  0  0  0  0  0  0  0
    1.8892  -10.3985   17.7511 N   0  0  0  0  0  0  0  0  0  0  0  0
    9.6210   -0.6952   24.0976 C   0  0  0  0  0  0  0  0  0  0  0  0
    7.0792   -9.0217   17.1429 C   0  0  0  0  0  0  0  0  0  0  0  0
    3.1713  -10.1816   17.6634 C   0  0  0  0  0  0  0  0  0  0  0  0
    2.7878   -8.3822   16.2137 C   0  0  0  0  0  0  0  0  0  0  0  0
    9.4601   -2.6590   25.6528 C   0  0  0  0  0  0  0  0  0  0  0  0
   10.1182   -1.5672   23.1165 C   0  0  0  0  0  0  0  0  0  0  0  0
    1.0552   -9.6360   17.0650 C   0  0  0  0  0  0  0  0  0  0  0  0
    3.6519   -9.1783   16.9039 C   0  0  0  0  0  0  0  0  0  0  0  0
    7.8675   -7.0096   15.9415 C   0  0  0  0  0  0  0  0  0  0  0  0
    5.9733   -9.6553   17.3832 N   0  0  0  0  0  0  0  0  0  0  0  0
   10.2411   -2.9363   23.4301 C   0  0  0  0  0  0  0  0  0  0  0  0
   10.7288   -3.8197   19.9525 C   0  0  0  0  0  0  0  0  0  0  0  0
   10.1189   -5.0054   19.6987 C   0  0  0  0  0  0  0  0  0  0  0  0
  1  3  4  0
  1  7  4  0
  2 21  4  0
  2 27  4  0
  3  9  4  0
  3 10  4  0
  4  8  4  0
  4 18  4  0
  4 25  1  0
  5  9  4  0
  5 12  4  0
  6 13  1  0
  6 27  1  0
  7 28  4  0
  8 11  4  0
  9 29  4  0
 10 12  4  0
 11 24  1  0
 11 26  4  0
 12 25  1  0
 13 28  1  0
 14 20  4  0
 14 23  4  0
 15 17  4  0
 15 21  4  0
 16 19  4  0
 16 23  4  0
 17 22  4  0
 18 26  4  0
 19 24  4  0
 20 24  4  0
 22 27  4  0
 28 29  4  0
M  END
$$$$

 Created by Python create_sdf_string function

 29 33  0  0  0  0  0  0  0  0999 V2000
   10.7215   -3.3326   17.6437 C   0  0  0  0  0  0  0  0  0  0  0  0
    9.9489   -3.4675   24.6487 N   0  0  0  0  0  0  0  0  0  0  0  0
   10.0172   -4.4740   17.4101 C   0  0  0  0  0  0  0  0  0  0  0  0
    6.9051   -7.9575   16.4222 C   0  0  0  0  0  0  0  0  0  0  0  0
    8.9969   -6.3552   17.9668 N   0  0  0  0  0  0  0  0  0  0  0  0
   10.6702   -3.9051   22.4070 C   0  0  0  0  0  0  0  0  0  0  0  0
   11.0625   -3.0028   18.8894 C   0  0  0  0  0  0  0  0  0  0  0  0
    5.6180   -7.9194   16.1754 O   0  0  0  0  0  0  0  0  0  0  0  0
    9.7259   -5.3080   18.4485 C   0  0  0  0  0  0  0  0  0  0  0  0
    9.4578   -5.0200   16.3036 N   0  0  0  0  0  0  0  0  0  0  0  0
    5.0287   -8.9365   16.8223 C   0  0  0  0  0  0  0  0  0  0  0  0
    8.7742   -6.1498   16.6764 C   0  0  0  0  0  0  0  0  0  0  0  0
   10.9418   -3.4032   21.2053 O   0  0  0  0  0  0  0  0  0  0  0  0
    1.4797   -8.6258   16.2950 C   0  0  0  0  0  0  0  0  0  0  0  0
    9.2861   -1.2743   25.3585 C   0  0  0  0  0  0  0  0  0  0  0  0
    1.8892  -10.3985   17.7511 N   0  0  0  0  0  0  0  0  0  0  0  0
    9.6210   -0.6952   24.0976 C   0  0  0  0  0  0  0  0  0  0  0  0
    7.0792   -9.0217   17.1429 C   0  0  0  0  0  0  0  0  0  0  0  0
    3.1713  -10.1816   17.6634 C   0  0  0  0  0  0  0  0  0  0  0  0
    2.7878   -8.3822   16.2137 C   0  0  0  0  0  0  0  0  0  0  0  0
    9.4601   -2.6590   25.6528 C   0  0  0  0  0  0  0  0  0  0  0  0
   10.1182   -1.5672   23.1165 C   0  0  0  0  0  0  0  0  0  0  0  0
    1.0552   -9.6360   17.0650 C   0  0  0  0  0  0  0  0  0  0  0  0
    3.6519   -9.1783   16.9039 C   0  0  0  0  0  0  0  0  0  0  0  0
    7.8675   -7.0096   15.9415 C   0  0  0  0  0  0  0  0  0  0  0  0
    5.9733   -9.6553   17.3832 N   0  0  0  0  0  0  0  0  0  0  0  0
   10.2411   -2.9363   23.4301 C   0  0  0  0  0  0  0  0  0  0  0  0
   10.7288   -3.8197   19.9525 C   0  0  0  0  0  0  0  0  0  0  0  0
   10.1189   -5.0054   19.6987 C   0  0  0  0  0  0  0  0  0  0  0  0
  1  3  4  0
  1  7  4  0
  2 21  4  0
  2 27  4  0
  3  9  4  0
  3 10  4  0
  4  8  4  0
  4 18  4  0
  4 25  1  0
  5  9  4  0
  5 12  4  0
  6 13  1  0
  6 27  1  0
  7 28  4  0
  8 11  4  0
  9 29  4  0
 10 12  4  0
 11 24  1  0
 11 26  4  0
 12 25  1  0
 13 28  1  0
 14 20  4  0
 14 23  4  0
 15 17  4  0
 15 21  4  0
 16 19  4  0
 16 23  4  0
 17 22  4  0
 18 26  4  0
 19 24  4  0
 20 24  4  0
 22 27  4  0
 28 29  4  0
M  END
$$$$

 Created by Python create_sdf_string function

 29 33  0  0  0  0  0  0  0  0999 V2000
   10.7215   -3.3326   17.6437 C   0  0  0  0  0  0  0  0  0  0  0  0
    9.9489   -3.4675   24.6487 N   0  0  0  0  0  0  0  0  0  0  0  0
   10.0172   -4.4740   17.4101 C   0  0  0  0  0  0  0  0  0  0  0  0
    6.9051   -7.9575   16.4222 C   0  0  0  0  0  0  0  0  0  0  0  0
    8.9969   -6.3552   17.9668 N   0  0  0  0  0  0  0  0  0  0  0  0
   10.6702   -3.9051   22.4070 C   0  0  0  0  0  0  0  0  0  0  0  0
   11.0625   -3.0028   18.8894 C   0  0  0  0  0  0  0  0  0  0  0  0
    5.6180   -7.9194   16.1754 O   0  0  0  0  0  0  0  0  0  0  0  0
    9.7259   -5.3080   18.4485 C   0  0  0  0  0  0  0  0  0  0  0  0
    9.4578   -5.0200   16.3036 N   0  0  0  0  0  0  0  0  0  0  0  0
    5.0287   -8.9365   16.8223 C   0  0  0  0  0  0  0  0  0  0  0  0
    8.7742   -6.1498   16.6764 C   0  0  0  0  0  0  0  0  0  0  0  0
   10.9418   -3.4032   21.2053 O   0  0  0  0  0  0  0  0  0  0  0  0
    1.4797   -8.6258   16.2950 C   0  0  0  0  0  0  0  0  0  0  0  0
    9.2861   -1.2743   25.3585 C   0  0  0  0  0  0  0  0  0  0  0  0
    1.8892  -10.3985   17.7511 N   0  0  0  0  0  0  0  0  0  0  0  0
    9.6210   -0.6952   24.0976 C   0  0  0  0  0  0  0  0  0  0  0  0
    7.0792   -9.0217   17.1429 C   0  0  0  0  0  0  0  0  0  0  0  0
    3.1713  -10.1816   17.6634 C   0  0  0  0  0  0  0  0  0  0  0  0
    2.7878   -8.3822   16.2137 C   0  0  0  0  0  0  0  0  0  0  0  0
    9.4601   -2.6590   25.6528 C   0  0  0  0  0  0  0  0  0  0  0  0
   10.1182   -1.5672   23.1165 C   0  0  0  0  0  0  0  0  0  0  0  0
    1.0552   -9.6360   17.0650 C   0  0  0  0  0  0  0  0  0  0  0  0
    3.6519   -9.1783   16.9039 C   0  0  0  0  0  0  0  0  0  0  0  0
    7.8675   -7.0096   15.9415 C   0  0  0  0  0  0  0  0  0  0  0  0
    5.9733   -9.6553   17.3832 N   0  0  0  0  0  0  0  0  0  0  0  0
   10.2411   -2.9363   23.4301 C   0  0  0  0  0  0  0  0  0  0  0  0
   10.7288   -3.8197   19.9525 C   0  0  0  0  0  0  0  0  0  0  0  0
   10.1189   -5.0054   19.6987 C   0  0  0  0  0  0  0  0  0  0  0  0
  1  3  4  0
  1  7  4  0
  2 21  4  0
  2 27  4  0
  3  9  4  0
  3 10  4  0
  4  8  4  0
  4 18  4  0
  4 25  1  0
  5  9  4  0
  5 12  4  0
  6 13  1  0
  6 27  1  0
  7 28  4  0
  8 11  4  0
  9 29  4  0
 10 12  4  0
 11 24  1  0
 11 26  4  0
 12 25  1  0
 13 28  1  0
 14 20  4  0
 14 23  4  0
 15 17  4  0
 15 21  4  0
 16 19  4  0
 16 23  4  0
 17 22  4  0
 18 26  4  0
 19 24  4  0
 20 24  4  0
 22 27  4  0
 28 29  4  0
M  END
$$$$

 Created by Python create_sdf_string function

 29 33  0  0  0  0  0  0  0  0999 V2000
   10.7215   -3.3326   17.6437 C   0  0  0  0  0  0  0  0  0  0  0  0
    9.9489   -3.4675   24.6487 N   0  0  0  0  0  0  0  0  0  0  0  0
   10.0172   -4.4740   17.4101 C   0  0  0  0  0  0  0  0  0  0  0  0
    6.9051   -7.9575   16.4222 C   0  0  0  0  0  0  0  0  0  0  0  0
    8.9969   -6.3552   17.9668 N   0  0  0  0  0  0  0  0  0  0  0  0
   10.6702   -3.9051   22.4070 C   0  0  0  0  0  0  0  0  0  0  0  0
   11.0625   -3.0028   18.8894 C   0  0  0  0  0  0  0  0  0  0  0  0
    5.6180   -7.9194   16.1754 O   0  0  0  0  0  0  0  0  0  0  0  0
    9.7259   -5.3080   18.4485 C   0  0  0  0  0  0  0  0  0  0  0  0
    9.4578   -5.0200   16.3036 N   0  0  0  0  0  0  0  0  0  0  0  0
    5.0287   -8.9365   16.8223 C   0  0  0  0  0  0  0  0  0  0  0  0
    8.7742   -6.1498   16.6764 C   0  0  0  0  0  0  0  0  0  0  0  0
   10.9418   -3.4032   21.2053 O   0  0  0  0  0  0  0  0  0  0  0  0
    1.4797   -8.6258   16.2950 C   0  0  0  0  0  0  0  0  0  0  0  0
    9.2861   -1.2743   25.3585 C   0  0  0  0  0  0  0  0  0  0  0  0
    1.8892  -10.3985   17.7511 N   0  0  0  0  0  0  0  0  0  0  0  0
    9.6210   -0.6952   24.0976 C   0  0  0  0  0  0  0  0  0  0  0  0
    7.0792   -9.0217   17.1429 C   0  0  0  0  0  0  0  0  0  0  0  0
    3.1713  -10.1816   17.6634 C   0  0  0  0  0  0  0  0  0  0  0  0
    2.7878   -8.3822   16.2137 C   0  0  0  0  0  0  0  0  0  0  0  0
    9.4601   -2.6590   25.6528 C   0  0  0  0  0  0  0  0  0  0  0  0
   10.1182   -1.5672   23.1165 C   0  0  0  0  0  0  0  0  0  0  0  0
    1.0552   -9.6360   17.0650 C   0  0  0  0  0  0  0  0  0  0  0  0
    3.6519   -9.1783   16.9039 C   0  0  0  0  0  0  0  0  0  0  0  0
    7.8675   -7.0096   15.9415 C   0  0  0  0  0  0  0  0  0  0  0  0
    5.9733   -9.6553   17.3832 N   0  0  0  0  0  0  0  0  0  0  0  0
   10.2411   -2.9363   23.4301 C   0  0  0  0  0  0  0  0  0  0  0  0
   10.7288   -3.8197   19.9525 C   0  0  0  0  0  0  0  0  0  0  0  0
   10.1189   -5.0054   19.6987 C   0  0  0  0  0  0  0  0  0  0  0  0
  1  3  4  0
  1  7  4  0
  2 21  4  0
  2 27  4  0
  3  9  4  0
  3 10  4  0
  4  8  4  0
  4 18  4  0
  4 25  1  0
  5  9  4  0
  5 12  4  0
  6 13  1  0
  6 27  1  0
  7 28  4  0
  8 11  4  0
  9 29  4  0
 10 12  4  0
 11 24  1  0
 11 26  4  0
 12 25  1  0
 13 28  1  0
 14 20  4  0
 14 23  4  0
 15 17  4  0
 15 21  4  0
 16 19  4  0
 16 23  4  0
 17 22  4  0
 18 26  4  0
 19 24  4  0
 20 24  4  0
 22 27  4  0
 28 29  4  0
M  END
$$$$

 Created by Python create_sdf_string function

 29 33  0  0  0  0  0  0  0  0999 V2000
   10.7215   -3.3326   17.6437 C   0  0  0  0  0  0  0  0  0  0  0  0
    9.9489   -3.4675   24.6487 N   0  0  0  0  0  0  0  0  0  0  0  0
   10.0172   -4.4740   17.4101 C   0  0  0  0  0  0  0  0  0  0  0  0
    6.9051   -7.9575   16.4222 C   0  0  0  0  0  0  0  0  0  0  0  0
    8.9969   -6.3552   17.9668 N   0  0  0  0  0  0  0  0  0  0  0  0
   10.6702   -3.9051   22.4070 C   0  0  0  0  0  0  0  0  0  0  0  0
   11.0625   -3.0028   18.8894 C   0  0  0  0  0  0  0  0  0  0  0  0
    5.6180   -7.9194   16.1754 O   0  0  0  0  0  0  0  0  0  0  0  0
    9.7259   -5.3080   18.4485 C   0  0  0  0  0  0  0  0  0  0  0  0
    9.4578   -5.0200   16.3036 N   0  0  0  0  0  0  0  0  0  0  0  0
    5.0287   -8.9365   16.8223 C   0  0  0  0  0  0  0  0  0  0  0  0
    8.7742   -6.1498   16.6764 C   0  0  0  0  0  0  0  0  0  0  0  0
   10.9418   -3.4032   21.2053 O   0  0  0  0  0  0  0  0  0  0  0  0
    1.4797   -8.6258   16.2950 C   0  0  0  0  0  0  0  0  0  0  0  0
    9.2861   -1.2743   25.3585 C   0  0  0  0  0  0  0  0  0  0  0  0
    1.8892  -10.3985   17.7511 N   0  0  0  0  0  0  0  0  0  0  0  0
    9.6210   -0.6952   24.0976 C   0  0  0  0  0  0  0  0  0  0  0  0
    7.0792   -9.0217   17.1429 C   0  0  0  0  0  0  0  0  0  0  0  0
    3.1713  -10.1816   17.6634 C   0  0  0  0  0  0  0  0  0  0  0  0
    2.7878   -8.3822   16.2137 C   0  0  0  0  0  0  0  0  0  0  0  0
    9.4601   -2.6590   25.6528 C   0  0  0  0  0  0  0  0  0  0  0  0
   10.1182   -1.5672   23.1165 C   0  0  0  0  0  0  0  0  0  0  0  0
    1.0552   -9.6360   17.0650 C   0  0  0  0  0  0  0  0  0  0  0  0
    3.6519   -9.1783   16.9039 C   0  0  0  0  0  0  0  0  0  0  0  0
    7.8675   -7.0096   15.9415 C   0  0  0  0  0  0  0  0  0  0  0  0
    5.9733   -9.6553   17.3832 N   0  0  0  0  0  0  0  0  0  0  0  0
   10.2411   -2.9363   23.4301 C   0  0  0  0  0  0  0  0  0  0  0  0
   10.7288   -3.8197   19.9525 C   0  0  0  0  0  0  0  0  0  0  0  0
   10.1189   -5.0054   19.6987 C   0  0  0  0  0  0  0  0  0  0  0  0
  1  3  4  0
  1  7  4  0
  2 21  4  0
  2 27  4  0
  3  9  4  0
  3 10  4  0
  4  8  4  0
  4 18  4  0
  4 25  1  0
  5  9  4  0
  5 12  4  0
  6 13  1  0
  6 27  1  0
  7 28  4  0
  8 11  4  0
  9 29  4  0
 10 12  4  0
 11 24  1  0
 11 26  4  0
 12 25  1  0
 13 28  1  0
 14 20  4  0
 14 23  4  0
 15 17  4  0
 15 21  4  0
 16 19  4  0
 16 23  4  0
 17 22  4  0
 18 26  4  0
 19 24  4  0
 20 24  4  0
 22 27  4  0
 28 29  4  0
M  END
$$$$

 Created by Python create_sdf_string function

 29 33  0  0  0  0  0  0  0  0999 V2000
   10.7215   -3.3326   17.6437 C   0  0  0  0  0  0  0  0  0  0  0  0
    9.9489   -3.4675   24.6487 N   0  0  0  0  0  0  0  0  0  0  0  0
   10.0172   -4.4740   17.4101 C   0  0  0  0  0  0  0  0  0  0  0  0
    6.9051   -7.9575   16.4222 C   0  0  0  0  0  0  0  0  0  0  0  0
    8.9969   -6.3552   17.9668 N   0  0  0  0  0  0  0  0  0  0  0  0
   10.6702   -3.9051   22.4070 C   0  0  0  0  0  0  0  0  0  0  0  0
   11.0625   -3.0028   18.8894 C   0  0  0  0  0  0  0  0  0  0  0  0
    5.6180   -7.9194   16.1754 O   0  0  0  0  0  0  0  0  0  0  0  0
    9.7259   -5.3080   18.4485 C   0  0  0  0  0  0  0  0  0  0  0  0
    9.4578   -5.0200   16.3036 N   0  0  0  0  0  0  0  0  0  0  0  0
    5.0287   -8.9365   16.8223 C   0  0  0  0  0  0  0  0  0  0  0  0
    8.7742   -6.1498   16.6764 C   0  0  0  0  0  0  0  0  0  0  0  0
   10.9418   -3.4032   21.2053 O   0  0  0  0  0  0  0  0  0  0  0  0
    1.4797   -8.6258   16.2950 C   0  0  0  0  0  0  0  0  0  0  0  0
    9.2861   -1.2743   25.3585 C   0  0  0  0  0  0  0  0  0  0  0  0
    1.8892  -10.3985   17.7511 N   0  0  0  0  0  0  0  0  0  0  0  0
    9.6210   -0.6952   24.0976 C   0  0  0  0  0  0  0  0  0  0  0  0
    7.0792   -9.0217   17.1429 C   0  0  0  0  0  0  0  0  0  0  0  0
    3.1713  -10.1816   17.6634 C   0  0  0  0  0  0  0  0  0  0  0  0
    2.7878   -8.3822   16.2137 C   0  0  0  0  0  0  0  0  0  0  0  0
    9.4601   -2.6590   25.6528 C   0  0  0  0  0  0  0  0  0  0  0  0
   10.1182   -1.5672   23.1165 C   0  0  0  0  0  0  0  0  0  0  0  0
    1.0552   -9.6360   17.0650 C   0  0  0  0  0  0  0  0  0  0  0  0
    3.6519   -9.1783   16.9039 C   0  0  0  0  0  0  0  0  0  0  0  0
    7.8675   -7.0096   15.9415 C   0  0  0  0  0  0  0  0  0  0  0  0
    5.9733   -9.6553   17.3832 N   0  0  0  0  0  0  0  0  0  0  0  0
   10.2411   -2.9363   23.4301 C   0  0  0  0  0  0  0  0  0  0  0  0
   10.7288   -3.8197   19.9525 C   0  0  0  0  0  0  0  0  0  0  0  0
   10.1189   -5.0054   19.6987 C   0  0  0  0  0  0  0  0  0  0  0  0
  1  3  4  0
  1  7  4  0
  2 21  4  0
  2 27  4  0
  3  9  4  0
  3 10  4  0
  4  8  4  0
  4 18  4  0
  4 25  1  0
  5  9  4  0
  5 12  4  0
  6 13  1  0
  6 27  1  0
  7 28  4  0
  8 11  4  0
  9 29  4  0
 10 12  4  0
 11 24  1  0
 11 26  4  0
 12 25  1  0
 13 28  1  0
 14 20  4  0
 14 23  4  0
 15 17  4  0
 15 21  4  0
 16 19  4  0
 16 23  4  0
 17 22  4  0
 18 26  4  0
 19 24  4  0
 20 24  4  0
 22 27  4  0
 28 29  4  0
M  END
$$$$

 Created by Python create_sdf_string function

 29 33  0  0  0  0  0  0  0  0999 V2000
   10.7215   -3.3326   17.6437 C   0  0  0  0  0  0  0  0  0  0  0  0
    9.9489   -3.4675   24.6487 N   0  0  0  0  0  0  0  0  0  0  0  0
   10.0172   -4.4740   17.4101 C   0  0  0  0  0  0  0  0  0  0  0  0
    6.9051   -7.9575   16.4222 C   0  0  0  0  0  0  0  0  0  0  0  0
    8.9969   -6.3552   17.9668 N   0  0  0  0  0  0  0  0  0  0  0  0
   10.6702   -3.9051   22.4070 C   0  0  0  0  0  0  0  0  0  0  0  0
   11.0625   -3.0028   18.8894 C   0  0  0  0  0  0  0  0  0  0  0  0
    5.6180   -7.9194   16.1754 O   0  0  0  0  0  0  0  0  0  0  0  0
    9.7259   -5.3080   18.4485 C   0  0  0  0  0  0  0  0  0  0  0  0
    9.4578   -5.0200   16.3036 N   0  0  0  0  0  0  0  0  0  0  0  0
    5.0287   -8.9365   16.8223 C   0  0  0  0  0  0  0  0  0  0  0  0
    8.7742   -6.1498   16.6764 C   0  0  0  0  0  0  0  0  0  0  0  0
   10.9418   -3.4032   21.2053 O   0  0  0  0  0  0  0  0  0  0  0  0
    1.4797   -8.6258   16.2950 C   0  0  0  0  0  0  0  0  0  0  0  0
    9.2861   -1.2743   25.3585 C   0  0  0  0  0  0  0  0  0  0  0  0
    1.8892  -10.3985   17.7511 N   0  0  0  0  0  0  0  0  0  0  0  0
    9.6210   -0.6952   24.0976 C   0  0  0  0  0  0  0  0  0  0  0  0
    7.0792   -9.0217   17.1429 C   0  0  0  0  0  0  0  0  0  0  0  0
    3.1713  -10.1816   17.6634 C   0  0  0  0  0  0  0  0  0  0  0  0
    2.7878   -8.3822   16.2137 C   0  0  0  0  0  0  0  0  0  0  0  0
    9.4601   -2.6590   25.6528 C   0  0  0  0  0  0  0  0  0  0  0  0
   10.1182   -1.5672   23.1165 C   0  0  0  0  0  0  0  0  0  0  0  0
    1.0552   -9.6360   17.0650 C   0  0  0  0  0  0  0  0  0  0  0  0
    3.6519   -9.1783   16.9039 C   0  0  0  0  0  0  0  0  0  0  0  0
    7.8675   -7.0096   15.9415 C   0  0  0  0  0  0  0  0  0  0  0  0
    5.9733   -9.6553   17.3832 N   0  0  0  0  0  0  0  0  0  0  0  0
   10.2411   -2.9363   23.4301 C   0  0  0  0  0  0  0  0  0  0  0  0
   10.7288   -3.8197   19.9525 C   0  0  0  0  0  0  0  0  0  0  0  0
   10.1189   -5.0054   19.6987 C   0  0  0  0  0  0  0  0  0  0  0  0
  1  3  4  0
  1  7  4  0
  2 21  4  0
  2 27  4  0
  3  9  4  0
  3 10  4  0
  4  8  4  0
  4 18  4  0
  4 25  1  0
  5  9  4  0
  5 12  4  0
  6 13  1  0
  6 27  1  0
  7 28  4  0
  8 11  4  0
  9 29  4  0
 10 12  4  0
 11 24  1  0
 11 26  4  0
 12 25  1  0
 13 28  1  0
 14 20  4  0
 14 23  4  0
 15 17  4  0
 15 21  4  0
 16 19  4  0
 16 23  4  0
 17 22  4  0
 18 26  4  0
 19 24  4  0
 20 24  4  0
 22 27  4  0
 28 29  4  0
M  END
$$$$

 Created by Python create_sdf_string function

 29 33  0  0  0  0  0  0  0  0999 V2000
   10.7215   -3.3326   17.6437 C   0  0  0  0  0  0  0  0  0  0  0  0
    9.9489   -3.4675   24.6487 N   0  0  0  0  0  0  0  0  0  0  0  0
   10.0172   -4.4740   17.4101 C   0  0  0  0  0  0  0  0  0  0  0  0
    6.9051   -7.9575   16.4222 C   0  0  0  0  0  0  0  0  0  0  0  0
    8.9969   -6.3552   17.9668 N   0  0  0  0  0  0  0  0  0  0  0  0
   10.6702   -3.9051   22.4070 C   0  0  0  0  0  0  0  0  0  0  0  0
   11.0625   -3.0028   18.8894 C   0  0  0  0  0  0  0  0  0  0  0  0
    5.6180   -7.9194   16.1754 O   0  0  0  0  0  0  0  0  0  0  0  0
    9.7259   -5.3080   18.4485 C   0  0  0  0  0  0  0  0  0  0  0  0
    9.4578   -5.0200   16.3036 N   0  0  0  0  0  0  0  0  0  0  0  0
    5.0287   -8.9365   16.8223 C   0  0  0  0  0  0  0  0  0  0  0  0
    8.7742   -6.1498   16.6764 C   0  0  0  0  0  0  0  0  0  0  0  0
   10.9418   -3.4032   21.2053 O   0  0  0  0  0  0  0  0  0  0  0  0
    1.4797   -8.6258   16.2950 C   0  0  0  0  0  0  0  0  0  0  0  0
    9.2861   -1.2743   25.3585 C   0  0  0  0  0  0  0  0  0  0  0  0
    1.8892  -10.3985   17.7511 N   0  0  0  0  0  0  0  0  0  0  0  0
    9.6210   -0.6952   24.0976 C   0  0  0  0  0  0  0  0  0  0  0  0
    7.0792   -9.0217   17.1429 C   0  0  0  0  0  0  0  0  0  0  0  0
    3.1713  -10.1816   17.6634 C   0  0  0  0  0  0  0  0  0  0  0  0
    2.7878   -8.3822   16.2137 C   0  0  0  0  0  0  0  0  0  0  0  0
    9.4601   -2.6590   25.6528 C   0  0  0  0  0  0  0  0  0  0  0  0
   10.1182   -1.5672   23.1165 C   0  0  0  0  0  0  0  0  0  0  0  0
    1.0552   -9.6360   17.0650 C   0  0  0  0  0  0  0  0  0  0  0  0
    3.6519   -9.1783   16.9039 C   0  0  0  0  0  0  0  0  0  0  0  0
    7.8675   -7.0096   15.9415 C   0  0  0  0  0  0  0  0  0  0  0  0
    5.9733   -9.6553   17.3832 N   0  0  0  0  0  0  0  0  0  0  0  0
   10.2411   -2.9363   23.4301 C   0  0  0  0  0  0  0  0  0  0  0  0
   10.7288   -3.8197   19.9525 C   0  0  0  0  0  0  0  0  0  0  0  0
   10.1189   -5.0054   19.6987 C   0  0  0  0  0  0  0  0  0  0  0  0
  1  3  4  0
  1  7  4  0
  2 21  4  0
  2 27  4  0
  3  9  4  0
  3 10  4  0
  4  8  4  0
  4 18  4  0
  4 25  1  0
  5  9  4  0
  5 12  4  0
  6 13  1  0
  6 27  1  0
  7 28  4  0
  8 11  4  0
  9 29  4  0
 10 12  4  0
 11 24  1  0
 11 26  4  0
 12 25  1  0
 13 28  1  0
 14 20  4  0
 14 23  4  0
 15 17  4  0
 15 21  4  0
 16 19  4  0
 16 23  4  0
 17 22  4  0
 18 26  4  0
 19 24  4  0
 20 24  4  0
 22 27  4  0
 28 29  4  0
M  END
$$$$

 Created by Python create_sdf_string function

 29 33  0  0  0  0  0  0  0  0999 V2000
   10.7215   -3.3326   17.6437 C   0  0  0  0  0  0  0  0  0  0  0  0
    9.9489   -3.4675   24.6487 N   0  0  0  0  0  0  0  0  0  0  0  0
   10.0172   -4.4740   17.4101 C   0  0  0  0  0  0  0  0  0  0  0  0
    6.9051   -7.9575   16.4222 C   0  0  0  0  0  0  0  0  0  0  0  0
    8.9969   -6.3552   17.9668 N   0  0  0  0  0  0  0  0  0  0  0  0
   10.6702   -3.9051   22.4070 C   0  0  0  0  0  0  0  0  0  0  0  0
   11.0625   -3.0028   18.8894 C   0  0  0  0  0  0  0  0  0  0  0  0
    5.6180   -7.9194   16.1754 O   0  0  0  0  0  0  0  0  0  0  0  0
    9.7259   -5.3080   18.4485 C   0  0  0  0  0  0  0  0  0  0  0  0
    9.4578   -5.0200   16.3036 N   0  0  0  0  0  0  0  0  0  0  0  0
    5.0287   -8.9365   16.8223 C   0  0  0  0  0  0  0  0  0  0  0  0
    8.7742   -6.1498   16.6764 C   0  0  0  0  0  0  0  0  0  0  0  0
   10.9418   -3.4032   21.2053 O   0  0  0  0  0  0  0  0  0  0  0  0
    1.4797   -8.6258   16.2950 C   0  0  0  0  0  0  0  0  0  0  0  0
    9.2861   -1.2743   25.3585 C   0  0  0  0  0  0  0  0  0  0  0  0
    1.8892  -10.3985   17.7511 N   0  0  0  0  0  0  0  0  0  0  0  0
    9.6210   -0.6952   24.0976 C   0  0  0  0  0  0  0  0  0  0  0  0
    7.0792   -9.0217   17.1429 C   0  0  0  0  0  0  0  0  0  0  0  0
    3.1713  -10.1816   17.6634 C   0  0  0  0  0  0  0  0  0  0  0  0
    2.7878   -8.3822   16.2137 C   0  0  0  0  0  0  0  0  0  0  0  0
    9.4601   -2.6590   25.6528 C   0  0  0  0  0  0  0  0  0  0  0  0
   10.1182   -1.5672   23.1165 C   0  0  0  0  0  0  0  0  0  0  0  0
    1.0552   -9.6360   17.0650 C   0  0  0  0  0  0  0  0  0  0  0  0
    3.6519   -9.1783   16.9039 C   0  0  0  0  0  0  0  0  0  0  0  0
    7.8675   -7.0096   15.9415 C   0  0  0  0  0  0  0  0  0  0  0  0
    5.9733   -9.6553   17.3832 N   0  0  0  0  0  0  0  0  0  0  0  0
   10.2411   -2.9363   23.4301 C   0  0  0  0  0  0  0  0  0  0  0  0
   10.7288   -3.8197   19.9525 C   0  0  0  0  0  0  0  0  0  0  0  0
   10.1189   -5.0054   19.6987 C   0  0  0  0  0  0  0  0  0  0  0  0
  1  3  4  0
  1  7  4  0
  2 21  4  0
  2 27  4  0
  3  9  4  0
  3 10  4  0
  4  8  4  0
  4 18  4  0
  4 25  1  0
  5  9  4  0
  5 12  4  0
  6 13  1  0
  6 27  1  0
  7 28  4  0
  8 11  4  0
  9 29  4  0
 10 12  4  0
 11 24  1  0
 11 26  4  0
 12 25  1  0
 13 28  1  0
 14 20  4  0
 14 23  4  0
 15 17  4  0
 15 21  4  0
 16 19  4  0
 16 23  4  0
 17 22  4  0
 18 26  4  0
 19 24  4  0
 20 24  4  0
 22 27  4  0
 28 29  4  0
M  END
$$$$

 Created by Python create_sdf_string function

 29 33  0  0  0  0  0  0  0  0999 V2000
   10.7215   -3.3326   17.6437 C   0  0  0  0  0  0  0  0  0  0  0  0
    9.9489   -3.4675   24.6487 N   0  0  0  0  0  0  0  0  0  0  0  0
   10.0172   -4.4740   17.4101 C   0  0  0  0  0  0  0  0  0  0  0  0
    6.9051   -7.9575   16.4222 C   0  0  0  0  0  0  0  0  0  0  0  0
    8.9969   -6.3552   17.9668 N   0  0  0  0  0  0  0  0  0  0  0  0
   10.6702   -3.9051   22.4070 C   0  0  0  0  0  0  0  0  0  0  0  0
   11.0625   -3.0028   18.8894 C   0  0  0  0  0  0  0  0  0  0  0  0
    5.6180   -7.9194   16.1754 O   0  0  0  0  0  0  0  0  0  0  0  0
    9.7259   -5.3080   18.4485 C   0  0  0  0  0  0  0  0  0  0  0  0
    9.4578   -5.0200   16.3036 N   0  0  0  0  0  0  0  0  0  0  0  0
    5.0287   -8.9365   16.8223 C   0  0  0  0  0  0  0  0  0  0  0  0
    8.7742   -6.1498   16.6764 C   0  0  0  0  0  0  0  0  0  0  0  0
   10.9418   -3.4032   21.2053 O   0  0  0  0  0  0  0  0  0  0  0  0
    1.4797   -8.6258   16.2950 C   0  0  0  0  0  0  0  0  0  0  0  0
    9.2861   -1.2743   25.3585 C   0  0  0  0  0  0  0  0  0  0  0  0
    1.8892  -10.3985   17.7511 N   0  0  0  0  0  0  0  0  0  0  0  0
    9.6210   -0.6952   24.0976 C   0  0  0  0  0  0  0  0  0  0  0  0
    7.0792   -9.0217   17.1429 C   0  0  0  0  0  0  0  0  0  0  0  0
    3.1713  -10.1816   17.6634 C   0  0  0  0  0  0  0  0  0  0  0  0
    2.7878   -8.3822   16.2137 C   0  0  0  0  0  0  0  0  0  0  0  0
    9.4601   -2.6590   25.6528 C   0  0  0  0  0  0  0  0  0  0  0  0
   10.1182   -1.5672   23.1165 C   0  0  0  0  0  0  0  0  0  0  0  0
    1.0552   -9.6360   17.0650 C   0  0  0  0  0  0  0  0  0  0  0  0
    3.6519   -9.1783   16.9039 C   0  0  0  0  0  0  0  0  0  0  0  0
    7.8675   -7.0096   15.9415 C   0  0  0  0  0  0  0  0  0  0  0  0
    5.9733   -9.6553   17.3832 N   0  0  0  0  0  0  0  0  0  0  0  0
   10.2411   -2.9363   23.4301 C   0  0  0  0  0  0  0  0  0  0  0  0
   10.7288   -3.8197   19.9525 C   0  0  0  0  0  0  0  0  0  0  0  0
   10.1189   -5.0054   19.6987 C   0  0  0  0  0  0  0  0  0  0  0  0
  1  3  4  0
  1  7  4  0
  2 21  4  0
  2 27  4  0
  3  9  4  0
  3 10  4  0
  4  8  4  0
  4 18  4  0
  4 25  1  0
  5  9  4  0
  5 12  4  0
  6 13  1  0
  6 27  1  0
  7 28  4  0
  8 11  4  0
  9 29  4  0
 10 12  4  0
 11 24  1  0
 11 26  4  0
 12 25  1  0
 13 28  1  0
 14 20  4  0
 14 23  4  0
 15 17  4  0
 15 21  4  0
 16 19  4  0
 16 23  4  0
 17 22  4  0
 18 26  4  0
 19 24  4  0
 20 24  4  0
 22 27  4  0
 28 29  4  0
M  END
$$$$

 Created by Python create_sdf_string function

 29 33  0  0  0  0  0  0  0  0999 V2000
   10.7215   -3.3326   17.6437 C   0  0  0  0  0  0  0  0  0  0  0  0
    9.9489   -3.4675   24.6487 N   0  0  0  0  0  0  0  0  0  0  0  0
   10.0172   -4.4740   17.4101 C   0  0  0  0  0  0  0  0  0  0  0  0
    6.9051   -7.9575   16.4222 C   0  0  0  0  0  0  0  0  0  0  0  0
    8.9969   -6.3552   17.9668 N   0  0  0  0  0  0  0  0  0  0  0  0
   10.6702   -3.9051   22.4070 C   0  0  0  0  0  0  0  0  0  0  0  0
   11.0625   -3.0028   18.8894 C   0  0  0  0  0  0  0  0  0  0  0  0
    5.6180   -7.9194   16.1754 O   0  0  0  0  0  0  0  0  0  0  0  0
    9.7259   -5.3080   18.4485 C   0  0  0  0  0  0  0  0  0  0  0  0
    9.4578   -5.0200   16.3036 N   0  0  0  0  0  0  0  0  0  0  0  0
    5.0287   -8.9365   16.8223 C   0  0  0  0  0  0  0  0  0  0  0  0
    8.7742   -6.1498   16.6764 C   0  0  0  0  0  0  0  0  0  0  0  0
   10.9418   -3.4032   21.2053 O   0  0  0  0  0  0  0  0  0  0  0  0
    1.4797   -8.6258   16.2950 C   0  0  0  0  0  0  0  0  0  0  0  0
    9.2861   -1.2743   25.3585 C   0  0  0  0  0  0  0  0  0  0  0  0
    1.8892  -10.3985   17.7511 N   0  0  0  0  0  0  0  0  0  0  0  0
    9.6210   -0.6952   24.0976 C   0  0  0  0  0  0  0  0  0  0  0  0
    7.0792   -9.0217   17.1429 C   0  0  0  0  0  0  0  0  0  0  0  0
    3.1713  -10.1816   17.6634 C   0  0  0  0  0  0  0  0  0  0  0  0
    2.7878   -8.3822   16.2137 C   0  0  0  0  0  0  0  0  0  0  0  0
    9.4601   -2.6590   25.6528 C   0  0  0  0  0  0  0  0  0  0  0  0
   10.1182   -1.5672   23.1165 C   0  0  0  0  0  0  0  0  0  0  0  0
    1.0552   -9.6360   17.0650 C   0  0  0  0  0  0  0  0  0  0  0  0
    3.6519   -9.1783   16.9039 C   0  0  0  0  0  0  0  0  0  0  0  0
    7.8675   -7.0096   15.9415 C   0  0  0  0  0  0  0  0  0  0  0  0
    5.9733   -9.6553   17.3832 N   0  0  0  0  0  0  0  0  0  0  0  0
   10.2411   -2.9363   23.4301 C   0  0  0  0  0  0  0  0  0  0  0  0
   10.7288   -3.8197   19.9525 C   0  0  0  0  0  0  0  0  0  0  0  0
   10.1189   -5.0054   19.6987 C   0  0  0  0  0  0  0  0  0  0  0  0
  1  3  4  0
  1  7  4  0
  2 21  4  0
  2 27  4  0
  3  9  4  0
  3 10  4  0
  4  8  4  0
  4 18  4  0
  4 25  1  0
  5  9  4  0
  5 12  4  0
  6 13  1  0
  6 27  1  0
  7 28  4  0
  8 11  4  0
  9 29  4  0
 10 12  4  0
 11 24  1  0
 11 26  4  0
 12 25  1  0
 13 28  1  0
 14 20  4  0
 14 23  4  0
 15 17  4  0
 15 21  4  0
 16 19  4  0
 16 23  4  0
 17 22  4  0
 18 26  4  0
 19 24  4  0
 20 24  4  0
 22 27  4  0
 28 29  4  0
M  END
$$$$

 Created by Python create_sdf_string function

 29 33  0  0  0  0  0  0  0  0999 V2000
   10.7215   -3.3326   17.6437 C   0  0  0  0  0  0  0  0  0  0  0  0
    9.9489   -3.4675   24.6487 N   0  0  0  0  0  0  0  0  0  0  0  0
   10.0172   -4.4740   17.4101 C   0  0  0  0  0  0  0  0  0  0  0  0
    6.9051   -7.9575   16.4222 C   0  0  0  0  0  0  0  0  0  0  0  0
    8.9969   -6.3552   17.9668 N   0  0  0  0  0  0  0  0  0  0  0  0
   10.6702   -3.9051   22.4070 C   0  0  0  0  0  0  0  0  0  0  0  0
   11.0625   -3.0028   18.8894 C   0  0  0  0  0  0  0  0  0  0  0  0
    5.6180   -7.9194   16.1754 O   0  0  0  0  0  0  0  0  0  0  0  0
    9.7259   -5.3080   18.4485 C   0  0  0  0  0  0  0  0  0  0  0  0
    9.4578   -5.0200   16.3036 N   0  0  0  0  0  0  0  0  0  0  0  0
    5.0287   -8.9365   16.8223 C   0  0  0  0  0  0  0  0  0  0  0  0
    8.7742   -6.1498   16.6764 C   0  0  0  0  0  0  0  0  0  0  0  0
   10.9418   -3.4032   21.2053 O   0  0  0  0  0  0  0  0  0  0  0  0
    1.4797   -8.6258   16.2950 C   0  0  0  0  0  0  0  0  0  0  0  0
    9.2861   -1.2743   25.3585 C   0  0  0  0  0  0  0  0  0  0  0  0
    1.8892  -10.3985   17.7511 N   0  0  0  0  0  0  0  0  0  0  0  0
    9.6210   -0.6952   24.0976 C   0  0  0  0  0  0  0  0  0  0  0  0
    7.0792   -9.0217   17.1429 C   0  0  0  0  0  0  0  0  0  0  0  0
    3.1713  -10.1816   17.6634 C   0  0  0  0  0  0  0  0  0  0  0  0
    2.7878   -8.3822   16.2137 C   0  0  0  0  0  0  0  0  0  0  0  0
    9.4601   -2.6590   25.6528 C   0  0  0  0  0  0  0  0  0  0  0  0
   10.1182   -1.5672   23.1165 C   0  0  0  0  0  0  0  0  0  0  0  0
    1.0552   -9.6360   17.0650 C   0  0  0  0  0  0  0  0  0  0  0  0
    3.6519   -9.1783   16.9039 C   0  0  0  0  0  0  0  0  0  0  0  0
    7.8675   -7.0096   15.9415 C   0  0  0  0  0  0  0  0  0  0  0  0
    5.9733   -9.6553   17.3832 N   0  0  0  0  0  0  0  0  0  0  0  0
   10.2411   -2.9363   23.4301 C   0  0  0  0  0  0  0  0  0  0  0  0
   10.7288   -3.8197   19.9525 C   0  0  0  0  0  0  0  0  0  0  0  0
   10.1189   -5.0054   19.6987 C   0  0  0  0  0  0  0  0  0  0  0  0
  1  3  4  0
  1  7  4  0
  2 21  4  0
  2 27  4  0
  3  9  4  0
  3 10  4  0
  4  8  4  0
  4 18  4  0
  4 25  1  0
  5  9  4  0
  5 12  4  0
  6 13  1  0
  6 27  1  0
  7 28  4  0
  8 11  4  0
  9 29  4  0
 10 12  4  0
 11 24  1  0
 11 26  4  0
 12 25  1  0
 13 28  1  0
 14 20  4  0
 14 23  4  0
 15 17  4  0
 15 21  4  0
 16 19  4  0
 16 23  4  0
 17 22  4  0
 18 26  4  0
 19 24  4  0
 20 24  4  0
 22 27  4  0
 28 29  4  0
M  END
$$$$

 Created by Python create_sdf_string function

 29 33  0  0  0  0  0  0  0  0999 V2000
   10.7215   -3.3326   17.6437 C   0  0  0  0  0  0  0  0  0  0  0  0
    9.9489   -3.4675   24.6487 N   0  0  0  0  0  0  0  0  0  0  0  0
   10.0172   -4.4740   17.4101 C   0  0  0  0  0  0  0  0  0  0  0  0
    6.9051   -7.9575   16.4222 C   0  0  0  0  0  0  0  0  0  0  0  0
    8.9969   -6.3552   17.9668 N   0  0  0  0  0  0  0  0  0  0  0  0
   10.6702   -3.9051   22.4070 C   0  0  0  0  0  0  0  0  0  0  0  0
   11.0625   -3.0028   18.8894 C   0  0  0  0  0  0  0  0  0  0  0  0
    5.6180   -7.9194   16.1754 O   0  0  0  0  0  0  0  0  0  0  0  0
    9.7259   -5.3080   18.4485 C   0  0  0  0  0  0  0  0  0  0  0  0
    9.4578   -5.0200   16.3036 N   0  0  0  0  0  0  0  0  0  0  0  0
    5.0287   -8.9365   16.8223 C   0  0  0  0  0  0  0  0  0  0  0  0
    8.7742   -6.1498   16.6764 C   0  0  0  0  0  0  0  0  0  0  0  0
   10.9418   -3.4032   21.2053 O   0  0  0  0  0  0  0  0  0  0  0  0
    1.4797   -8.6258   16.2950 C   0  0  0  0  0  0  0  0  0  0  0  0
    9.2861   -1.2743   25.3585 C   0  0  0  0  0  0  0  0  0  0  0  0
    1.8892  -10.3985   17.7511 N   0  0  0  0  0  0  0  0  0  0  0  0
    9.6210   -0.6952   24.0976 C   0  0  0  0  0  0  0  0  0  0  0  0
    7.0792   -9.0217   17.1429 C   0  0  0  0  0  0  0  0  0  0  0  0
    3.1713  -10.1816   17.6634 C   0  0  0  0  0  0  0  0  0  0  0  0
    2.7878   -8.3822   16.2137 C   0  0  0  0  0  0  0  0  0  0  0  0
    9.4601   -2.6590   25.6528 C   0  0  0  0  0  0  0  0  0  0  0  0
   10.1182   -1.5672   23.1165 C   0  0  0  0  0  0  0  0  0  0  0  0
    1.0552   -9.6360   17.0650 C   0  0  0  0  0  0  0  0  0  0  0  0
    3.6519   -9.1783   16.9039 C   0  0  0  0  0  0  0  0  0  0  0  0
    7.8675   -7.0096   15.9415 C   0  0  0  0  0  0  0  0  0  0  0  0
    5.9733   -9.6553   17.3832 N   0  0  0  0  0  0  0  0  0  0  0  0
   10.2411   -2.9363   23.4301 C   0  0  0  0  0  0  0  0  0  0  0  0
   10.7288   -3.8197   19.9525 C   0  0  0  0  0  0  0  0  0  0  0  0
   10.1189   -5.0054   19.6987 C   0  0  0  0  0  0  0  0  0  0  0  0
  1  3  4  0
  1  7  4  0
  2 21  4  0
  2 27  4  0
  3  9  4  0
  3 10  4  0
  4  8  4  0
  4 18  4  0
  4 25  1  0
  5  9  4  0
  5 12  4  0
  6 13  1  0
  6 27  1  0
  7 28  4  0
  8 11  4  0
  9 29  4  0
 10 12  4  0
 11 24  1  0
 11 26  4  0
 12 25  1  0
 13 28  1  0
 14 20  4  0
 14 23  4  0
 15 17  4  0
 15 21  4  0
 16 19  4  0
 16 23  4  0
 17 22  4  0
 18 26  4  0
 19 24  4  0
 20 24  4  0
 22 27  4  0
 28 29  4  0
M  END
$$$$

 Created by Python create_sdf_string function

 29 33  0  0  0  0  0  0  0  0999 V2000
   10.7215   -3.3326   17.6437 C   0  0  0  0  0  0  0  0  0  0  0  0
    9.9489   -3.4675   24.6487 N   0  0  0  0  0  0  0  0  0  0  0  0
   10.0172   -4.4740   17.4101 C   0  0  0  0  0  0  0  0  0  0  0  0
    6.9051   -7.9575   16.4222 C   0  0  0  0  0  0  0  0  0  0  0  0
    8.9969   -6.3552   17.9668 N   0  0  0  0  0  0  0  0  0  0  0  0
   10.6702   -3.9051   22.4070 C   0  0  0  0  0  0  0  0  0  0  0  0
   11.0625   -3.0028   18.8894 C   0  0  0  0  0  0  0  0  0  0  0  0
    5.6180   -7.9194   16.1754 O   0  0  0  0  0  0  0  0  0  0  0  0
    9.7259   -5.3080   18.4485 C   0  0  0  0  0  0  0  0  0  0  0  0
    9.4578   -5.0200   16.3036 N   0  0  0  0  0  0  0  0  0  0  0  0
    5.0287   -8.9365   16.8223 C   0  0  0  0  0  0  0  0  0  0  0  0
    8.7742   -6.1498   16.6764 C   0  0  0  0  0  0  0  0  0  0  0  0
   10.9418   -3.4032   21.2053 O   0  0  0  0  0  0  0  0  0  0  0  0
    1.4797   -8.6258   16.2950 C   0  0  0  0  0  0  0  0  0  0  0  0
    9.2861   -1.2743   25.3585 C   0  0  0  0  0  0  0  0  0  0  0  0
    1.8892  -10.3985   17.7511 N   0  0  0  0  0  0  0  0  0  0  0  0
    9.6210   -0.6952   24.0976 C   0  0  0  0  0  0  0  0  0  0  0  0
    7.0792   -9.0217   17.1429 C   0  0  0  0  0  0  0  0  0  0  0  0
    3.1713  -10.1816   17.6634 C   0  0  0  0  0  0  0  0  0  0  0  0
    2.7878   -8.3822   16.2137 C   0  0  0  0  0  0  0  0  0  0  0  0
    9.4601   -2.6590   25.6528 C   0  0  0  0  0  0  0  0  0  0  0  0
   10.1182   -1.5672   23.1165 C   0  0  0  0  0  0  0  0  0  0  0  0
    1.0552   -9.6360   17.0650 C   0  0  0  0  0  0  0  0  0  0  0  0
    3.6519   -9.1783   16.9039 C   0  0  0  0  0  0  0  0  0  0  0  0
    7.8675   -7.0096   15.9415 C   0  0  0  0  0  0  0  0  0  0  0  0
    5.9733   -9.6553   17.3832 N   0  0  0  0  0  0  0  0  0  0  0  0
   10.2411   -2.9363   23.4301 C   0  0  0  0  0  0  0  0  0  0  0  0
   10.7288   -3.8197   19.9525 C   0  0  0  0  0  0  0  0  0  0  0  0
   10.1189   -5.0054   19.6987 C   0  0  0  0  0  0  0  0  0  0  0  0
  1  3  4  0
  1  7  4  0
  2 21  4  0
  2 27  4  0
  3  9  4  0
  3 10  4  0
  4  8  4  0
  4 18  4  0
  4 25  1  0
  5  9  4  0
  5 12  4  0
  6 13  1  0
  6 27  1  0
  7 28  4  0
  8 11  4  0
  9 29  4  0
 10 12  4  0
 11 24  1  0
 11 26  4  0
 12 25  1  0
 13 28  1  0
 14 20  4  0
 14 23  4  0
 15 17  4  0
 15 21  4  0
 16 19  4  0
 16 23  4  0
 17 22  4  0
 18 26  4  0
 19 24  4  0
 20 24  4  0
 22 27  4  0
 28 29  4  0
M  END
$$$$

 Created by Python create_sdf_string function

 29 33  0  0  0  0  0  0  0  0999 V2000
   10.7215   -3.3326   17.6437 C   0  0  0  0  0  0  0  0  0  0  0  0
    9.9489   -3.4675   24.6487 N   0  0  0  0  0  0  0  0  0  0  0  0
   10.0172   -4.4740   17.4101 C   0  0  0  0  0  0  0  0  0  0  0  0
    6.9051   -7.9575   16.4222 C   0  0  0  0  0  0  0  0  0  0  0  0
    8.9969   -6.3552   17.9668 N   0  0  0  0  0  0  0  0  0  0  0  0
   10.6702   -3.9051   22.4070 C   0  0  0  0  0  0  0  0  0  0  0  0
   11.0625   -3.0028   18.8894 C   0  0  0  0  0  0  0  0  0  0  0  0
    5.6180   -7.9194   16.1754 O   0  0  0  0  0  0  0  0  0  0  0  0
    9.7259   -5.3080   18.4485 C   0  0  0  0  0  0  0  0  0  0  0  0
    9.4578   -5.0200   16.3036 N   0  0  0  0  0  0  0  0  0  0  0  0
    5.0287   -8.9365   16.8223 C   0  0  0  0  0  0  0  0  0  0  0  0
    8.7742   -6.1498   16.6764 C   0  0  0  0  0  0  0  0  0  0  0  0
   10.9418   -3.4032   21.2053 O   0  0  0  0  0  0  0  0  0  0  0  0
    1.4797   -8.6258   16.2950 C   0  0  0  0  0  0  0  0  0  0  0  0
    9.2861   -1.2743   25.3585 C   0  0  0  0  0  0  0  0  0  0  0  0
    1.8892  -10.3985   17.7511 N   0  0  0  0  0  0  0  0  0  0  0  0
    9.6210   -0.6952   24.0976 C   0  0  0  0  0  0  0  0  0  0  0  0
    7.0792   -9.0217   17.1429 C   0  0  0  0  0  0  0  0  0  0  0  0
    3.1713  -10.1816   17.6634 C   0  0  0  0  0  0  0  0  0  0  0  0
    2.7878   -8.3822   16.2137 C   0  0  0  0  0  0  0  0  0  0  0  0
    9.4601   -2.6590   25.6528 C   0  0  0  0  0  0  0  0  0  0  0  0
   10.1182   -1.5672   23.1165 C   0  0  0  0  0  0  0  0  0  0  0  0
    1.0552   -9.6360   17.0650 C   0  0  0  0  0  0  0  0  0  0  0  0
    3.6519   -9.1783   16.9039 C   0  0  0  0  0  0  0  0  0  0  0  0
    7.8675   -7.0096   15.9415 C   0  0  0  0  0  0  0  0  0  0  0  0
    5.9733   -9.6553   17.3832 N   0  0  0  0  0  0  0  0  0  0  0  0
   10.2411   -2.9363   23.4301 C   0  0  0  0  0  0  0  0  0  0  0  0
   10.7288   -3.8197   19.9525 C   0  0  0  0  0  0  0  0  0  0  0  0
   10.1189   -5.0054   19.6987 C   0  0  0  0  0  0  0  0  0  0  0  0
  1  3  4  0
  1  7  4  0
  2 21  4  0
  2 27  4  0
  3  9  4  0
  3 10  4  0
  4  8  4  0
  4 18  4  0
  4 25  1  0
  5  9  4  0
  5 12  4  0
  6 13  1  0
  6 27  1  0
  7 28  4  0
  8 11  4  0
  9 29  4  0
 10 12  4  0
 11 24  1  0
 11 26  4  0
 12 25  1  0
 13 28  1  0
 14 20  4  0
 14 23  4  0
 15 17  4  0
 15 21  4  0
 16 19  4  0
 16 23  4  0
 17 22  4  0
 18 26  4  0
 19 24  4  0
 20 24  4  0
 22 27  4  0
 28 29  4  0
M  END
$$$$

 Created by Python create_sdf_string function

 29 33  0  0  0  0  0  0  0  0999 V2000
   10.7215   -3.3326   17.6437 C   0  0  0  0  0  0  0  0  0  0  0  0
    9.9489   -3.4675   24.6487 N   0  0  0  0  0  0  0  0  0  0  0  0
   10.0172   -4.4740   17.4101 C   0  0  0  0  0  0  0  0  0  0  0  0
    6.9051   -7.9575   16.4222 C   0  0  0  0  0  0  0  0  0  0  0  0
    8.9969   -6.3552   17.9668 N   0  0  0  0  0  0  0  0  0  0  0  0
   10.6702   -3.9051   22.4070 C   0  0  0  0  0  0  0  0  0  0  0  0
   11.0625   -3.0028   18.8894 C   0  0  0  0  0  0  0  0  0  0  0  0
    5.6180   -7.9194   16.1754 O   0  0  0  0  0  0  0  0  0  0  0  0
    9.7259   -5.3080   18.4485 C   0  0  0  0  0  0  0  0  0  0  0  0
    9.4578   -5.0200   16.3036 N   0  0  0  0  0  0  0  0  0  0  0  0
    5.0287   -8.9365   16.8223 C   0  0  0  0  0  0  0  0  0  0  0  0
    8.7742   -6.1498   16.6764 C   0  0  0  0  0  0  0  0  0  0  0  0
   10.9418   -3.4032   21.2053 O   0  0  0  0  0  0  0  0  0  0  0  0
    1.4797   -8.6258   16.2950 C   0  0  0  0  0  0  0  0  0  0  0  0
    9.2861   -1.2743   25.3585 C   0  0  0  0  0  0  0  0  0  0  0  0
    1.8892  -10.3985   17.7511 N   0  0  0  0  0  0  0  0  0  0  0  0
    9.6210   -0.6952   24.0976 C   0  0  0  0  0  0  0  0  0  0  0  0
    7.0792   -9.0217   17.1429 C   0  0  0  0  0  0  0  0  0  0  0  0
    3.1713  -10.1816   17.6634 C   0  0  0  0  0  0  0  0  0  0  0  0
    2.7878   -8.3822   16.2137 C   0  0  0  0  0  0  0  0  0  0  0  0
    9.4601   -2.6590   25.6528 C   0  0  0  0  0  0  0  0  0  0  0  0
   10.1182   -1.5672   23.1165 C   0  0  0  0  0  0  0  0  0  0  0  0
    1.0552   -9.6360   17.0650 C   0  0  0  0  0  0  0  0  0  0  0  0
    3.6519   -9.1783   16.9039 C   0  0  0  0  0  0  0  0  0  0  0  0
    7.8675   -7.0096   15.9415 C   0  0  0  0  0  0  0  0  0  0  0  0
    5.9733   -9.6553   17.3832 N   0  0  0  0  0  0  0  0  0  0  0  0
   10.2411   -2.9363   23.4301 C   0  0  0  0  0  0  0  0  0  0  0  0
   10.7288   -3.8197   19.9525 C   0  0  0  0  0  0  0  0  0  0  0  0
   10.1189   -5.0054   19.6987 C   0  0  0  0  0  0  0  0  0  0  0  0
  1  3  4  0
  1  7  4  0
  2 21  4  0
  2 27  4  0
  3  9  4  0
  3 10  4  0
  4  8  4  0
  4 18  4  0
  4 25  1  0
  5  9  4  0
  5 12  4  0
  6 13  1  0
  6 27  1  0
  7 28  4  0
  8 11  4  0
  9 29  4  0
 10 12  4  0
 11 24  1  0
 11 26  4  0
 12 25  1  0
 13 28  1  0
 14 20  4  0
 14 23  4  0
 15 17  4  0
 15 21  4  0
 16 19  4  0
 16 23  4  0
 17 22  4  0
 18 26  4  0
 19 24  4  0
 20 24  4  0
 22 27  4  0
 28 29  4  0
M  END
$$$$

 Created by Python create_sdf_string function

 29 33  0  0  0  0  0  0  0  0999 V2000
   10.7215   -3.3326   17.6437 C   0  0  0  0  0  0  0  0  0  0  0  0
    9.9489   -3.4675   24.6487 N   0  0  0  0  0  0  0  0  0  0  0  0
   10.0172   -4.4740   17.4101 C   0  0  0  0  0  0  0  0  0  0  0  0
    6.9051   -7.9575   16.4222 C   0  0  0  0  0  0  0  0  0  0  0  0
    8.9969   -6.3552   17.9668 N   0  0  0  0  0  0  0  0  0  0  0  0
   10.6702   -3.9051   22.4070 C   0  0  0  0  0  0  0  0  0  0  0  0
   11.0625   -3.0028   18.8894 C   0  0  0  0  0  0  0  0  0  0  0  0
    5.6180   -7.9194   16.1754 O   0  0  0  0  0  0  0  0  0  0  0  0
    9.7259   -5.3080   18.4485 C   0  0  0  0  0  0  0  0  0  0  0  0
    9.4578   -5.0200   16.3036 N   0  0  0  0  0  0  0  0  0  0  0  0
    5.0287   -8.9365   16.8223 C   0  0  0  0  0  0  0  0  0  0  0  0
    8.7742   -6.1498   16.6764 C   0  0  0  0  0  0  0  0  0  0  0  0
   10.9418   -3.4032   21.2053 O   0  0  0  0  0  0  0  0  0  0  0  0
    1.4797   -8.6258   16.2950 C   0  0  0  0  0  0  0  0  0  0  0  0
    9.2861   -1.2743   25.3585 C   0  0  0  0  0  0  0  0  0  0  0  0
    1.8892  -10.3985   17.7511 N   0  0  0  0  0  0  0  0  0  0  0  0
    9.6210   -0.6952   24.0976 C   0  0  0  0  0  0  0  0  0  0  0  0
    7.0792   -9.0217   17.1429 C   0  0  0  0  0  0  0  0  0  0  0  0
    3.1713  -10.1816   17.6634 C   0  0  0  0  0  0  0  0  0  0  0  0
    2.7878   -8.3822   16.2137 C   0  0  0  0  0  0  0  0  0  0  0  0
    9.4601   -2.6590   25.6528 C   0  0  0  0  0  0  0  0  0  0  0  0
   10.1182   -1.5672   23.1165 C   0  0  0  0  0  0  0  0  0  0  0  0
    1.0552   -9.6360   17.0650 C   0  0  0  0  0  0  0  0  0  0  0  0
    3.6519   -9.1783   16.9039 C   0  0  0  0  0  0  0  0  0  0  0  0
    7.8675   -7.0096   15.9415 C   0  0  0  0  0  0  0  0  0  0  0  0
    5.9733   -9.6553   17.3832 N   0  0  0  0  0  0  0  0  0  0  0  0
   10.2411   -2.9363   23.4301 C   0  0  0  0  0  0  0  0  0  0  0  0
   10.7288   -3.8197   19.9525 C   0  0  0  0  0  0  0  0  0  0  0  0
   10.1189   -5.0054   19.6987 C   0  0  0  0  0  0  0  0  0  0  0  0
  1  3  4  0
  1  7  4  0
  2 21  4  0
  2 27  4  0
  3  9  4  0
  3 10  4  0
  4  8  4  0
  4 18  4  0
  4 25  1  0
  5  9  4  0
  5 12  4  0
  6 13  1  0
  6 27  1  0
  7 28  4  0
  8 11  4  0
  9 29  4  0
 10 12  4  0
 11 24  1  0
 11 26  4  0
 12 25  1  0
 13 28  1  0
 14 20  4  0
 14 23  4  0
 15 17  4  0
 15 21  4  0
 16 19  4  0
 16 23  4  0
 17 22  4  0
 18 26  4  0
 19 24  4  0
 20 24  4  0
 22 27  4  0
 28 29  4  0
M  END
$$$$

 Created by Python create_sdf_string function

 29 33  0  0  0  0  0  0  0  0999 V2000
   10.7215   -3.3326   17.6437 C   0  0  0  0  0  0  0  0  0  0  0  0
    9.9489   -3.4675   24.6487 N   0  0  0  0  0  0  0  0  0  0  0  0
   10.0172   -4.4740   17.4101 C   0  0  0  0  0  0  0  0  0  0  0  0
    6.9051   -7.9575   16.4222 C   0  0  0  0  0  0  0  0  0  0  0  0
    8.9969   -6.3552   17.9668 N   0  0  0  0  0  0  0  0  0  0  0  0
   10.6702   -3.9051   22.4070 C   0  0  0  0  0  0  0  0  0  0  0  0
   11.0625   -3.0028   18.8894 C   0  0  0  0  0  0  0  0  0  0  0  0
    5.6180   -7.9194   16.1754 O   0  0  0  0  0  0  0  0  0  0  0  0
    9.7259   -5.3080   18.4485 C   0  0  0  0  0  0  0  0  0  0  0  0
    9.4578   -5.0200   16.3036 N   0  0  0  0  0  0  0  0  0  0  0  0
    5.0287   -8.9365   16.8223 C   0  0  0  0  0  0  0  0  0  0  0  0
    8.7742   -6.1498   16.6764 C   0  0  0  0  0  0  0  0  0  0  0  0
   10.9418   -3.4032   21.2053 O   0  0  0  0  0  0  0  0  0  0  0  0
    1.4797   -8.6258   16.2950 C   0  0  0  0  0  0  0  0  0  0  0  0
    9.2861   -1.2743   25.3585 C   0  0  0  0  0  0  0  0  0  0  0  0
    1.8892  -10.3985   17.7511 N   0  0  0  0  0  0  0  0  0  0  0  0
    9.6210   -0.6952   24.0976 C   0  0  0  0  0  0  0  0  0  0  0  0
    7.0792   -9.0217   17.1429 C   0  0  0  0  0  0  0  0  0  0  0  0
    3.1713  -10.1816   17.6634 C   0  0  0  0  0  0  0  0  0  0  0  0
    2.7878   -8.3822   16.2137 C   0  0  0  0  0  0  0  0  0  0  0  0
    9.4601   -2.6590   25.6528 C   0  0  0  0  0  0  0  0  0  0  0  0
   10.1182   -1.5672   23.1165 C   0  0  0  0  0  0  0  0  0  0  0  0
    1.0552   -9.6360   17.0650 C   0  0  0  0  0  0  0  0  0  0  0  0
    3.6519   -9.1783   16.9039 C   0  0  0  0  0  0  0  0  0  0  0  0
    7.8675   -7.0096   15.9415 C   0  0  0  0  0  0  0  0  0  0  0  0
    5.9733   -9.6553   17.3832 N   0  0  0  0  0  0  0  0  0  0  0  0
   10.2411   -2.9363   23.4301 C   0  0  0  0  0  0  0  0  0  0  0  0
   10.7288   -3.8197   19.9525 C   0  0  0  0  0  0  0  0  0  0  0  0
   10.1189   -5.0054   19.6987 C   0  0  0  0  0  0  0  0  0  0  0  0
  1  3  4  0
  1  7  4  0
  2 21  4  0
  2 27  4  0
  3  9  4  0
  3 10  4  0
  4  8  4  0
  4 18  4  0
  4 25  1  0
  5  9  4  0
  5 12  4  0
  6 13  1  0
  6 27  1  0
  7 28  4  0
  8 11  4  0
  9 29  4  0
 10 12  4  0
 11 24  1  0
 11 26  4  0
 12 25  1  0
 13 28  1  0
 14 20  4  0
 14 23  4  0
 15 17  4  0
 15 21  4  0
 16 19  4  0
 16 23  4  0
 17 22  4  0
 18 26  4  0
 19 24  4  0
 20 24  4  0
 22 27  4  0
 28 29  4  0
M  END
$$$$

 Created by Python create_sdf_string function

 29 33  0  0  0  0  0  0  0  0999 V2000
   10.7215   -3.3326   17.6437 C   0  0  0  0  0  0  0  0  0  0  0  0
    9.9489   -3.4675   24.6487 N   0  0  0  0  0  0  0  0  0  0  0  0
   10.0172   -4.4740   17.4101 C   0  0  0  0  0  0  0  0  0  0  0  0
    6.9051   -7.9575   16.4222 C   0  0  0  0  0  0  0  0  0  0  0  0
    8.9969   -6.3552   17.9668 N   0  0  0  0  0  0  0  0  0  0  0  0
   10.6702   -3.9051   22.4070 C   0  0  0  0  0  0  0  0  0  0  0  0
   11.0625   -3.0028   18.8894 C   0  0  0  0  0  0  0  0  0  0  0  0
    5.6180   -7.9194   16.1754 O   0  0  0  0  0  0  0  0  0  0  0  0
    9.7259   -5.3080   18.4485 C   0  0  0  0  0  0  0  0  0  0  0  0
    9.4578   -5.0200   16.3036 N   0  0  0  0  0  0  0  0  0  0  0  0
    5.0287   -8.9365   16.8223 C   0  0  0  0  0  0  0  0  0  0  0  0
    8.7742   -6.1498   16.6764 C   0  0  0  0  0  0  0  0  0  0  0  0
   10.9418   -3.4032   21.2053 O   0  0  0  0  0  0  0  0  0  0  0  0
    1.4797   -8.6258   16.2950 C   0  0  0  0  0  0  0  0  0  0  0  0
    9.2861   -1.2743   25.3585 C   0  0  0  0  0  0  0  0  0  0  0  0
    1.8892  -10.3985   17.7511 N   0  0  0  0  0  0  0  0  0  0  0  0
    9.6210   -0.6952   24.0976 C   0  0  0  0  0  0  0  0  0  0  0  0
    7.0792   -9.0217   17.1429 C   0  0  0  0  0  0  0  0  0  0  0  0
    3.1713  -10.1816   17.6634 C   0  0  0  0  0  0  0  0  0  0  0  0
    2.7878   -8.3822   16.2137 C   0  0  0  0  0  0  0  0  0  0  0  0
    9.4601   -2.6590   25.6528 C   0  0  0  0  0  0  0  0  0  0  0  0
   10.1182   -1.5672   23.1165 C   0  0  0  0  0  0  0  0  0  0  0  0
    1.0552   -9.6360   17.0650 C   0  0  0  0  0  0  0  0  0  0  0  0
    3.6519   -9.1783   16.9039 C   0  0  0  0  0  0  0  0  0  0  0  0
    7.8675   -7.0096   15.9415 C   0  0  0  0  0  0  0  0  0  0  0  0
    5.9733   -9.6553   17.3832 N   0  0  0  0  0  0  0  0  0  0  0  0
   10.2411   -2.9363   23.4301 C   0  0  0  0  0  0  0  0  0  0  0  0
   10.7288   -3.8197   19.9525 C   0  0  0  0  0  0  0  0  0  0  0  0
   10.1189   -5.0054   19.6987 C   0  0  0  0  0  0  0  0  0  0  0  0
  1  3  4  0
  1  7  4  0
  2 21  4  0
  2 27  4  0
  3  9  4  0
  3 10  4  0
  4  8  4  0
  4 18  4  0
  4 25  1  0
  5  9  4  0
  5 12  4  0
  6 13  1  0
  6 27  1  0
  7 28  4  0
  8 11  4  0
  9 29  4  0
 10 12  4  0
 11 24  1  0
 11 26  4  0
 12 25  1  0
 13 28  1  0
 14 20  4  0
 14 23  4  0
 15 17  4  0
 15 21  4  0
 16 19  4  0
 16 23  4  0
 17 22  4  0
 18 26  4  0
 19 24  4  0
 20 24  4  0
 22 27  4  0
 28 29  4  0
M  END
$$$$

 Created by Python create_sdf_string function

 29 33  0  0  0  0  0  0  0  0999 V2000
   10.7215   -3.3326   17.6437 C   0  0  0  0  0  0  0  0  0  0  0  0
    9.9489   -3.4675   24.6487 N   0  0  0  0  0  0  0  0  0  0  0  0
   10.0172   -4.4740   17.4101 C   0  0  0  0  0  0  0  0  0  0  0  0
    6.9051   -7.9575   16.4222 C   0  0  0  0  0  0  0  0  0  0  0  0
    8.9969   -6.3552   17.9668 N   0  0  0  0  0  0  0  0  0  0  0  0
   10.6702   -3.9051   22.4070 C   0  0  0  0  0  0  0  0  0  0  0  0
   11.0625   -3.0028   18.8894 C   0  0  0  0  0  0  0  0  0  0  0  0
    5.6180   -7.9194   16.1754 O   0  0  0  0  0  0  0  0  0  0  0  0
    9.7259   -5.3080   18.4485 C   0  0  0  0  0  0  0  0  0  0  0  0
    9.4578   -5.0200   16.3036 N   0  0  0  0  0  0  0  0  0  0  0  0
    5.0287   -8.9365   16.8223 C   0  0  0  0  0  0  0  0  0  0  0  0
    8.7742   -6.1498   16.6764 C   0  0  0  0  0  0  0  0  0  0  0  0
   10.9418   -3.4032   21.2053 O   0  0  0  0  0  0  0  0  0  0  0  0
    1.4797   -8.6258   16.2950 C   0  0  0  0  0  0  0  0  0  0  0  0
    9.2861   -1.2743   25.3585 C   0  0  0  0  0  0  0  0  0  0  0  0
    1.8892  -10.3985   17.7511 N   0  0  0  0  0  0  0  0  0  0  0  0
    9.6210   -0.6952   24.0976 C   0  0  0  0  0  0  0  0  0  0  0  0
    7.0792   -9.0217   17.1429 C   0  0  0  0  0  0  0  0  0  0  0  0
    3.1713  -10.1816   17.6634 C   0  0  0  0  0  0  0  0  0  0  0  0
    2.7878   -8.3822   16.2137 C   0  0  0  0  0  0  0  0  0  0  0  0
    9.4601   -2.6590   25.6528 C   0  0  0  0  0  0  0  0  0  0  0  0
   10.1182   -1.5672   23.1165 C   0  0  0  0  0  0  0  0  0  0  0  0
    1.0552   -9.6360   17.0650 C   0  0  0  0  0  0  0  0  0  0  0  0
    3.6519   -9.1783   16.9039 C   0  0  0  0  0  0  0  0  0  0  0  0
    7.8675   -7.0096   15.9415 C   0  0  0  0  0  0  0  0  0  0  0  0
    5.9733   -9.6553   17.3832 N   0  0  0  0  0  0  0  0  0  0  0  0
   10.2411   -2.9363   23.4301 C   0  0  0  0  0  0  0  0  0  0  0  0
   10.7288   -3.8197   19.9525 C   0  0  0  0  0  0  0  0  0  0  0  0
   10.1189   -5.0054   19.6987 C   0  0  0  0  0  0  0  0  0  0  0  0
  1  3  4  0
  1  7  4  0
  2 21  4  0
  2 27  4  0
  3  9  4  0
  3 10  4  0
  4  8  4  0
  4 18  4  0
  4 25  1  0
  5  9  4  0
  5 12  4  0
  6 13  1  0
  6 27  1  0
  7 28  4  0
  8 11  4  0
  9 29  4  0
 10 12  4  0
 11 24  1  0
 11 26  4  0
 12 25  1  0
 13 28  1  0
 14 20  4  0
 14 23  4  0
 15 17  4  0
 15 21  4  0
 16 19  4  0
 16 23  4  0
 17 22  4  0
 18 26  4  0
 19 24  4  0
 20 24  4  0
 22 27  4  0
 28 29  4  0
M  END
$$$$

 Created by Python create_sdf_string function

 29 33  0  0  0  0  0  0  0  0999 V2000
   10.7215   -3.3326   17.6437 C   0  0  0  0  0  0  0  0  0  0  0  0
    9.9489   -3.4675   24.6487 N   0  0  0  0  0  0  0  0  0  0  0  0
   10.0172   -4.4740   17.4101 C   0  0  0  0  0  0  0  0  0  0  0  0
    6.9051   -7.9575   16.4222 C   0  0  0  0  0  0  0  0  0  0  0  0
    8.9969   -6.3552   17.9668 N   0  0  0  0  0  0  0  0  0  0  0  0
   10.6702   -3.9051   22.4070 C   0  0  0  0  0  0  0  0  0  0  0  0
   11.0625   -3.0028   18.8894 C   0  0  0  0  0  0  0  0  0  0  0  0
    5.6180   -7.9194   16.1754 O   0  0  0  0  0  0  0  0  0  0  0  0
    9.7259   -5.3080   18.4485 C   0  0  0  0  0  0  0  0  0  0  0  0
    9.4578   -5.0200   16.3036 N   0  0  0  0  0  0  0  0  0  0  0  0
    5.0287   -8.9365   16.8223 C   0  0  0  0  0  0  0  0  0  0  0  0
    8.7742   -6.1498   16.6764 C   0  0  0  0  0  0  0  0  0  0  0  0
   10.9418   -3.4032   21.2053 O   0  0  0  0  0  0  0  0  0  0  0  0
    1.4797   -8.6258   16.2950 C   0  0  0  0  0  0  0  0  0  0  0  0
    9.2861   -1.2743   25.3585 C   0  0  0  0  0  0  0  0  0  0  0  0
    1.8892  -10.3985   17.7511 N   0  0  0  0  0  0  0  0  0  0  0  0
    9.6210   -0.6952   24.0976 C   0  0  0  0  0  0  0  0  0  0  0  0
    7.0792   -9.0217   17.1429 C   0  0  0  0  0  0  0  0  0  0  0  0
    3.1713  -10.1816   17.6634 C   0  0  0  0  0  0  0  0  0  0  0  0
    2.7878   -8.3822   16.2137 C   0  0  0  0  0  0  0  0  0  0  0  0
    9.4601   -2.6590   25.6528 C   0  0  0  0  0  0  0  0  0  0  0  0
   10.1182   -1.5672   23.1165 C   0  0  0  0  0  0  0  0  0  0  0  0
    1.0552   -9.6360   17.0650 C   0  0  0  0  0  0  0  0  0  0  0  0
    3.6519   -9.1783   16.9039 C   0  0  0  0  0  0  0  0  0  0  0  0
    7.8675   -7.0096   15.9415 C   0  0  0  0  0  0  0  0  0  0  0  0
    5.9733   -9.6553   17.3832 N   0  0  0  0  0  0  0  0  0  0  0  0
   10.2411   -2.9363   23.4301 C   0  0  0  0  0  0  0  0  0  0  0  0
   10.7288   -3.8197   19.9525 C   0  0  0  0  0  0  0  0  0  0  0  0
   10.1189   -5.0054   19.6987 C   0  0  0  0  0  0  0  0  0  0  0  0
  1  3  4  0
  1  7  4  0
  2 21  4  0
  2 27  4  0
  3  9  4  0
  3 10  4  0
  4  8  4  0
  4 18  4  0
  4 25  1  0
  5  9  4  0
  5 12  4  0
  6 13  1  0
  6 27  1  0
  7 28  4  0
  8 11  4  0
  9 29  4  0
 10 12  4  0
 11 24  1  0
 11 26  4  0
 12 25  1  0
 13 28  1  0
 14 20  4  0
 14 23  4  0
 15 17  4  0
 15 21  4  0
 16 19  4  0
 16 23  4  0
 17 22  4  0
 18 26  4  0
 19 24  4  0
 20 24  4  0
 22 27  4  0
 28 29  4  0
M  END
$$$$

 Created by Python create_sdf_string function

 29 33  0  0  0  0  0  0  0  0999 V2000
   10.7215   -3.3326   17.6437 C   0  0  0  0  0  0  0  0  0  0  0  0
    9.9489   -3.4675   24.6487 N   0  0  0  0  0  0  0  0  0  0  0  0
   10.0172   -4.4740   17.4101 C   0  0  0  0  0  0  0  0  0  0  0  0
    6.9051   -7.9575   16.4222 C   0  0  0  0  0  0  0  0  0  0  0  0
    8.9969   -6.3552   17.9668 N   0  0  0  0  0  0  0  0  0  0  0  0
   10.6702   -3.9051   22.4070 C   0  0  0  0  0  0  0  0  0  0  0  0
   11.0625   -3.0028   18.8894 C   0  0  0  0  0  0  0  0  0  0  0  0
    5.6180   -7.9194   16.1754 O   0  0  0  0  0  0  0  0  0  0  0  0
    9.7259   -5.3080   18.4485 C   0  0  0  0  0  0  0  0  0  0  0  0
    9.4578   -5.0200   16.3036 N   0  0  0  0  0  0  0  0  0  0  0  0
    5.0287   -8.9365   16.8223 C   0  0  0  0  0  0  0  0  0  0  0  0
    8.7742   -6.1498   16.6764 C   0  0  0  0  0  0  0  0  0  0  0  0
   10.9418   -3.4032   21.2053 O   0  0  0  0  0  0  0  0  0  0  0  0
    1.4797   -8.6258   16.2950 C   0  0  0  0  0  0  0  0  0  0  0  0
    9.2861   -1.2743   25.3585 C   0  0  0  0  0  0  0  0  0  0  0  0
    1.8892  -10.3985   17.7511 N   0  0  0  0  0  0  0  0  0  0  0  0
    9.6210   -0.6952   24.0976 C   0  0  0  0  0  0  0  0  0  0  0  0
    7.0792   -9.0217   17.1429 C   0  0  0  0  0  0  0  0  0  0  0  0
    3.1713  -10.1816   17.6634 C   0  0  0  0  0  0  0  0  0  0  0  0
    2.7878   -8.3822   16.2137 C   0  0  0  0  0  0  0  0  0  0  0  0
    9.4601   -2.6590   25.6528 C   0  0  0  0  0  0  0  0  0  0  0  0
   10.1182   -1.5672   23.1165 C   0  0  0  0  0  0  0  0  0  0  0  0
    1.0552   -9.6360   17.0650 C   0  0  0  0  0  0  0  0  0  0  0  0
    3.6519   -9.1783   16.9039 C   0  0  0  0  0  0  0  0  0  0  0  0
    7.8675   -7.0096   15.9415 C   0  0  0  0  0  0  0  0  0  0  0  0
    5.9733   -9.6553   17.3832 N   0  0  0  0  0  0  0  0  0  0  0  0
   10.2411   -2.9363   23.4301 C   0  0  0  0  0  0  0  0  0  0  0  0
   10.7288   -3.8197   19.9525 C   0  0  0  0  0  0  0  0  0  0  0  0
   10.1189   -5.0054   19.6987 C   0  0  0  0  0  0  0  0  0  0  0  0
  1  3  4  0
  1  7  4  0
  2 21  4  0
  2 27  4  0
  3  9  4  0
  3 10  4  0
  4  8  4  0
  4 18  4  0
  4 25  1  0
  5  9  4  0
  5 12  4  0
  6 13  1  0
  6 27  1  0
  7 28  4  0
  8 11  4  0
  9 29  4  0
 10 12  4  0
 11 24  1  0
 11 26  4  0
 12 25  1  0
 13 28  1  0
 14 20  4  0
 14 23  4  0
 15 17  4  0
 15 21  4  0
 16 19  4  0
 16 23  4  0
 17 22  4  0
 18 26  4  0
 19 24  4  0
 20 24  4  0
 22 27  4  0
 28 29  4  0
M  END
$$$$

 Created by Python create_sdf_string function

 29 33  0  0  0  0  0  0  0  0999 V2000
   10.7215   -3.3326   17.6437 C   0  0  0  0  0  0  0  0  0  0  0  0
    9.9489   -3.4675   24.6487 N   0  0  0  0  0  0  0  0  0  0  0  0
   10.0172   -4.4740   17.4101 C   0  0  0  0  0  0  0  0  0  0  0  0
    6.9051   -7.9575   16.4222 C   0  0  0  0  0  0  0  0  0  0  0  0
    8.9969   -6.3552   17.9668 N   0  0  0  0  0  0  0  0  0  0  0  0
   10.6702   -3.9051   22.4070 C   0  0  0  0  0  0  0  0  0  0  0  0
   11.0625   -3.0028   18.8894 C   0  0  0  0  0  0  0  0  0  0  0  0
    5.6180   -7.9194   16.1754 O   0  0  0  0  0  0  0  0  0  0  0  0
    9.7259   -5.3080   18.4485 C   0  0  0  0  0  0  0  0  0  0  0  0
    9.4578   -5.0200   16.3036 N   0  0  0  0  0  0  0  0  0  0  0  0
    5.0287   -8.9365   16.8223 C   0  0  0  0  0  0  0  0  0  0  0  0
    8.7742   -6.1498   16.6764 C   0  0  0  0  0  0  0  0  0  0  0  0
   10.9418   -3.4032   21.2053 O   0  0  0  0  0  0  0  0  0  0  0  0
    1.4797   -8.6258   16.2950 C   0  0  0  0  0  0  0  0  0  0  0  0
    9.2861   -1.2743   25.3585 C   0  0  0  0  0  0  0  0  0  0  0  0
    1.8892  -10.3985   17.7511 N   0  0  0  0  0  0  0  0  0  0  0  0
    9.6210   -0.6952   24.0976 C   0  0  0  0  0  0  0  0  0  0  0  0
    7.0792   -9.0217   17.1429 C   0  0  0  0  0  0  0  0  0  0  0  0
    3.1713  -10.1816   17.6634 C   0  0  0  0  0  0  0  0  0  0  0  0
    2.7878   -8.3822   16.2137 C   0  0  0  0  0  0  0  0  0  0  0  0
    9.4601   -2.6590   25.6528 C   0  0  0  0  0  0  0  0  0  0  0  0
   10.1182   -1.5672   23.1165 C   0  0  0  0  0  0  0  0  0  0  0  0
    1.0552   -9.6360   17.0650 C   0  0  0  0  0  0  0  0  0  0  0  0
    3.6519   -9.1783   16.9039 C   0  0  0  0  0  0  0  0  0  0  0  0
    7.8675   -7.0096   15.9415 C   0  0  0  0  0  0  0  0  0  0  0  0
    5.9733   -9.6553   17.3832 N   0  0  0  0  0  0  0  0  0  0  0  0
   10.2411   -2.9363   23.4301 C   0  0  0  0  0  0  0  0  0  0  0  0
   10.7288   -3.8197   19.9525 C   0  0  0  0  0  0  0  0  0  0  0  0
   10.1189   -5.0054   19.6987 C   0  0  0  0  0  0  0  0  0  0  0  0
  1  3  4  0
  1  7  4  0
  2 21  4  0
  2 27  4  0
  3  9  4  0
  3 10  4  0
  4  8  4  0
  4 18  4  0
  4 25  1  0
  5  9  4  0
  5 12  4  0
  6 13  1  0
  6 27  1  0
  7 28  4  0
  8 11  4  0
  9 29  4  0
 10 12  4  0
 11 24  1  0
 11 26  4  0
 12 25  1  0
 13 28  1  0
 14 20  4  0
 14 23  4  0
 15 17  4  0
 15 21  4  0
 16 19  4  0
 16 23  4  0
 17 22  4  0
 18 26  4  0
 19 24  4  0
 20 24  4  0
 22 27  4  0
 28 29  4  0
M  END
$$$$

 Created by Python create_sdf_string function

 29 33  0  0  0  0  0  0  0  0999 V2000
   10.7215   -3.3326   17.6437 C   0  0  0  0  0  0  0  0  0  0  0  0
    9.9489   -3.4675   24.6487 N   0  0  0  0  0  0  0  0  0  0  0  0
   10.0172   -4.4740   17.4101 C   0  0  0  0  0  0  0  0  0  0  0  0
    6.9051   -7.9575   16.4222 C   0  0  0  0  0  0  0  0  0  0  0  0
    8.9969   -6.3552   17.9668 N   0  0  0  0  0  0  0  0  0  0  0  0
   10.6702   -3.9051   22.4070 C   0  0  0  0  0  0  0  0  0  0  0  0
   11.0625   -3.0028   18.8894 C   0  0  0  0  0  0  0  0  0  0  0  0
    5.6180   -7.9194   16.1754 O   0  0  0  0  0  0  0  0  0  0  0  0
    9.7259   -5.3080   18.4485 C   0  0  0  0  0  0  0  0  0  0  0  0
    9.4578   -5.0200   16.3036 N   0  0  0  0  0  0  0  0  0  0  0  0
    5.0287   -8.9365   16.8223 C   0  0  0  0  0  0  0  0  0  0  0  0
    8.7742   -6.1498   16.6764 C   0  0  0  0  0  0  0  0  0  0  0  0
   10.9418   -3.4032   21.2053 O   0  0  0  0  0  0  0  0  0  0  0  0
    1.4797   -8.6258   16.2950 C   0  0  0  0  0  0  0  0  0  0  0  0
    9.2861   -1.2743   25.3585 C   0  0  0  0  0  0  0  0  0  0  0  0
    1.8892  -10.3985   17.7511 N   0  0  0  0  0  0  0  0  0  0  0  0
    9.6210   -0.6952   24.0976 C   0  0  0  0  0  0  0  0  0  0  0  0
    7.0792   -9.0217   17.1429 C   0  0  0  0  0  0  0  0  0  0  0  0
    3.1713  -10.1816   17.6634 C   0  0  0  0  0  0  0  0  0  0  0  0
    2.7878   -8.3822   16.2137 C   0  0  0  0  0  0  0  0  0  0  0  0
    9.4601   -2.6590   25.6528 C   0  0  0  0  0  0  0  0  0  0  0  0
   10.1182   -1.5672   23.1165 C   0  0  0  0  0  0  0  0  0  0  0  0
    1.0552   -9.6360   17.0650 C   0  0  0  0  0  0  0  0  0  0  0  0
    3.6519   -9.1783   16.9039 C   0  0  0  0  0  0  0  0  0  0  0  0
    7.8675   -7.0096   15.9415 C   0  0  0  0  0  0  0  0  0  0  0  0
    5.9733   -9.6553   17.3832 N   0  0  0  0  0  0  0  0  0  0  0  0
   10.2411   -2.9363   23.4301 C   0  0  0  0  0  0  0  0  0  0  0  0
   10.7288   -3.8197   19.9525 C   0  0  0  0  0  0  0  0  0  0  0  0
   10.1189   -5.0054   19.6987 C   0  0  0  0  0  0  0  0  0  0  0  0
  1  3  4  0
  1  7  4  0
  2 21  4  0
  2 27  4  0
  3  9  4  0
  3 10  4  0
  4  8  4  0
  4 18  4  0
  4 25  1  0
  5  9  4  0
  5 12  4  0
  6 13  1  0
  6 27  1  0
  7 28  4  0
  8 11  4  0
  9 29  4  0
 10 12  4  0
 11 24  1  0
 11 26  4  0
 12 25  1  0
 13 28  1  0
 14 20  4  0
 14 23  4  0
 15 17  4  0
 15 21  4  0
 16 19  4  0
 16 23  4  0
 17 22  4  0
 18 26  4  0
 19 24  4  0
 20 24  4  0
 22 27  4  0
 28 29  4  0
M  END
$$$$

 Created by Python create_sdf_string function

 29 33  0  0  0  0  0  0  0  0999 V2000
   10.7215   -3.3326   17.6437 C   0  0  0  0  0  0  0  0  0  0  0  0
    9.9489   -3.4675   24.6487 N   0  0  0  0  0  0  0  0  0  0  0  0
   10.0172   -4.4740   17.4101 C   0  0  0  0  0  0  0  0  0  0  0  0
    6.9051   -7.9575   16.4222 C   0  0  0  0  0  0  0  0  0  0  0  0
    8.9969   -6.3552   17.9668 N   0  0  0  0  0  0  0  0  0  0  0  0
   10.6702   -3.9051   22.4070 C   0  0  0  0  0  0  0  0  0  0  0  0
   11.0625   -3.0028   18.8894 C   0  0  0  0  0  0  0  0  0  0  0  0
    5.6180   -7.9194   16.1754 O   0  0  0  0  0  0  0  0  0  0  0  0
    9.7259   -5.3080   18.4485 C   0  0  0  0  0  0  0  0  0  0  0  0
    9.4578   -5.0200   16.3036 N   0  0  0  0  0  0  0  0  0  0  0  0
    5.0287   -8.9365   16.8223 C   0  0  0  0  0  0  0  0  0  0  0  0
    8.7742   -6.1498   16.6764 C   0  0  0  0  0  0  0  0  0  0  0  0
   10.9418   -3.4032   21.2053 O   0  0  0  0  0  0  0  0  0  0  0  0
    1.4797   -8.6258   16.2950 C   0  0  0  0  0  0  0  0  0  0  0  0
    9.2861   -1.2743   25.3585 C   0  0  0  0  0  0  0  0  0  0  0  0
    1.8892  -10.3985   17.7511 N   0  0  0  0  0  0  0  0  0  0  0  0
    9.6210   -0.6952   24.0976 C   0  0  0  0  0  0  0  0  0  0  0  0
    7.0792   -9.0217   17.1429 C   0  0  0  0  0  0  0  0  0  0  0  0
    3.1713  -10.1816   17.6634 C   0  0  0  0  0  0  0  0  0  0  0  0
    2.7878   -8.3822   16.2137 C   0  0  0  0  0  0  0  0  0  0  0  0
    9.4601   -2.6590   25.6528 C   0  0  0  0  0  0  0  0  0  0  0  0
   10.1182   -1.5672   23.1165 C   0  0  0  0  0  0  0  0  0  0  0  0
    1.0552   -9.6360   17.0650 C   0  0  0  0  0  0  0  0  0  0  0  0
    3.6519   -9.1783   16.9039 C   0  0  0  0  0  0  0  0  0  0  0  0
    7.8675   -7.0096   15.9415 C   0  0  0  0  0  0  0  0  0  0  0  0
    5.9733   -9.6553   17.3832 N   0  0  0  0  0  0  0  0  0  0  0  0
   10.2411   -2.9363   23.4301 C   0  0  0  0  0  0  0  0  0  0  0  0
   10.7288   -3.8197   19.9525 C   0  0  0  0  0  0  0  0  0  0  0  0
   10.1189   -5.0054   19.6987 C   0  0  0  0  0  0  0  0  0  0  0  0
  1  3  4  0
  1  7  4  0
  2 21  4  0
  2 27  4  0
  3  9  4  0
  3 10  4  0
  4  8  4  0
  4 18  4  0
  4 25  1  0
  5  9  4  0
  5 12  4  0
  6 13  1  0
  6 27  1  0
  7 28  4  0
  8 11  4  0
  9 29  4  0
 10 12  4  0
 11 24  1  0
 11 26  4  0
 12 25  1  0
 13 28  1  0
 14 20  4  0
 14 23  4  0
 15 17  4  0
 15 21  4  0
 16 19  4  0
 16 23  4  0
 17 22  4  0
 18 26  4  0
 19 24  4  0
 20 24  4  0
 22 27  4  0
 28 29  4  0
M  END
$$$$

 Created by Python create_sdf_string function

 29 33  0  0  0  0  0  0  0  0999 V2000
   10.7215   -3.3326   17.6437 C   0  0  0  0  0  0  0  0  0  0  0  0
    9.9489   -3.4675   24.6487 N   0  0  0  0  0  0  0  0  0  0  0  0
   10.0172   -4.4740   17.4101 C   0  0  0  0  0  0  0  0  0  0  0  0
    6.9051   -7.9575   16.4222 C   0  0  0  0  0  0  0  0  0  0  0  0
    8.9969   -6.3552   17.9668 N   0  0  0  0  0  0  0  0  0  0  0  0
   10.6702   -3.9051   22.4070 C   0  0  0  0  0  0  0  0  0  0  0  0
   11.0625   -3.0028   18.8894 C   0  0  0  0  0  0  0  0  0  0  0  0
    5.6180   -7.9194   16.1754 O   0  0  0  0  0  0  0  0  0  0  0  0
    9.7259   -5.3080   18.4485 C   0  0  0  0  0  0  0  0  0  0  0  0
    9.4578   -5.0200   16.3036 N   0  0  0  0  0  0  0  0  0  0  0  0
    5.0287   -8.9365   16.8223 C   0  0  0  0  0  0  0  0  0  0  0  0
    8.7742   -6.1498   16.6764 C   0  0  0  0  0  0  0  0  0  0  0  0
   10.9418   -3.4032   21.2053 O   0  0  0  0  0  0  0  0  0  0  0  0
    1.4797   -8.6258   16.2950 C   0  0  0  0  0  0  0  0  0  0  0  0
    9.2861   -1.2743   25.3585 C   0  0  0  0  0  0  0  0  0  0  0  0
    1.8892  -10.3985   17.7511 N   0  0  0  0  0  0  0  0  0  0  0  0
    9.6210   -0.6952   24.0976 C   0  0  0  0  0  0  0  0  0  0  0  0
    7.0792   -9.0217   17.1429 C   0  0  0  0  0  0  0  0  0  0  0  0
    3.1713  -10.1816   17.6634 C   0  0  0  0  0  0  0  0  0  0  0  0
    2.7878   -8.3822   16.2137 C   0  0  0  0  0  0  0  0  0  0  0  0
    9.4601   -2.6590   25.6528 C   0  0  0  0  0  0  0  0  0  0  0  0
   10.1182   -1.5672   23.1165 C   0  0  0  0  0  0  0  0  0  0  0  0
    1.0552   -9.6360   17.0650 C   0  0  0  0  0  0  0  0  0  0  0  0
    3.6519   -9.1783   16.9039 C   0  0  0  0  0  0  0  0  0  0  0  0
    7.8675   -7.0096   15.9415 C   0  0  0  0  0  0  0  0  0  0  0  0
    5.9733   -9.6553   17.3832 N   0  0  0  0  0  0  0  0  0  0  0  0
   10.2411   -2.9363   23.4301 C   0  0  0  0  0  0  0  0  0  0  0  0
   10.7288   -3.8197   19.9525 C   0  0  0  0  0  0  0  0  0  0  0  0
   10.1189   -5.0054   19.6987 C   0  0  0  0  0  0  0  0  0  0  0  0
  1  3  4  0
  1  7  4  0
  2 21  4  0
  2 27  4  0
  3  9  4  0
  3 10  4  0
  4  8  4  0
  4 18  4  0
  4 25  1  0
  5  9  4  0
  5 12  4  0
  6 13  1  0
  6 27  1  0
  7 28  4  0
  8 11  4  0
  9 29  4  0
 10 12  4  0
 11 24  1  0
 11 26  4  0
 12 25  1  0
 13 28  1  0
 14 20  4  0
 14 23  4  0
 15 17  4  0
 15 21  4  0
 16 19  4  0
 16 23  4  0
 17 22  4  0
 18 26  4  0
 19 24  4  0
 20 24  4  0
 22 27  4  0
 28 29  4  0
M  END
$$$$

 Created by Python create_sdf_string function

 29 33  0  0  0  0  0  0  0  0999 V2000
   10.7215   -3.3326   17.6437 C   0  0  0  0  0  0  0  0  0  0  0  0
    9.9489   -3.4675   24.6487 N   0  0  0  0  0  0  0  0  0  0  0  0
   10.0172   -4.4740   17.4101 C   0  0  0  0  0  0  0  0  0  0  0  0
    6.9051   -7.9575   16.4222 C   0  0  0  0  0  0  0  0  0  0  0  0
    8.9969   -6.3552   17.9668 N   0  0  0  0  0  0  0  0  0  0  0  0
   10.6702   -3.9051   22.4070 C   0  0  0  0  0  0  0  0  0  0  0  0
   11.0625   -3.0028   18.8894 C   0  0  0  0  0  0  0  0  0  0  0  0
    5.6180   -7.9194   16.1754 O   0  0  0  0  0  0  0  0  0  0  0  0
    9.7259   -5.3080   18.4485 C   0  0  0  0  0  0  0  0  0  0  0  0
    9.4578   -5.0200   16.3036 N   0  0  0  0  0  0  0  0  0  0  0  0
    5.0287   -8.9365   16.8223 C   0  0  0  0  0  0  0  0  0  0  0  0
    8.7742   -6.1498   16.6764 C   0  0  0  0  0  0  0  0  0  0  0  0
   10.9418   -3.4032   21.2053 O   0  0  0  0  0  0  0  0  0  0  0  0
    1.4797   -8.6258   16.2950 C   0  0  0  0  0  0  0  0  0  0  0  0
    9.2861   -1.2743   25.3585 C   0  0  0  0  0  0  0  0  0  0  0  0
    1.8892  -10.3985   17.7511 N   0  0  0  0  0  0  0  0  0  0  0  0
    9.6210   -0.6952   24.0976 C   0  0  0  0  0  0  0  0  0  0  0  0
    7.0792   -9.0217   17.1429 C   0  0  0  0  0  0  0  0  0  0  0  0
    3.1713  -10.1816   17.6634 C   0  0  0  0  0  0  0  0  0  0  0  0
    2.7878   -8.3822   16.2137 C   0  0  0  0  0  0  0  0  0  0  0  0
    9.4601   -2.6590   25.6528 C   0  0  0  0  0  0  0  0  0  0  0  0
   10.1182   -1.5672   23.1165 C   0  0  0  0  0  0  0  0  0  0  0  0
    1.0552   -9.6360   17.0650 C   0  0  0  0  0  0  0  0  0  0  0  0
    3.6519   -9.1783   16.9039 C   0  0  0  0  0  0  0  0  0  0  0  0
    7.8675   -7.0096   15.9415 C   0  0  0  0  0  0  0  0  0  0  0  0
    5.9733   -9.6553   17.3832 N   0  0  0  0  0  0  0  0  0  0  0  0
   10.2411   -2.9363   23.4301 C   0  0  0  0  0  0  0  0  0  0  0  0
   10.7288   -3.8197   19.9525 C   0  0  0  0  0  0  0  0  0  0  0  0
   10.1189   -5.0054   19.6987 C   0  0  0  0  0  0  0  0  0  0  0  0
  1  3  4  0
  1  7  4  0
  2 21  4  0
  2 27  4  0
  3  9  4  0
  3 10  4  0
  4  8  4  0
  4 18  4  0
  4 25  1  0
  5  9  4  0
  5 12  4  0
  6 13  1  0
  6 27  1  0
  7 28  4  0
  8 11  4  0
  9 29  4  0
 10 12  4  0
 11 24  1  0
 11 26  4  0
 12 25  1  0
 13 28  1  0
 14 20  4  0
 14 23  4  0
 15 17  4  0
 15 21  4  0
 16 19  4  0
 16 23  4  0
 17 22  4  0
 18 26  4  0
 19 24  4  0
 20 24  4  0
 22 27  4  0
 28 29  4  0
M  END
$$$$

 Created by Python create_sdf_string function

 29 33  0  0  0  0  0  0  0  0999 V2000
   10.7215   -3.3326   17.6437 C   0  0  0  0  0  0  0  0  0  0  0  0
    9.9489   -3.4675   24.6487 N   0  0  0  0  0  0  0  0  0  0  0  0
   10.0172   -4.4740   17.4101 C   0  0  0  0  0  0  0  0  0  0  0  0
    6.9051   -7.9575   16.4222 C   0  0  0  0  0  0  0  0  0  0  0  0
    8.9969   -6.3552   17.9668 N   0  0  0  0  0  0  0  0  0  0  0  0
   10.6702   -3.9051   22.4070 C   0  0  0  0  0  0  0  0  0  0  0  0
   11.0625   -3.0028   18.8894 C   0  0  0  0  0  0  0  0  0  0  0  0
    5.6180   -7.9194   16.1754 O   0  0  0  0  0  0  0  0  0  0  0  0
    9.7259   -5.3080   18.4485 C   0  0  0  0  0  0  0  0  0  0  0  0
    9.4578   -5.0200   16.3036 N   0  0  0  0  0  0  0  0  0  0  0  0
    5.0287   -8.9365   16.8223 C   0  0  0  0  0  0  0  0  0  0  0  0
    8.7742   -6.1498   16.6764 C   0  0  0  0  0  0  0  0  0  0  0  0
   10.9418   -3.4032   21.2053 O   0  0  0  0  0  0  0  0  0  0  0  0
    1.4797   -8.6258   16.2950 C   0  0  0  0  0  0  0  0  0  0  0  0
    9.2861   -1.2743   25.3585 C   0  0  0  0  0  0  0  0  0  0  0  0
    1.8892  -10.3985   17.7511 N   0  0  0  0  0  0  0  0  0  0  0  0
    9.6210   -0.6952   24.0976 C   0  0  0  0  0  0  0  0  0  0  0  0
    7.0792   -9.0217   17.1429 C   0  0  0  0  0  0  0  0  0  0  0  0
    3.1713  -10.1816   17.6634 C   0  0  0  0  0  0  0  0  0  0  0  0
    2.7878   -8.3822   16.2137 C   0  0  0  0  0  0  0  0  0  0  0  0
    9.4601   -2.6590   25.6528 C   0  0  0  0  0  0  0  0  0  0  0  0
   10.1182   -1.5672   23.1165 C   0  0  0  0  0  0  0  0  0  0  0  0
    1.0552   -9.6360   17.0650 C   0  0  0  0  0  0  0  0  0  0  0  0
    3.6519   -9.1783   16.9039 C   0  0  0  0  0  0  0  0  0  0  0  0
    7.8675   -7.0096   15.9415 C   0  0  0  0  0  0  0  0  0  0  0  0
    5.9733   -9.6553   17.3832 N   0  0  0  0  0  0  0  0  0  0  0  0
   10.2411   -2.9363   23.4301 C   0  0  0  0  0  0  0  0  0  0  0  0
   10.7288   -3.8197   19.9525 C   0  0  0  0  0  0  0  0  0  0  0  0
   10.1189   -5.0054   19.6987 C   0  0  0  0  0  0  0  0  0  0  0  0
  1  3  4  0
  1  7  4  0
  2 21  4  0
  2 27  4  0
  3  9  4  0
  3 10  4  0
  4  8  4  0
  4 18  4  0
  4 25  1  0
  5  9  4  0
  5 12  4  0
  6 13  1  0
  6 27  1  0
  7 28  4  0
  8 11  4  0
  9 29  4  0
 10 12  4  0
 11 24  1  0
 11 26  4  0
 12 25  1  0
 13 28  1  0
 14 20  4  0
 14 23  4  0
 15 17  4  0
 15 21  4  0
 16 19  4  0
 16 23  4  0
 17 22  4  0
 18 26  4  0
 19 24  4  0
 20 24  4  0
 22 27  4  0
 28 29  4  0
M  END
$$$$

 Created by Python create_sdf_string function

 29 33  0  0  0  0  0  0  0  0999 V2000
   10.7215   -3.3326   17.6437 C   0  0  0  0  0  0  0  0  0  0  0  0
    9.9489   -3.4675   24.6487 N   0  0  0  0  0  0  0  0  0  0  0  0
   10.0172   -4.4740   17.4101 C   0  0  0  0  0  0  0  0  0  0  0  0
    6.9051   -7.9575   16.4222 C   0  0  0  0  0  0  0  0  0  0  0  0
    8.9969   -6.3552   17.9668 N   0  0  0  0  0  0  0  0  0  0  0  0
   10.6702   -3.9051   22.4070 C   0  0  0  0  0  0  0  0  0  0  0  0
   11.0625   -3.0028   18.8894 C   0  0  0  0  0  0  0  0  0  0  0  0
    5.6180   -7.9194   16.1754 O   0  0  0  0  0  0  0  0  0  0  0  0
    9.7259   -5.3080   18.4485 C   0  0  0  0  0  0  0  0  0  0  0  0
    9.4578   -5.0200   16.3036 N   0  0  0  0  0  0  0  0  0  0  0  0
    5.0287   -8.9365   16.8223 C   0  0  0  0  0  0  0  0  0  0  0  0
    8.7742   -6.1498   16.6764 C   0  0  0  0  0  0  0  0  0  0  0  0
   10.9418   -3.4032   21.2053 O   0  0  0  0  0  0  0  0  0  0  0  0
    1.4797   -8.6258   16.2950 C   0  0  0  0  0  0  0  0  0  0  0  0
    9.2861   -1.2743   25.3585 C   0  0  0  0  0  0  0  0  0  0  0  0
    1.8892  -10.3985   17.7511 N   0  0  0  0  0  0  0  0  0  0  0  0
    9.6210   -0.6952   24.0976 C   0  0  0  0  0  0  0  0  0  0  0  0
    7.0792   -9.0217   17.1429 C   0  0  0  0  0  0  0  0  0  0  0  0
    3.1713  -10.1816   17.6634 C   0  0  0  0  0  0  0  0  0  0  0  0
    2.7878   -8.3822   16.2137 C   0  0  0  0  0  0  0  0  0  0  0  0
    9.4601   -2.6590   25.6528 C   0  0  0  0  0  0  0  0  0  0  0  0
   10.1182   -1.5672   23.1165 C   0  0  0  0  0  0  0  0  0  0  0  0
    1.0552   -9.6360   17.0650 C   0  0  0  0  0  0  0  0  0  0  0  0
    3.6519   -9.1783   16.9039 C   0  0  0  0  0  0  0  0  0  0  0  0
    7.8675   -7.0096   15.9415 C   0  0  0  0  0  0  0  0  0  0  0  0
    5.9733   -9.6553   17.3832 N   0  0  0  0  0  0  0  0  0  0  0  0
   10.2411   -2.9363   23.4301 C   0  0  0  0  0  0  0  0  0  0  0  0
   10.7288   -3.8197   19.9525 C   0  0  0  0  0  0  0  0  0  0  0  0
   10.1189   -5.0054   19.6987 C   0  0  0  0  0  0  0  0  0  0  0  0
  1  3  4  0
  1  7  4  0
  2 21  4  0
  2 27  4  0
  3  9  4  0
  3 10  4  0
  4  8  4  0
  4 18  4  0
  4 25  1  0
  5  9  4  0
  5 12  4  0
  6 13  1  0
  6 27  1  0
  7 28  4  0
  8 11  4  0
  9 29  4  0
 10 12  4  0
 11 24  1  0
 11 26  4  0
 12 25  1  0
 13 28  1  0
 14 20  4  0
 14 23  4  0
 15 17  4  0
 15 21  4  0
 16 19  4  0
 16 23  4  0
 17 22  4  0
 18 26  4  0
 19 24  4  0
 20 24  4  0
 22 27  4  0
 28 29  4  0
M  END
$$$$

 Created by Python create_sdf_string function

 29 33  0  0  0  0  0  0  0  0999 V2000
   10.7215   -3.3326   17.6437 C   0  0  0  0  0  0  0  0  0  0  0  0
    9.9489   -3.4675   24.6487 N   0  0  0  0  0  0  0  0  0  0  0  0
   10.0172   -4.4740   17.4101 C   0  0  0  0  0  0  0  0  0  0  0  0
    6.9051   -7.9575   16.4222 C   0  0  0  0  0  0  0  0  0  0  0  0
    8.9969   -6.3552   17.9668 N   0  0  0  0  0  0  0  0  0  0  0  0
   10.6702   -3.9051   22.4070 C   0  0  0  0  0  0  0  0  0  0  0  0
   11.0625   -3.0028   18.8894 C   0  0  0  0  0  0  0  0  0  0  0  0
    5.6180   -7.9194   16.1754 O   0  0  0  0  0  0  0  0  0  0  0  0
    9.7259   -5.3080   18.4485 C   0  0  0  0  0  0  0  0  0  0  0  0
    9.4578   -5.0200   16.3036 N   0  0  0  0  0  0  0  0  0  0  0  0
    5.0287   -8.9365   16.8223 C   0  0  0  0  0  0  0  0  0  0  0  0
    8.7742   -6.1498   16.6764 C   0  0  0  0  0  0  0  0  0  0  0  0
   10.9418   -3.4032   21.2053 O   0  0  0  0  0  0  0  0  0  0  0  0
    1.4797   -8.6258   16.2950 C   0  0  0  0  0  0  0  0  0  0  0  0
    9.2861   -1.2743   25.3585 C   0  0  0  0  0  0  0  0  0  0  0  0
    1.8892  -10.3985   17.7511 N   0  0  0  0  0  0  0  0  0  0  0  0
    9.6210   -0.6952   24.0976 C   0  0  0  0  0  0  0  0  0  0  0  0
    7.0792   -9.0217   17.1429 C   0  0  0  0  0  0  0  0  0  0  0  0
    3.1713  -10.1816   17.6634 C   0  0  0  0  0  0  0  0  0  0  0  0
    2.7878   -8.3822   16.2137 C   0  0  0  0  0  0  0  0  0  0  0  0
    9.4601   -2.6590   25.6528 C   0  0  0  0  0  0  0  0  0  0  0  0
   10.1182   -1.5672   23.1165 C   0  0  0  0  0  0  0  0  0  0  0  0
    1.0552   -9.6360   17.0650 C   0  0  0  0  0  0  0  0  0  0  0  0
    3.6519   -9.1783   16.9039 C   0  0  0  0  0  0  0  0  0  0  0  0
    7.8675   -7.0096   15.9415 C   0  0  0  0  0  0  0  0  0  0  0  0
    5.9733   -9.6553   17.3832 N   0  0  0  0  0  0  0  0  0  0  0  0
   10.2411   -2.9363   23.4301 C   0  0  0  0  0  0  0  0  0  0  0  0
   10.7288   -3.8197   19.9525 C   0  0  0  0  0  0  0  0  0  0  0  0
   10.1189   -5.0054   19.6987 C   0  0  0  0  0  0  0  0  0  0  0  0
  1  3  4  0
  1  7  4  0
  2 21  4  0
  2 27  4  0
  3  9  4  0
  3 10  4  0
  4  8  4  0
  4 18  4  0
  4 25  1  0
  5  9  4  0
  5 12  4  0
  6 13  1  0
  6 27  1  0
  7 28  4  0
  8 11  4  0
  9 29  4  0
 10 12  4  0
 11 24  1  0
 11 26  4  0
 12 25  1  0
 13 28  1  0
 14 20  4  0
 14 23  4  0
 15 17  4  0
 15 21  4  0
 16 19  4  0
 16 23  4  0
 17 22  4  0
 18 26  4  0
 19 24  4  0
 20 24  4  0
 22 27  4  0
 28 29  4  0
M  END
$$$$

 Created by Python create_sdf_string function

 29 33  0  0  0  0  0  0  0  0999 V2000
   10.7215   -3.3326   17.6437 C   0  0  0  0  0  0  0  0  0  0  0  0
    9.9489   -3.4675   24.6487 N   0  0  0  0  0  0  0  0  0  0  0  0
   10.0172   -4.4740   17.4101 C   0  0  0  0  0  0  0  0  0  0  0  0
    6.9051   -7.9575   16.4222 C   0  0  0  0  0  0  0  0  0  0  0  0
    8.9969   -6.3552   17.9668 N   0  0  0  0  0  0  0  0  0  0  0  0
   10.6702   -3.9051   22.4070 C   0  0  0  0  0  0  0  0  0  0  0  0
   11.0625   -3.0028   18.8894 C   0  0  0  0  0  0  0  0  0  0  0  0
    5.6180   -7.9194   16.1754 O   0  0  0  0  0  0  0  0  0  0  0  0
    9.7259   -5.3080   18.4485 C   0  0  0  0  0  0  0  0  0  0  0  0
    9.4578   -5.0200   16.3036 N   0  0  0  0  0  0  0  0  0  0  0  0
    5.0287   -8.9365   16.8223 C   0  0  0  0  0  0  0  0  0  0  0  0
    8.7742   -6.1498   16.6764 C   0  0  0  0  0  0  0  0  0  0  0  0
   10.9418   -3.4032   21.2053 O   0  0  0  0  0  0  0  0  0  0  0  0
    1.4797   -8.6258   16.2950 C   0  0  0  0  0  0  0  0  0  0  0  0
    9.2861   -1.2743   25.3585 C   0  0  0  0  0  0  0  0  0  0  0  0
    1.8892  -10.3985   17.7511 N   0  0  0  0  0  0  0  0  0  0  0  0
    9.6210   -0.6952   24.0976 C   0  0  0  0  0  0  0  0  0  0  0  0
    7.0792   -9.0217   17.1429 C   0  0  0  0  0  0  0  0  0  0  0  0
    3.1713  -10.1816   17.6634 C   0  0  0  0  0  0  0  0  0  0  0  0
    2.7878   -8.3822   16.2137 C   0  0  0  0  0  0  0  0  0  0  0  0
    9.4601   -2.6590   25.6528 C   0  0  0  0  0  0  0  0  0  0  0  0
   10.1182   -1.5672   23.1165 C   0  0  0  0  0  0  0  0  0  0  0  0
    1.0552   -9.6360   17.0650 C   0  0  0  0  0  0  0  0  0  0  0  0
    3.6519   -9.1783   16.9039 C   0  0  0  0  0  0  0  0  0  0  0  0
    7.8675   -7.0096   15.9415 C   0  0  0  0  0  0  0  0  0  0  0  0
    5.9733   -9.6553   17.3832 N   0  0  0  0  0  0  0  0  0  0  0  0
   10.2411   -2.9363   23.4301 C   0  0  0  0  0  0  0  0  0  0  0  0
   10.7288   -3.8197   19.9525 C   0  0  0  0  0  0  0  0  0  0  0  0
   10.1189   -5.0054   19.6987 C   0  0  0  0  0  0  0  0  0  0  0  0
  1  3  4  0
  1  7  4  0
  2 21  4  0
  2 27  4  0
  3  9  4  0
  3 10  4  0
  4  8  4  0
  4 18  4  0
  4 25  1  0
  5  9  4  0
  5 12  4  0
  6 13  1  0
  6 27  1  0
  7 28  4  0
  8 11  4  0
  9 29  4  0
 10 12  4  0
 11 24  1  0
 11 26  4  0
 12 25  1  0
 13 28  1  0
 14 20  4  0
 14 23  4  0
 15 17  4  0
 15 21  4  0
 16 19  4  0
 16 23  4  0
 17 22  4  0
 18 26  4  0
 19 24  4  0
 20 24  4  0
 22 27  4  0
 28 29  4  0
M  END
$$$$

 Created by Python create_sdf_string function

 29 33  0  0  0  0  0  0  0  0999 V2000
   10.7215   -3.3326   17.6437 C   0  0  0  0  0  0  0  0  0  0  0  0
    9.9489   -3.4675   24.6487 N   0  0  0  0  0  0  0  0  0  0  0  0
   10.0172   -4.4740   17.4101 C   0  0  0  0  0  0  0  0  0  0  0  0
    6.9051   -7.9575   16.4222 C   0  0  0  0  0  0  0  0  0  0  0  0
    8.9969   -6.3552   17.9668 N   0  0  0  0  0  0  0  0  0  0  0  0
   10.6702   -3.9051   22.4070 C   0  0  0  0  0  0  0  0  0  0  0  0
   11.0625   -3.0028   18.8894 C   0  0  0  0  0  0  0  0  0  0  0  0
    5.6180   -7.9194   16.1754 O   0  0  0  0  0  0  0  0  0  0  0  0
    9.7259   -5.3080   18.4485 C   0  0  0  0  0  0  0  0  0  0  0  0
    9.4578   -5.0200   16.3036 N   0  0  0  0  0  0  0  0  0  0  0  0
    5.0287   -8.9365   16.8223 C   0  0  0  0  0  0  0  0  0  0  0  0
    8.7742   -6.1498   16.6764 C   0  0  0  0  0  0  0  0  0  0  0  0
   10.9418   -3.4032   21.2053 O   0  0  0  0  0  0  0  0  0  0  0  0
    1.4797   -8.6258   16.2950 C   0  0  0  0  0  0  0  0  0  0  0  0
    9.2861   -1.2743   25.3585 C   0  0  0  0  0  0  0  0  0  0  0  0
    1.8892  -10.3985   17.7511 N   0  0  0  0  0  0  0  0  0  0  0  0
    9.6210   -0.6952   24.0976 C   0  0  0  0  0  0  0  0  0  0  0  0
    7.0792   -9.0217   17.1429 C   0  0  0  0  0  0  0  0  0  0  0  0
    3.1713  -10.1816   17.6634 C   0  0  0  0  0  0  0  0  0  0  0  0
    2.7878   -8.3822   16.2137 C   0  0  0  0  0  0  0  0  0  0  0  0
    9.4601   -2.6590   25.6528 C   0  0  0  0  0  0  0  0  0  0  0  0
   10.1182   -1.5672   23.1165 C   0  0  0  0  0  0  0  0  0  0  0  0
    1.0552   -9.6360   17.0650 C   0  0  0  0  0  0  0  0  0  0  0  0
    3.6519   -9.1783   16.9039 C   0  0  0  0  0  0  0  0  0  0  0  0
    7.8675   -7.0096   15.9415 C   0  0  0  0  0  0  0  0  0  0  0  0
    5.9733   -9.6553   17.3832 N   0  0  0  0  0  0  0  0  0  0  0  0
   10.2411   -2.9363   23.4301 C   0  0  0  0  0  0  0  0  0  0  0  0
   10.7288   -3.8197   19.9525 C   0  0  0  0  0  0  0  0  0  0  0  0
   10.1189   -5.0054   19.6987 C   0  0  0  0  0  0  0  0  0  0  0  0
  1  3  4  0
  1  7  4  0
  2 21  4  0
  2 27  4  0
  3  9  4  0
  3 10  4  0
  4  8  4  0
  4 18  4  0
  4 25  1  0
  5  9  4  0
  5 12  4  0
  6 13  1  0
  6 27  1  0
  7 28  4  0
  8 11  4  0
  9 29  4  0
 10 12  4  0
 11 24  1  0
 11 26  4  0
 12 25  1  0
 13 28  1  0
 14 20  4  0
 14 23  4  0
 15 17  4  0
 15 21  4  0
 16 19  4  0
 16 23  4  0
 17 22  4  0
 18 26  4  0
 19 24  4  0
 20 24  4  0
 22 27  4  0
 28 29  4  0
M  END
$$$$

 Created by Python create_sdf_string function

 29 33  0  0  0  0  0  0  0  0999 V2000
   10.7215   -3.3326   17.6437 C   0  0  0  0  0  0  0  0  0  0  0  0
    9.9489   -3.4675   24.6487 N   0  0  0  0  0  0  0  0  0  0  0  0
   10.0172   -4.4740   17.4101 C   0  0  0  0  0  0  0  0  0  0  0  0
    6.9051   -7.9575   16.4222 C   0  0  0  0  0  0  0  0  0  0  0  0
    8.9969   -6.3552   17.9668 N   0  0  0  0  0  0  0  0  0  0  0  0
   10.6702   -3.9051   22.4070 C   0  0  0  0  0  0  0  0  0  0  0  0
   11.0625   -3.0028   18.8894 C   0  0  0  0  0  0  0  0  0  0  0  0
    5.6180   -7.9194   16.1754 O   0  0  0  0  0  0  0  0  0  0  0  0
    9.7259   -5.3080   18.4485 C   0  0  0  0  0  0  0  0  0  0  0  0
    9.4578   -5.0200   16.3036 N   0  0  0  0  0  0  0  0  0  0  0  0
    5.0287   -8.9365   16.8223 C   0  0  0  0  0  0  0  0  0  0  0  0
    8.7742   -6.1498   16.6764 C   0  0  0  0  0  0  0  0  0  0  0  0
   10.9418   -3.4032   21.2053 O   0  0  0  0  0  0  0  0  0  0  0  0
    1.4797   -8.6258   16.2950 C   0  0  0  0  0  0  0  0  0  0  0  0
    9.2861   -1.2743   25.3585 C   0  0  0  0  0  0  0  0  0  0  0  0
    1.8892  -10.3985   17.7511 N   0  0  0  0  0  0  0  0  0  0  0  0
    9.6210   -0.6952   24.0976 C   0  0  0  0  0  0  0  0  0  0  0  0
    7.0792   -9.0217   17.1429 C   0  0  0  0  0  0  0  0  0  0  0  0
    3.1713  -10.1816   17.6634 C   0  0  0  0  0  0  0  0  0  0  0  0
    2.7878   -8.3822   16.2137 C   0  0  0  0  0  0  0  0  0  0  0  0
    9.4601   -2.6590   25.6528 C   0  0  0  0  0  0  0  0  0  0  0  0
   10.1182   -1.5672   23.1165 C   0  0  0  0  0  0  0  0  0  0  0  0
    1.0552   -9.6360   17.0650 C   0  0  0  0  0  0  0  0  0  0  0  0
    3.6519   -9.1783   16.9039 C   0  0  0  0  0  0  0  0  0  0  0  0
    7.8675   -7.0096   15.9415 C   0  0  0  0  0  0  0  0  0  0  0  0
    5.9733   -9.6553   17.3832 N   0  0  0  0  0  0  0  0  0  0  0  0
   10.2411   -2.9363   23.4301 C   0  0  0  0  0  0  0  0  0  0  0  0
   10.7288   -3.8197   19.9525 C   0  0  0  0  0  0  0  0  0  0  0  0
   10.1189   -5.0054   19.6987 C   0  0  0  0  0  0  0  0  0  0  0  0
  1  3  4  0
  1  7  4  0
  2 21  4  0
  2 27  4  0
  3  9  4  0
  3 10  4  0
  4  8  4  0
  4 18  4  0
  4 25  1  0
  5  9  4  0
  5 12  4  0
  6 13  1  0
  6 27  1  0
  7 28  4  0
  8 11  4  0
  9 29  4  0
 10 12  4  0
 11 24  1  0
 11 26  4  0
 12 25  1  0
 13 28  1  0
 14 20  4  0
 14 23  4  0
 15 17  4  0
 15 21  4  0
 16 19  4  0
 16 23  4  0
 17 22  4  0
 18 26  4  0
 19 24  4  0
 20 24  4  0
 22 27  4  0
 28 29  4  0
M  END
$$$$

 Created by Python create_sdf_string function

 29 33  0  0  0  0  0  0  0  0999 V2000
   10.7215   -3.3326   17.6437 C   0  0  0  0  0  0  0  0  0  0  0  0
    9.9489   -3.4675   24.6487 N   0  0  0  0  0  0  0  0  0  0  0  0
   10.0172   -4.4740   17.4101 C   0  0  0  0  0  0  0  0  0  0  0  0
    6.9051   -7.9575   16.4222 C   0  0  0  0  0  0  0  0  0  0  0  0
    8.9969   -6.3552   17.9668 N   0  0  0  0  0  0  0  0  0  0  0  0
   10.6702   -3.9051   22.4070 C   0  0  0  0  0  0  0  0  0  0  0  0
   11.0625   -3.0028   18.8894 C   0  0  0  0  0  0  0  0  0  0  0  0
    5.6180   -7.9194   16.1754 O   0  0  0  0  0  0  0  0  0  0  0  0
    9.7259   -5.3080   18.4485 C   0  0  0  0  0  0  0  0  0  0  0  0
    9.4578   -5.0200   16.3036 N   0  0  0  0  0  0  0  0  0  0  0  0
    5.0287   -8.9365   16.8223 C   0  0  0  0  0  0  0  0  0  0  0  0
    8.7742   -6.1498   16.6764 C   0  0  0  0  0  0  0  0  0  0  0  0
   10.9418   -3.4032   21.2053 O   0  0  0  0  0  0  0  0  0  0  0  0
    1.4797   -8.6258   16.2950 C   0  0  0  0  0  0  0  0  0  0  0  0
    9.2861   -1.2743   25.3585 C   0  0  0  0  0  0  0  0  0  0  0  0
    1.8892  -10.3985   17.7511 N   0  0  0  0  0  0  0  0  0  0  0  0
    9.6210   -0.6952   24.0976 C   0  0  0  0  0  0  0  0  0  0  0  0
    7.0792   -9.0217   17.1429 C   0  0  0  0  0  0  0  0  0  0  0  0
    3.1713  -10.1816   17.6634 C   0  0  0  0  0  0  0  0  0  0  0  0
    2.7878   -8.3822   16.2137 C   0  0  0  0  0  0  0  0  0  0  0  0
    9.4601   -2.6590   25.6528 C   0  0  0  0  0  0  0  0  0  0  0  0
   10.1182   -1.5672   23.1165 C   0  0  0  0  0  0  0  0  0  0  0  0
    1.0552   -9.6360   17.0650 C   0  0  0  0  0  0  0  0  0  0  0  0
    3.6519   -9.1783   16.9039 C   0  0  0  0  0  0  0  0  0  0  0  0
    7.8675   -7.0096   15.9415 C   0  0  0  0  0  0  0  0  0  0  0  0
    5.9733   -9.6553   17.3832 N   0  0  0  0  0  0  0  0  0  0  0  0
   10.2411   -2.9363   23.4301 C   0  0  0  0  0  0  0  0  0  0  0  0
   10.7288   -3.8197   19.9525 C   0  0  0  0  0  0  0  0  0  0  0  0
   10.1189   -5.0054   19.6987 C   0  0  0  0  0  0  0  0  0  0  0  0
  1  3  4  0
  1  7  4  0
  2 21  4  0
  2 27  4  0
  3  9  4  0
  3 10  4  0
  4  8  4  0
  4 18  4  0
  4 25  1  0
  5  9  4  0
  5 12  4  0
  6 13  1  0
  6 27  1  0
  7 28  4  0
  8 11  4  0
  9 29  4  0
 10 12  4  0
 11 24  1  0
 11 26  4  0
 12 25  1  0
 13 28  1  0
 14 20  4  0
 14 23  4  0
 15 17  4  0
 15 21  4  0
 16 19  4  0
 16 23  4  0
 17 22  4  0
 18 26  4  0
 19 24  4  0
 20 24  4  0
 22 27  4  0
 28 29  4  0
M  END
$$$$

 Created by Python create_sdf_string function

 29 33  0  0  0  0  0  0  0  0999 V2000
   10.7215   -3.3326   17.6437 C   0  0  0  0  0  0  0  0  0  0  0  0
    9.9489   -3.4675   24.6487 N   0  0  0  0  0  0  0  0  0  0  0  0
   10.0172   -4.4740   17.4101 C   0  0  0  0  0  0  0  0  0  0  0  0
    6.9051   -7.9575   16.4222 C   0  0  0  0  0  0  0  0  0  0  0  0
    8.9969   -6.3552   17.9668 N   0  0  0  0  0  0  0  0  0  0  0  0
   10.6702   -3.9051   22.4070 C   0  0  0  0  0  0  0  0  0  0  0  0
   11.0625   -3.0028   18.8894 C   0  0  0  0  0  0  0  0  0  0  0  0
    5.6180   -7.9194   16.1754 O   0  0  0  0  0  0  0  0  0  0  0  0
    9.7259   -5.3080   18.4485 C   0  0  0  0  0  0  0  0  0  0  0  0
    9.4578   -5.0200   16.3036 N   0  0  0  0  0  0  0  0  0  0  0  0
    5.0287   -8.9365   16.8223 C   0  0  0  0  0  0  0  0  0  0  0  0
    8.7742   -6.1498   16.6764 C   0  0  0  0  0  0  0  0  0  0  0  0
   10.9418   -3.4032   21.2053 O   0  0  0  0  0  0  0  0  0  0  0  0
    1.4797   -8.6258   16.2950 C   0  0  0  0  0  0  0  0  0  0  0  0
    9.2861   -1.2743   25.3585 C   0  0  0  0  0  0  0  0  0  0  0  0
    1.8892  -10.3985   17.7511 N   0  0  0  0  0  0  0  0  0  0  0  0
    9.6210   -0.6952   24.0976 C   0  0  0  0  0  0  0  0  0  0  0  0
    7.0792   -9.0217   17.1429 C   0  0  0  0  0  0  0  0  0  0  0  0
    3.1713  -10.1816   17.6634 C   0  0  0  0  0  0  0  0  0  0  0  0
    2.7878   -8.3822   16.2137 C   0  0  0  0  0  0  0  0  0  0  0  0
    9.4601   -2.6590   25.6528 C   0  0  0  0  0  0  0  0  0  0  0  0
   10.1182   -1.5672   23.1165 C   0  0  0  0  0  0  0  0  0  0  0  0
    1.0552   -9.6360   17.0650 C   0  0  0  0  0  0  0  0  0  0  0  0
    3.6519   -9.1783   16.9039 C   0  0  0  0  0  0  0  0  0  0  0  0
    7.8675   -7.0096   15.9415 C   0  0  0  0  0  0  0  0  0  0  0  0
    5.9733   -9.6553   17.3832 N   0  0  0  0  0  0  0  0  0  0  0  0
   10.2411   -2.9363   23.4301 C   0  0  0  0  0  0  0  0  0  0  0  0
   10.7288   -3.8197   19.9525 C   0  0  0  0  0  0  0  0  0  0  0  0
   10.1189   -5.0054   19.6987 C   0  0  0  0  0  0  0  0  0  0  0  0
  1  3  4  0
  1  7  4  0
  2 21  4  0
  2 27  4  0
  3  9  4  0
  3 10  4  0
  4  8  4  0
  4 18  4  0
  4 25  1  0
  5  9  4  0
  5 12  4  0
  6 13  1  0
  6 27  1  0
  7 28  4  0
  8 11  4  0
  9 29  4  0
 10 12  4  0
 11 24  1  0
 11 26  4  0
 12 25  1  0
 13 28  1  0
 14 20  4  0
 14 23  4  0
 15 17  4  0
 15 21  4  0
 16 19  4  0
 16 23  4  0
 17 22  4  0
 18 26  4  0
 19 24  4  0
 20 24  4  0
 22 27  4  0
 28 29  4  0
M  END
$$$$

 Created by Python create_sdf_string function

 29 33  0  0  0  0  0  0  0  0999 V2000
   10.7215   -3.3326   17.6437 C   0  0  0  0  0  0  0  0  0  0  0  0
    9.9489   -3.4675   24.6487 N   0  0  0  0  0  0  0  0  0  0  0  0
   10.0172   -4.4740   17.4101 C   0  0  0  0  0  0  0  0  0  0  0  0
    6.9051   -7.9575   16.4222 C   0  0  0  0  0  0  0  0  0  0  0  0
    8.9969   -6.3552   17.9668 N   0  0  0  0  0  0  0  0  0  0  0  0
   10.6702   -3.9051   22.4070 C   0  0  0  0  0  0  0  0  0  0  0  0
   11.0625   -3.0028   18.8894 C   0  0  0  0  0  0  0  0  0  0  0  0
    5.6180   -7.9194   16.1754 O   0  0  0  0  0  0  0  0  0  0  0  0
    9.7259   -5.3080   18.4485 C   0  0  0  0  0  0  0  0  0  0  0  0
    9.4578   -5.0200   16.3036 N   0  0  0  0  0  0  0  0  0  0  0  0
    5.0287   -8.9365   16.8223 C   0  0  0  0  0  0  0  0  0  0  0  0
    8.7742   -6.1498   16.6764 C   0  0  0  0  0  0  0  0  0  0  0  0
   10.9418   -3.4032   21.2053 O   0  0  0  0  0  0  0  0  0  0  0  0
    1.4797   -8.6258   16.2950 C   0  0  0  0  0  0  0  0  0  0  0  0
    9.2861   -1.2743   25.3585 C   0  0  0  0  0  0  0  0  0  0  0  0
    1.8892  -10.3985   17.7511 N   0  0  0  0  0  0  0  0  0  0  0  0
    9.6210   -0.6952   24.0976 C   0  0  0  0  0  0  0  0  0  0  0  0
    7.0792   -9.0217   17.1429 C   0  0  0  0  0  0  0  0  0  0  0  0
    3.1713  -10.1816   17.6634 C   0  0  0  0  0  0  0  0  0  0  0  0
    2.7878   -8.3822   16.2137 C   0  0  0  0  0  0  0  0  0  0  0  0
    9.4601   -2.6590   25.6528 C   0  0  0  0  0  0  0  0  0  0  0  0
   10.1182   -1.5672   23.1165 C   0  0  0  0  0  0  0  0  0  0  0  0
    1.0552   -9.6360   17.0650 C   0  0  0  0  0  0  0  0  0  0  0  0
    3.6519   -9.1783   16.9039 C   0  0  0  0  0  0  0  0  0  0  0  0
    7.8675   -7.0096   15.9415 C   0  0  0  0  0  0  0  0  0  0  0  0
    5.9733   -9.6553   17.3832 N   0  0  0  0  0  0  0  0  0  0  0  0
   10.2411   -2.9363   23.4301 C   0  0  0  0  0  0  0  0  0  0  0  0
   10.7288   -3.8197   19.9525 C   0  0  0  0  0  0  0  0  0  0  0  0
   10.1189   -5.0054   19.6987 C   0  0  0  0  0  0  0  0  0  0  0  0
  1  3  4  0
  1  7  4  0
  2 21  4  0
  2 27  4  0
  3  9  4  0
  3 10  4  0
  4  8  4  0
  4 18  4  0
  4 25  1  0
  5  9  4  0
  5 12  4  0
  6 13  1  0
  6 27  1  0
  7 28  4  0
  8 11  4  0
  9 29  4  0
 10 12  4  0
 11 24  1  0
 11 26  4  0
 12 25  1  0
 13 28  1  0
 14 20  4  0
 14 23  4  0
 15 17  4  0
 15 21  4  0
 16 19  4  0
 16 23  4  0
 17 22  4  0
 18 26  4  0
 19 24  4  0
 20 24  4  0
 22 27  4  0
 28 29  4  0
M  END
$$$$

 Created by Python create_sdf_string function

 29 33  0  0  0  0  0  0  0  0999 V2000
   10.7215   -3.3326   17.6437 C   0  0  0  0  0  0  0  0  0  0  0  0
    9.9489   -3.4675   24.6487 N   0  0  0  0  0  0  0  0  0  0  0  0
   10.0172   -4.4740   17.4101 C   0  0  0  0  0  0  0  0  0  0  0  0
    6.9051   -7.9575   16.4222 C   0  0  0  0  0  0  0  0  0  0  0  0
    8.9969   -6.3552   17.9668 N   0  0  0  0  0  0  0  0  0  0  0  0
   10.6702   -3.9051   22.4070 C   0  0  0  0  0  0  0  0  0  0  0  0
   11.0625   -3.0028   18.8894 C   0  0  0  0  0  0  0  0  0  0  0  0
    5.6180   -7.9194   16.1754 O   0  0  0  0  0  0  0  0  0  0  0  0
    9.7259   -5.3080   18.4485 C   0  0  0  0  0  0  0  0  0  0  0  0
    9.4578   -5.0200   16.3036 N   0  0  0  0  0  0  0  0  0  0  0  0
    5.0287   -8.9365   16.8223 C   0  0  0  0  0  0  0  0  0  0  0  0
    8.7742   -6.1498   16.6764 C   0  0  0  0  0  0  0  0  0  0  0  0
   10.9418   -3.4032   21.2053 O   0  0  0  0  0  0  0  0  0  0  0  0
    1.4797   -8.6258   16.2950 C   0  0  0  0  0  0  0  0  0  0  0  0
    9.2861   -1.2743   25.3585 C   0  0  0  0  0  0  0  0  0  0  0  0
    1.8892  -10.3985   17.7511 N   0  0  0  0  0  0  0  0  0  0  0  0
    9.6210   -0.6952   24.0976 C   0  0  0  0  0  0  0  0  0  0  0  0
    7.0792   -9.0217   17.1429 C   0  0  0  0  0  0  0  0  0  0  0  0
    3.1713  -10.1816   17.6634 C   0  0  0  0  0  0  0  0  0  0  0  0
    2.7878   -8.3822   16.2137 C   0  0  0  0  0  0  0  0  0  0  0  0
    9.4601   -2.6590   25.6528 C   0  0  0  0  0  0  0  0  0  0  0  0
   10.1182   -1.5672   23.1165 C   0  0  0  0  0  0  0  0  0  0  0  0
    1.0552   -9.6360   17.0650 C   0  0  0  0  0  0  0  0  0  0  0  0
    3.6519   -9.1783   16.9039 C   0  0  0  0  0  0  0  0  0  0  0  0
    7.8675   -7.0096   15.9415 C   0  0  0  0  0  0  0  0  0  0  0  0
    5.9733   -9.6553   17.3832 N   0  0  0  0  0  0  0  0  0  0  0  0
   10.2411   -2.9363   23.4301 C   0  0  0  0  0  0  0  0  0  0  0  0
   10.7288   -3.8197   19.9525 C   0  0  0  0  0  0  0  0  0  0  0  0
   10.1189   -5.0054   19.6987 C   0  0  0  0  0  0  0  0  0  0  0  0
  1  3  4  0
  1  7  4  0
  2 21  4  0
  2 27  4  0
  3  9  4  0
  3 10  4  0
  4  8  4  0
  4 18  4  0
  4 25  1  0
  5  9  4  0
  5 12  4  0
  6 13  1  0
  6 27  1  0
  7 28  4  0
  8 11  4  0
  9 29  4  0
 10 12  4  0
 11 24  1  0
 11 26  4  0
 12 25  1  0
 13 28  1  0
 14 20  4  0
 14 23  4  0
 15 17  4  0
 15 21  4  0
 16 19  4  0
 16 23  4  0
 17 22  4  0
 18 26  4  0
 19 24  4  0
 20 24  4  0
 22 27  4  0
 28 29  4  0
M  END
$$$$

 Created by Python create_sdf_string function

 29 33  0  0  0  0  0  0  0  0999 V2000
   10.7215   -3.3326   17.6437 C   0  0  0  0  0  0  0  0  0  0  0  0
    9.9489   -3.4675   24.6487 N   0  0  0  0  0  0  0  0  0  0  0  0
   10.0172   -4.4740   17.4101 C   0  0  0  0  0  0  0  0  0  0  0  0
    6.9051   -7.9575   16.4222 C   0  0  0  0  0  0  0  0  0  0  0  0
    8.9969   -6.3552   17.9668 N   0  0  0  0  0  0  0  0  0  0  0  0
   10.6702   -3.9051   22.4070 C   0  0  0  0  0  0  0  0  0  0  0  0
   11.0625   -3.0028   18.8894 C   0  0  0  0  0  0  0  0  0  0  0  0
    5.6180   -7.9194   16.1754 O   0  0  0  0  0  0  0  0  0  0  0  0
    9.7259   -5.3080   18.4485 C   0  0  0  0  0  0  0  0  0  0  0  0
    9.4578   -5.0200   16.3036 N   0  0  0  0  0  0  0  0  0  0  0  0
    5.0287   -8.9365   16.8223 C   0  0  0  0  0  0  0  0  0  0  0  0
    8.7742   -6.1498   16.6764 C   0  0  0  0  0  0  0  0  0  0  0  0
   10.9418   -3.4032   21.2053 O   0  0  0  0  0  0  0  0  0  0  0  0
    1.4797   -8.6258   16.2950 C   0  0  0  0  0  0  0  0  0  0  0  0
    9.2861   -1.2743   25.3585 C   0  0  0  0  0  0  0  0  0  0  0  0
    1.8892  -10.3985   17.7511 N   0  0  0  0  0  0  0  0  0  0  0  0
    9.6210   -0.6952   24.0976 C   0  0  0  0  0  0  0  0  0  0  0  0
    7.0792   -9.0217   17.1429 C   0  0  0  0  0  0  0  0  0  0  0  0
    3.1713  -10.1816   17.6634 C   0  0  0  0  0  0  0  0  0  0  0  0
    2.7878   -8.3822   16.2137 C   0  0  0  0  0  0  0  0  0  0  0  0
    9.4601   -2.6590   25.6528 C   0  0  0  0  0  0  0  0  0  0  0  0
   10.1182   -1.5672   23.1165 C   0  0  0  0  0  0  0  0  0  0  0  0
    1.0552   -9.6360   17.0650 C   0  0  0  0  0  0  0  0  0  0  0  0
    3.6519   -9.1783   16.9039 C   0  0  0  0  0  0  0  0  0  0  0  0
    7.8675   -7.0096   15.9415 C   0  0  0  0  0  0  0  0  0  0  0  0
    5.9733   -9.6553   17.3832 N   0  0  0  0  0  0  0  0  0  0  0  0
   10.2411   -2.9363   23.4301 C   0  0  0  0  0  0  0  0  0  0  0  0
   10.7288   -3.8197   19.9525 C   0  0  0  0  0  0  0  0  0  0  0  0
   10.1189   -5.0054   19.6987 C   0  0  0  0  0  0  0  0  0  0  0  0
  1  3  4  0
  1  7  4  0
  2 21  4  0
  2 27  4  0
  3  9  4  0
  3 10  4  0
  4  8  4  0
  4 18  4  0
  4 25  1  0
  5  9  4  0
  5 12  4  0
  6 13  1  0
  6 27  1  0
  7 28  4  0
  8 11  4  0
  9 29  4  0
 10 12  4  0
 11 24  1  0
 11 26  4  0
 12 25  1  0
 13 28  1  0
 14 20  4  0
 14 23  4  0
 15 17  4  0
 15 21  4  0
 16 19  4  0
 16 23  4  0
 17 22  4  0
 18 26  4  0
 19 24  4  0
 20 24  4  0
 22 27  4  0
 28 29  4  0
M  END
$$$$

 Created by Python create_sdf_string function

 29 33  0  0  0  0  0  0  0  0999 V2000
   10.7215   -3.3326   17.6437 C   0  0  0  0  0  0  0  0  0  0  0  0
    9.9489   -3.4675   24.6487 N   0  0  0  0  0  0  0  0  0  0  0  0
   10.0172   -4.4740   17.4101 C   0  0  0  0  0  0  0  0  0  0  0  0
    6.9051   -7.9575   16.4222 C   0  0  0  0  0  0  0  0  0  0  0  0
    8.9969   -6.3552   17.9668 N   0  0  0  0  0  0  0  0  0  0  0  0
   10.6702   -3.9051   22.4070 C   0  0  0  0  0  0  0  0  0  0  0  0
   11.0625   -3.0028   18.8894 C   0  0  0  0  0  0  0  0  0  0  0  0
    5.6180   -7.9194   16.1754 O   0  0  0  0  0  0  0  0  0  0  0  0
    9.7259   -5.3080   18.4485 C   0  0  0  0  0  0  0  0  0  0  0  0
    9.4578   -5.0200   16.3036 N   0  0  0  0  0  0  0  0  0  0  0  0
    5.0287   -8.9365   16.8223 C   0  0  0  0  0  0  0  0  0  0  0  0
    8.7742   -6.1498   16.6764 C   0  0  0  0  0  0  0  0  0  0  0  0
   10.9418   -3.4032   21.2053 O   0  0  0  0  0  0  0  0  0  0  0  0
    1.4797   -8.6258   16.2950 C   0  0  0  0  0  0  0  0  0  0  0  0
    9.2861   -1.2743   25.3585 C   0  0  0  0  0  0  0  0  0  0  0  0
    1.8892  -10.3985   17.7511 N   0  0  0  0  0  0  0  0  0  0  0  0
    9.6210   -0.6952   24.0976 C   0  0  0  0  0  0  0  0  0  0  0  0
    7.0792   -9.0217   17.1429 C   0  0  0  0  0  0  0  0  0  0  0  0
    3.1713  -10.1816   17.6634 C   0  0  0  0  0  0  0  0  0  0  0  0
    2.7878   -8.3822   16.2137 C   0  0  0  0  0  0  0  0  0  0  0  0
    9.4601   -2.6590   25.6528 C   0  0  0  0  0  0  0  0  0  0  0  0
   10.1182   -1.5672   23.1165 C   0  0  0  0  0  0  0  0  0  0  0  0
    1.0552   -9.6360   17.0650 C   0  0  0  0  0  0  0  0  0  0  0  0
    3.6519   -9.1783   16.9039 C   0  0  0  0  0  0  0  0  0  0  0  0
    7.8675   -7.0096   15.9415 C   0  0  0  0  0  0  0  0  0  0  0  0
    5.9733   -9.6553   17.3832 N   0  0  0  0  0  0  0  0  0  0  0  0
   10.2411   -2.9363   23.4301 C   0  0  0  0  0  0  0  0  0  0  0  0
   10.7288   -3.8197   19.9525 C   0  0  0  0  0  0  0  0  0  0  0  0
   10.1189   -5.0054   19.6987 C   0  0  0  0  0  0  0  0  0  0  0  0
  1  3  4  0
  1  7  4  0
  2 21  4  0
  2 27  4  0
  3  9  4  0
  3 10  4  0
  4  8  4  0
  4 18  4  0
  4 25  1  0
  5  9  4  0
  5 12  4  0
  6 13  1  0
  6 27  1  0
  7 28  4  0
  8 11  4  0
  9 29  4  0
 10 12  4  0
 11 24  1  0
 11 26  4  0
 12 25  1  0
 13 28  1  0
 14 20  4  0
 14 23  4  0
 15 17  4  0
 15 21  4  0
 16 19  4  0
 16 23  4  0
 17 22  4  0
 18 26  4  0
 19 24  4  0
 20 24  4  0
 22 27  4  0
 28 29  4  0
M  END
$$$$

 Created by Python create_sdf_string function

 29 33  0  0  0  0  0  0  0  0999 V2000
   10.7215   -3.3326   17.6437 C   0  0  0  0  0  0  0  0  0  0  0  0
    9.9489   -3.4675   24.6487 N   0  0  0  0  0  0  0  0  0  0  0  0
   10.0172   -4.4740   17.4101 C   0  0  0  0  0  0  0  0  0  0  0  0
    6.9051   -7.9575   16.4222 C   0  0  0  0  0  0  0  0  0  0  0  0
    8.9969   -6.3552   17.9668 N   0  0  0  0  0  0  0  0  0  0  0  0
   10.6702   -3.9051   22.4070 C   0  0  0  0  0  0  0  0  0  0  0  0
   11.0625   -3.0028   18.8894 C   0  0  0  0  0  0  0  0  0  0  0  0
    5.6180   -7.9194   16.1754 O   0  0  0  0  0  0  0  0  0  0  0  0
    9.7259   -5.3080   18.4485 C   0  0  0  0  0  0  0  0  0  0  0  0
    9.4578   -5.0200   16.3036 N   0  0  0  0  0  0  0  0  0  0  0  0
    5.0287   -8.9365   16.8223 C   0  0  0  0  0  0  0  0  0  0  0  0
    8.7742   -6.1498   16.6764 C   0  0  0  0  0  0  0  0  0  0  0  0
   10.9418   -3.4032   21.2053 O   0  0  0  0  0  0  0  0  0  0  0  0
    1.4797   -8.6258   16.2950 C   0  0  0  0  0  0  0  0  0  0  0  0
    9.2861   -1.2743   25.3585 C   0  0  0  0  0  0  0  0  0  0  0  0
    1.8892  -10.3985   17.7511 N   0  0  0  0  0  0  0  0  0  0  0  0
    9.6210   -0.6952   24.0976 C   0  0  0  0  0  0  0  0  0  0  0  0
    7.0792   -9.0217   17.1429 C   0  0  0  0  0  0  0  0  0  0  0  0
    3.1713  -10.1816   17.6634 C   0  0  0  0  0  0  0  0  0  0  0  0
    2.7878   -8.3822   16.2137 C   0  0  0  0  0  0  0  0  0  0  0  0
    9.4601   -2.6590   25.6528 C   0  0  0  0  0  0  0  0  0  0  0  0
   10.1182   -1.5672   23.1165 C   0  0  0  0  0  0  0  0  0  0  0  0
    1.0552   -9.6360   17.0650 C   0  0  0  0  0  0  0  0  0  0  0  0
    3.6519   -9.1783   16.9039 C   0  0  0  0  0  0  0  0  0  0  0  0
    7.8675   -7.0096   15.9415 C   0  0  0  0  0  0  0  0  0  0  0  0
    5.9733   -9.6553   17.3832 N   0  0  0  0  0  0  0  0  0  0  0  0
   10.2411   -2.9363   23.4301 C   0  0  0  0  0  0  0  0  0  0  0  0
   10.7288   -3.8197   19.9525 C   0  0  0  0  0  0  0  0  0  0  0  0
   10.1189   -5.0054   19.6987 C   0  0  0  0  0  0  0  0  0  0  0  0
  1  3  4  0
  1  7  4  0
  2 21  4  0
  2 27  4  0
  3  9  4  0
  3 10  4  0
  4  8  4  0
  4 18  4  0
  4 25  1  0
  5  9  4  0
  5 12  4  0
  6 13  1  0
  6 27  1  0
  7 28  4  0
  8 11  4  0
  9 29  4  0
 10 12  4  0
 11 24  1  0
 11 26  4  0
 12 25  1  0
 13 28  1  0
 14 20  4  0
 14 23  4  0
 15 17  4  0
 15 21  4  0
 16 19  4  0
 16 23  4  0
 17 22  4  0
 18 26  4  0
 19 24  4  0
 20 24  4  0
 22 27  4  0
 28 29  4  0
M  END
$$$$

 Created by Python create_sdf_string function

 29 33  0  0  0  0  0  0  0  0999 V2000
   10.7215   -3.3326   17.6437 C   0  0  0  0  0  0  0  0  0  0  0  0
    9.9489   -3.4675   24.6487 N   0  0  0  0  0  0  0  0  0  0  0  0
   10.0172   -4.4740   17.4101 C   0  0  0  0  0  0  0  0  0  0  0  0
    6.9051   -7.9575   16.4222 C   0  0  0  0  0  0  0  0  0  0  0  0
    8.9969   -6.3552   17.9668 N   0  0  0  0  0  0  0  0  0  0  0  0
   10.6702   -3.9051   22.4070 C   0  0  0  0  0  0  0  0  0  0  0  0
   11.0625   -3.0028   18.8894 C   0  0  0  0  0  0  0  0  0  0  0  0
    5.6180   -7.9194   16.1754 O   0  0  0  0  0  0  0  0  0  0  0  0
    9.7259   -5.3080   18.4485 C   0  0  0  0  0  0  0  0  0  0  0  0
    9.4578   -5.0200   16.3036 N   0  0  0  0  0  0  0  0  0  0  0  0
    5.0287   -8.9365   16.8223 C   0  0  0  0  0  0  0  0  0  0  0  0
    8.7742   -6.1498   16.6764 C   0  0  0  0  0  0  0  0  0  0  0  0
   10.9418   -3.4032   21.2053 O   0  0  0  0  0  0  0  0  0  0  0  0
    1.4797   -8.6258   16.2950 C   0  0  0  0  0  0  0  0  0  0  0  0
    9.2861   -1.2743   25.3585 C   0  0  0  0  0  0  0  0  0  0  0  0
    1.8892  -10.3985   17.7511 N   0  0  0  0  0  0  0  0  0  0  0  0
    9.6210   -0.6952   24.0976 C   0  0  0  0  0  0  0  0  0  0  0  0
    7.0792   -9.0217   17.1429 C   0  0  0  0  0  0  0  0  0  0  0  0
    3.1713  -10.1816   17.6634 C   0  0  0  0  0  0  0  0  0  0  0  0
    2.7878   -8.3822   16.2137 C   0  0  0  0  0  0  0  0  0  0  0  0
    9.4601   -2.6590   25.6528 C   0  0  0  0  0  0  0  0  0  0  0  0
   10.1182   -1.5672   23.1165 C   0  0  0  0  0  0  0  0  0  0  0  0
    1.0552   -9.6360   17.0650 C   0  0  0  0  0  0  0  0  0  0  0  0
    3.6519   -9.1783   16.9039 C   0  0  0  0  0  0  0  0  0  0  0  0
    7.8675   -7.0096   15.9415 C   0  0  0  0  0  0  0  0  0  0  0  0
    5.9733   -9.6553   17.3832 N   0  0  0  0  0  0  0  0  0  0  0  0
   10.2411   -2.9363   23.4301 C   0  0  0  0  0  0  0  0  0  0  0  0
   10.7288   -3.8197   19.9525 C   0  0  0  0  0  0  0  0  0  0  0  0
   10.1189   -5.0054   19.6987 C   0  0  0  0  0  0  0  0  0  0  0  0
  1  3  4  0
  1  7  4  0
  2 21  4  0
  2 27  4  0
  3  9  4  0
  3 10  4  0
  4  8  4  0
  4 18  4  0
  4 25  1  0
  5  9  4  0
  5 12  4  0
  6 13  1  0
  6 27  1  0
  7 28  4  0
  8 11  4  0
  9 29  4  0
 10 12  4  0
 11 24  1  0
 11 26  4  0
 12 25  1  0
 13 28  1  0
 14 20  4  0
 14 23  4  0
 15 17  4  0
 15 21  4  0
 16 19  4  0
 16 23  4  0
 17 22  4  0
 18 26  4  0
 19 24  4  0
 20 24  4  0
 22 27  4  0
 28 29  4  0
M  END
$$$$

 Created by Python create_sdf_string function

 29 33  0  0  0  0  0  0  0  0999 V2000
   10.7215   -3.3326   17.6437 C   0  0  0  0  0  0  0  0  0  0  0  0
    9.9489   -3.4675   24.6487 N   0  0  0  0  0  0  0  0  0  0  0  0
   10.0172   -4.4740   17.4101 C   0  0  0  0  0  0  0  0  0  0  0  0
    6.9051   -7.9575   16.4222 C   0  0  0  0  0  0  0  0  0  0  0  0
    8.9969   -6.3552   17.9668 N   0  0  0  0  0  0  0  0  0  0  0  0
   10.6702   -3.9051   22.4070 C   0  0  0  0  0  0  0  0  0  0  0  0
   11.0625   -3.0028   18.8894 C   0  0  0  0  0  0  0  0  0  0  0  0
    5.6180   -7.9194   16.1754 O   0  0  0  0  0  0  0  0  0  0  0  0
    9.7259   -5.3080   18.4485 C   0  0  0  0  0  0  0  0  0  0  0  0
    9.4578   -5.0200   16.3036 N   0  0  0  0  0  0  0  0  0  0  0  0
    5.0287   -8.9365   16.8223 C   0  0  0  0  0  0  0  0  0  0  0  0
    8.7742   -6.1498   16.6764 C   0  0  0  0  0  0  0  0  0  0  0  0
   10.9418   -3.4032   21.2053 O   0  0  0  0  0  0  0  0  0  0  0  0
    1.4797   -8.6258   16.2950 C   0  0  0  0  0  0  0  0  0  0  0  0
    9.2861   -1.2743   25.3585 C   0  0  0  0  0  0  0  0  0  0  0  0
    1.8892  -10.3985   17.7511 N   0  0  0  0  0  0  0  0  0  0  0  0
    9.6210   -0.6952   24.0976 C   0  0  0  0  0  0  0  0  0  0  0  0
    7.0792   -9.0217   17.1429 C   0  0  0  0  0  0  0  0  0  0  0  0
    3.1713  -10.1816   17.6634 C   0  0  0  0  0  0  0  0  0  0  0  0
    2.7878   -8.3822   16.2137 C   0  0  0  0  0  0  0  0  0  0  0  0
    9.4601   -2.6590   25.6528 C   0  0  0  0  0  0  0  0  0  0  0  0
   10.1182   -1.5672   23.1165 C   0  0  0  0  0  0  0  0  0  0  0  0
    1.0552   -9.6360   17.0650 C   0  0  0  0  0  0  0  0  0  0  0  0
    3.6519   -9.1783   16.9039 C   0  0  0  0  0  0  0  0  0  0  0  0
    7.8675   -7.0096   15.9415 C   0  0  0  0  0  0  0  0  0  0  0  0
    5.9733   -9.6553   17.3832 N   0  0  0  0  0  0  0  0  0  0  0  0
   10.2411   -2.9363   23.4301 C   0  0  0  0  0  0  0  0  0  0  0  0
   10.7288   -3.8197   19.9525 C   0  0  0  0  0  0  0  0  0  0  0  0
   10.1189   -5.0054   19.6987 C   0  0  0  0  0  0  0  0  0  0  0  0
  1  3  4  0
  1  7  4  0
  2 21  4  0
  2 27  4  0
  3  9  4  0
  3 10  4  0
  4  8  4  0
  4 18  4  0
  4 25  1  0
  5  9  4  0
  5 12  4  0
  6 13  1  0
  6 27  1  0
  7 28  4  0
  8 11  4  0
  9 29  4  0
 10 12  4  0
 11 24  1  0
 11 26  4  0
 12 25  1  0
 13 28  1  0
 14 20  4  0
 14 23  4  0
 15 17  4  0
 15 21  4  0
 16 19  4  0
 16 23  4  0
 17 22  4  0
 18 26  4  0
 19 24  4  0
 20 24  4  0
 22 27  4  0
 28 29  4  0
M  END
$$$$

 Created by Python create_sdf_string function

 29 33  0  0  0  0  0  0  0  0999 V2000
   10.7215   -3.3326   17.6437 C   0  0  0  0  0  0  0  0  0  0  0  0
    9.9489   -3.4675   24.6487 N   0  0  0  0  0  0  0  0  0  0  0  0
   10.0172   -4.4740   17.4101 C   0  0  0  0  0  0  0  0  0  0  0  0
    6.9051   -7.9575   16.4222 C   0  0  0  0  0  0  0  0  0  0  0  0
    8.9969   -6.3552   17.9668 N   0  0  0  0  0  0  0  0  0  0  0  0
   10.6702   -3.9051   22.4070 C   0  0  0  0  0  0  0  0  0  0  0  0
   11.0625   -3.0028   18.8894 C   0  0  0  0  0  0  0  0  0  0  0  0
    5.6180   -7.9194   16.1754 O   0  0  0  0  0  0  0  0  0  0  0  0
    9.7259   -5.3080   18.4485 C   0  0  0  0  0  0  0  0  0  0  0  0
    9.4578   -5.0200   16.3036 N   0  0  0  0  0  0  0  0  0  0  0  0
    5.0287   -8.9365   16.8223 C   0  0  0  0  0  0  0  0  0  0  0  0
    8.7742   -6.1498   16.6764 C   0  0  0  0  0  0  0  0  0  0  0  0
   10.9418   -3.4032   21.2053 O   0  0  0  0  0  0  0  0  0  0  0  0
    1.4797   -8.6258   16.2950 C   0  0  0  0  0  0  0  0  0  0  0  0
    9.2861   -1.2743   25.3585 C   0  0  0  0  0  0  0  0  0  0  0  0
    1.8892  -10.3985   17.7511 N   0  0  0  0  0  0  0  0  0  0  0  0
    9.6210   -0.6952   24.0976 C   0  0  0  0  0  0  0  0  0  0  0  0
    7.0792   -9.0217   17.1429 C   0  0  0  0  0  0  0  0  0  0  0  0
    3.1713  -10.1816   17.6634 C   0  0  0  0  0  0  0  0  0  0  0  0
    2.7878   -8.3822   16.2137 C   0  0  0  0  0  0  0  0  0  0  0  0
    9.4601   -2.6590   25.6528 C   0  0  0  0  0  0  0  0  0  0  0  0
   10.1182   -1.5672   23.1165 C   0  0  0  0  0  0  0  0  0  0  0  0
    1.0552   -9.6360   17.0650 C   0  0  0  0  0  0  0  0  0  0  0  0
    3.6519   -9.1783   16.9039 C   0  0  0  0  0  0  0  0  0  0  0  0
    7.8675   -7.0096   15.9415 C   0  0  0  0  0  0  0  0  0  0  0  0
    5.9733   -9.6553   17.3832 N   0  0  0  0  0  0  0  0  0  0  0  0
   10.2411   -2.9363   23.4301 C   0  0  0  0  0  0  0  0  0  0  0  0
   10.7288   -3.8197   19.9525 C   0  0  0  0  0  0  0  0  0  0  0  0
   10.1189   -5.0054   19.6987 C   0  0  0  0  0  0  0  0  0  0  0  0
  1  3  4  0
  1  7  4  0
  2 21  4  0
  2 27  4  0
  3  9  4  0
  3 10  4  0
  4  8  4  0
  4 18  4  0
  4 25  1  0
  5  9  4  0
  5 12  4  0
  6 13  1  0
  6 27  1  0
  7 28  4  0
  8 11  4  0
  9 29  4  0
 10 12  4  0
 11 24  1  0
 11 26  4  0
 12 25  1  0
 13 28  1  0
 14 20  4  0
 14 23  4  0
 15 17  4  0
 15 21  4  0
 16 19  4  0
 16 23  4  0
 17 22  4  0
 18 26  4  0
 19 24  4  0
 20 24  4  0
 22 27  4  0
 28 29  4  0
M  END
$$$$

 Created by Python create_sdf_string function

 29 33  0  0  0  0  0  0  0  0999 V2000
   10.7215   -3.3326   17.6437 C   0  0  0  0  0  0  0  0  0  0  0  0
    9.9489   -3.4675   24.6487 N   0  0  0  0  0  0  0  0  0  0  0  0
   10.0172   -4.4740   17.4101 C   0  0  0  0  0  0  0  0  0  0  0  0
    6.9051   -7.9575   16.4222 C   0  0  0  0  0  0  0  0  0  0  0  0
    8.9969   -6.3552   17.9668 N   0  0  0  0  0  0  0  0  0  0  0  0
   10.6702   -3.9051   22.4070 C   0  0  0  0  0  0  0  0  0  0  0  0
   11.0625   -3.0028   18.8894 C   0  0  0  0  0  0  0  0  0  0  0  0
    5.6180   -7.9194   16.1754 O   0  0  0  0  0  0  0  0  0  0  0  0
    9.7259   -5.3080   18.4485 C   0  0  0  0  0  0  0  0  0  0  0  0
    9.4578   -5.0200   16.3036 N   0  0  0  0  0  0  0  0  0  0  0  0
    5.0287   -8.9365   16.8223 C   0  0  0  0  0  0  0  0  0  0  0  0
    8.7742   -6.1498   16.6764 C   0  0  0  0  0  0  0  0  0  0  0  0
   10.9418   -3.4032   21.2053 O   0  0  0  0  0  0  0  0  0  0  0  0
    1.4797   -8.6258   16.2950 C   0  0  0  0  0  0  0  0  0  0  0  0
    9.2861   -1.2743   25.3585 C   0  0  0  0  0  0  0  0  0  0  0  0
    1.8892  -10.3985   17.7511 N   0  0  0  0  0  0  0  0  0  0  0  0
    9.6210   -0.6952   24.0976 C   0  0  0  0  0  0  0  0  0  0  0  0
    7.0792   -9.0217   17.1429 C   0  0  0  0  0  0  0  0  0  0  0  0
    3.1713  -10.1816   17.6634 C   0  0  0  0  0  0  0  0  0  0  0  0
    2.7878   -8.3822   16.2137 C   0  0  0  0  0  0  0  0  0  0  0  0
    9.4601   -2.6590   25.6528 C   0  0  0  0  0  0  0  0  0  0  0  0
   10.1182   -1.5672   23.1165 C   0  0  0  0  0  0  0  0  0  0  0  0
    1.0552   -9.6360   17.0650 C   0  0  0  0  0  0  0  0  0  0  0  0
    3.6519   -9.1783   16.9039 C   0  0  0  0  0  0  0  0  0  0  0  0
    7.8675   -7.0096   15.9415 C   0  0  0  0  0  0  0  0  0  0  0  0
    5.9733   -9.6553   17.3832 N   0  0  0  0  0  0  0  0  0  0  0  0
   10.2411   -2.9363   23.4301 C   0  0  0  0  0  0  0  0  0  0  0  0
   10.7288   -3.8197   19.9525 C   0  0  0  0  0  0  0  0  0  0  0  0
   10.1189   -5.0054   19.6987 C   0  0  0  0  0  0  0  0  0  0  0  0
  1  3  4  0
  1  7  4  0
  2 21  4  0
  2 27  4  0
  3  9  4  0
  3 10  4  0
  4  8  4  0
  4 18  4  0
  4 25  1  0
  5  9  4  0
  5 12  4  0
  6 13  1  0
  6 27  1  0
  7 28  4  0
  8 11  4  0
  9 29  4  0
 10 12  4  0
 11 24  1  0
 11 26  4  0
 12 25  1  0
 13 28  1  0
 14 20  4  0
 14 23  4  0
 15 17  4  0
 15 21  4  0
 16 19  4  0
 16 23  4  0
 17 22  4  0
 18 26  4  0
 19 24  4  0
 20 24  4  0
 22 27  4  0
 28 29  4  0
M  END
$$$$

 Created by Python create_sdf_string function

 29 33  0  0  0  0  0  0  0  0999 V2000
   10.7215   -3.3326   17.6437 C   0  0  0  0  0  0  0  0  0  0  0  0
    9.9489   -3.4675   24.6487 N   0  0  0  0  0  0  0  0  0  0  0  0
   10.0172   -4.4740   17.4101 C   0  0  0  0  0  0  0  0  0  0  0  0
    6.9051   -7.9575   16.4222 C   0  0  0  0  0  0  0  0  0  0  0  0
    8.9969   -6.3552   17.9668 N   0  0  0  0  0  0  0  0  0  0  0  0
   10.6702   -3.9051   22.4070 C   0  0  0  0  0  0  0  0  0  0  0  0
   11.0625   -3.0028   18.8894 C   0  0  0  0  0  0  0  0  0  0  0  0
    5.6180   -7.9194   16.1754 O   0  0  0  0  0  0  0  0  0  0  0  0
    9.7259   -5.3080   18.4485 C   0  0  0  0  0  0  0  0  0  0  0  0
    9.4578   -5.0200   16.3036 N   0  0  0  0  0  0  0  0  0  0  0  0
    5.0287   -8.9365   16.8223 C   0  0  0  0  0  0  0  0  0  0  0  0
    8.7742   -6.1498   16.6764 C   0  0  0  0  0  0  0  0  0  0  0  0
   10.9418   -3.4032   21.2053 O   0  0  0  0  0  0  0  0  0  0  0  0
    1.4797   -8.6258   16.2950 C   0  0  0  0  0  0  0  0  0  0  0  0
    9.2861   -1.2743   25.3585 C   0  0  0  0  0  0  0  0  0  0  0  0
    1.8892  -10.3985   17.7511 N   0  0  0  0  0  0  0  0  0  0  0  0
    9.6210   -0.6952   24.0976 C   0  0  0  0  0  0  0  0  0  0  0  0
    7.0792   -9.0217   17.1429 C   0  0  0  0  0  0  0  0  0  0  0  0
    3.1713  -10.1816   17.6634 C   0  0  0  0  0  0  0  0  0  0  0  0
    2.7878   -8.3822   16.2137 C   0  0  0  0  0  0  0  0  0  0  0  0
    9.4601   -2.6590   25.6528 C   0  0  0  0  0  0  0  0  0  0  0  0
   10.1182   -1.5672   23.1165 C   0  0  0  0  0  0  0  0  0  0  0  0
    1.0552   -9.6360   17.0650 C   0  0  0  0  0  0  0  0  0  0  0  0
    3.6519   -9.1783   16.9039 C   0  0  0  0  0  0  0  0  0  0  0  0
    7.8675   -7.0096   15.9415 C   0  0  0  0  0  0  0  0  0  0  0  0
    5.9733   -9.6553   17.3832 N   0  0  0  0  0  0  0  0  0  0  0  0
   10.2411   -2.9363   23.4301 C   0  0  0  0  0  0  0  0  0  0  0  0
   10.7288   -3.8197   19.9525 C   0  0  0  0  0  0  0  0  0  0  0  0
   10.1189   -5.0054   19.6987 C   0  0  0  0  0  0  0  0  0  0  0  0
  1  3  4  0
  1  7  4  0
  2 21  4  0
  2 27  4  0
  3  9  4  0
  3 10  4  0
  4  8  4  0
  4 18  4  0
  4 25  1  0
  5  9  4  0
  5 12  4  0
  6 13  1  0
  6 27  1  0
  7 28  4  0
  8 11  4  0
  9 29  4  0
 10 12  4  0
 11 24  1  0
 11 26  4  0
 12 25  1  0
 13 28  1  0
 14 20  4  0
 14 23  4  0
 15 17  4  0
 15 21  4  0
 16 19  4  0
 16 23  4  0
 17 22  4  0
 18 26  4  0
 19 24  4  0
 20 24  4  0
 22 27  4  0
 28 29  4  0
M  END
$$$$

 Created by Python create_sdf_string function

 29 33  0  0  0  0  0  0  0  0999 V2000
   10.7215   -3.3326   17.6437 C   0  0  0  0  0  0  0  0  0  0  0  0
    9.9489   -3.4675   24.6487 N   0  0  0  0  0  0  0  0  0  0  0  0
   10.0172   -4.4740   17.4101 C   0  0  0  0  0  0  0  0  0  0  0  0
    6.9051   -7.9575   16.4222 C   0  0  0  0  0  0  0  0  0  0  0  0
    8.9969   -6.3552   17.9668 N   0  0  0  0  0  0  0  0  0  0  0  0
   10.6702   -3.9051   22.4070 C   0  0  0  0  0  0  0  0  0  0  0  0
   11.0625   -3.0028   18.8894 C   0  0  0  0  0  0  0  0  0  0  0  0
    5.6180   -7.9194   16.1754 O   0  0  0  0  0  0  0  0  0  0  0  0
    9.7259   -5.3080   18.4485 C   0  0  0  0  0  0  0  0  0  0  0  0
    9.4578   -5.0200   16.3036 N   0  0  0  0  0  0  0  0  0  0  0  0
    5.0287   -8.9365   16.8223 C   0  0  0  0  0  0  0  0  0  0  0  0
    8.7742   -6.1498   16.6764 C   0  0  0  0  0  0  0  0  0  0  0  0
   10.9418   -3.4032   21.2053 O   0  0  0  0  0  0  0  0  0  0  0  0
    1.4797   -8.6258   16.2950 C   0  0  0  0  0  0  0  0  0  0  0  0
    9.2861   -1.2743   25.3585 C   0  0  0  0  0  0  0  0  0  0  0  0
    1.8892  -10.3985   17.7511 N   0  0  0  0  0  0  0  0  0  0  0  0
    9.6210   -0.6952   24.0976 C   0  0  0  0  0  0  0  0  0  0  0  0
    7.0792   -9.0217   17.1429 C   0  0  0  0  0  0  0  0  0  0  0  0
    3.1713  -10.1816   17.6634 C   0  0  0  0  0  0  0  0  0  0  0  0
    2.7878   -8.3822   16.2137 C   0  0  0  0  0  0  0  0  0  0  0  0
    9.4601   -2.6590   25.6528 C   0  0  0  0  0  0  0  0  0  0  0  0
   10.1182   -1.5672   23.1165 C   0  0  0  0  0  0  0  0  0  0  0  0
    1.0552   -9.6360   17.0650 C   0  0  0  0  0  0  0  0  0  0  0  0
    3.6519   -9.1783   16.9039 C   0  0  0  0  0  0  0  0  0  0  0  0
    7.8675   -7.0096   15.9415 C   0  0  0  0  0  0  0  0  0  0  0  0
    5.9733   -9.6553   17.3832 N   0  0  0  0  0  0  0  0  0  0  0  0
   10.2411   -2.9363   23.4301 C   0  0  0  0  0  0  0  0  0  0  0  0
   10.7288   -3.8197   19.9525 C   0  0  0  0  0  0  0  0  0  0  0  0
   10.1189   -5.0054   19.6987 C   0  0  0  0  0  0  0  0  0  0  0  0
  1  3  4  0
  1  7  4  0
  2 21  4  0
  2 27  4  0
  3  9  4  0
  3 10  4  0
  4  8  4  0
  4 18  4  0
  4 25  1  0
  5  9  4  0
  5 12  4  0
  6 13  1  0
  6 27  1  0
  7 28  4  0
  8 11  4  0
  9 29  4  0
 10 12  4  0
 11 24  1  0
 11 26  4  0
 12 25  1  0
 13 28  1  0
 14 20  4  0
 14 23  4  0
 15 17  4  0
 15 21  4  0
 16 19  4  0
 16 23  4  0
 17 22  4  0
 18 26  4  0
 19 24  4  0
 20 24  4  0
 22 27  4  0
 28 29  4  0
M  END
$$$$

 Created by Python create_sdf_string function

 29 33  0  0  0  0  0  0  0  0999 V2000
   10.7215   -3.3326   17.6437 C   0  0  0  0  0  0  0  0  0  0  0  0
    9.9489   -3.4675   24.6487 N   0  0  0  0  0  0  0  0  0  0  0  0
   10.0172   -4.4740   17.4101 C   0  0  0  0  0  0  0  0  0  0  0  0
    6.9051   -7.9575   16.4222 C   0  0  0  0  0  0  0  0  0  0  0  0
    8.9969   -6.3552   17.9668 N   0  0  0  0  0  0  0  0  0  0  0  0
   10.6702   -3.9051   22.4070 C   0  0  0  0  0  0  0  0  0  0  0  0
   11.0625   -3.0028   18.8894 C   0  0  0  0  0  0  0  0  0  0  0  0
    5.6180   -7.9194   16.1754 O   0  0  0  0  0  0  0  0  0  0  0  0
    9.7259   -5.3080   18.4485 C   0  0  0  0  0  0  0  0  0  0  0  0
    9.4578   -5.0200   16.3036 N   0  0  0  0  0  0  0  0  0  0  0  0
    5.0287   -8.9365   16.8223 C   0  0  0  0  0  0  0  0  0  0  0  0
    8.7742   -6.1498   16.6764 C   0  0  0  0  0  0  0  0  0  0  0  0
   10.9418   -3.4032   21.2053 O   0  0  0  0  0  0  0  0  0  0  0  0
    1.4797   -8.6258   16.2950 C   0  0  0  0  0  0  0  0  0  0  0  0
    9.2861   -1.2743   25.3585 C   0  0  0  0  0  0  0  0  0  0  0  0
    1.8892  -10.3985   17.7511 N   0  0  0  0  0  0  0  0  0  0  0  0
    9.6210   -0.6952   24.0976 C   0  0  0  0  0  0  0  0  0  0  0  0
    7.0792   -9.0217   17.1429 C   0  0  0  0  0  0  0  0  0  0  0  0
    3.1713  -10.1816   17.6634 C   0  0  0  0  0  0  0  0  0  0  0  0
    2.7878   -8.3822   16.2137 C   0  0  0  0  0  0  0  0  0  0  0  0
    9.4601   -2.6590   25.6528 C   0  0  0  0  0  0  0  0  0  0  0  0
   10.1182   -1.5672   23.1165 C   0  0  0  0  0  0  0  0  0  0  0  0
    1.0552   -9.6360   17.0650 C   0  0  0  0  0  0  0  0  0  0  0  0
    3.6519   -9.1783   16.9039 C   0  0  0  0  0  0  0  0  0  0  0  0
    7.8675   -7.0096   15.9415 C   0  0  0  0  0  0  0  0  0  0  0  0
    5.9733   -9.6553   17.3832 N   0  0  0  0  0  0  0  0  0  0  0  0
   10.2411   -2.9363   23.4301 C   0  0  0  0  0  0  0  0  0  0  0  0
   10.7288   -3.8197   19.9525 C   0  0  0  0  0  0  0  0  0  0  0  0
   10.1189   -5.0054   19.6987 C   0  0  0  0  0  0  0  0  0  0  0  0
  1  3  4  0
  1  7  4  0
  2 21  4  0
  2 27  4  0
  3  9  4  0
  3 10  4  0
  4  8  4  0
  4 18  4  0
  4 25  1  0
  5  9  4  0
  5 12  4  0
  6 13  1  0
  6 27  1  0
  7 28  4  0
  8 11  4  0
  9 29  4  0
 10 12  4  0
 11 24  1  0
 11 26  4  0
 12 25  1  0
 13 28  1  0
 14 20  4  0
 14 23  4  0
 15 17  4  0
 15 21  4  0
 16 19  4  0
 16 23  4  0
 17 22  4  0
 18 26  4  0
 19 24  4  0
 20 24  4  0
 22 27  4  0
 28 29  4  0
M  END
$$$$

 Created by Python create_sdf_string function

 29 33  0  0  0  0  0  0  0  0999 V2000
   10.7215   -3.3326   17.6437 C   0  0  0  0  0  0  0  0  0  0  0  0
    9.9489   -3.4675   24.6487 N   0  0  0  0  0  0  0  0  0  0  0  0
   10.0172   -4.4740   17.4101 C   0  0  0  0  0  0  0  0  0  0  0  0
    6.9051   -7.9575   16.4222 C   0  0  0  0  0  0  0  0  0  0  0  0
    8.9969   -6.3552   17.9668 N   0  0  0  0  0  0  0  0  0  0  0  0
   10.6702   -3.9051   22.4070 C   0  0  0  0  0  0  0  0  0  0  0  0
   11.0625   -3.0028   18.8894 C   0  0  0  0  0  0  0  0  0  0  0  0
    5.6180   -7.9194   16.1754 O   0  0  0  0  0  0  0  0  0  0  0  0
    9.7259   -5.3080   18.4485 C   0  0  0  0  0  0  0  0  0  0  0  0
    9.4578   -5.0200   16.3036 N   0  0  0  0  0  0  0  0  0  0  0  0
    5.0287   -8.9365   16.8223 C   0  0  0  0  0  0  0  0  0  0  0  0
    8.7742   -6.1498   16.6764 C   0  0  0  0  0  0  0  0  0  0  0  0
   10.9418   -3.4032   21.2053 O   0  0  0  0  0  0  0  0  0  0  0  0
    1.4797   -8.6258   16.2950 C   0  0  0  0  0  0  0  0  0  0  0  0
    9.2861   -1.2743   25.3585 C   0  0  0  0  0  0  0  0  0  0  0  0
    1.8892  -10.3985   17.7511 N   0  0  0  0  0  0  0  0  0  0  0  0
    9.6210   -0.6952   24.0976 C   0  0  0  0  0  0  0  0  0  0  0  0
    7.0792   -9.0217   17.1429 C   0  0  0  0  0  0  0  0  0  0  0  0
    3.1713  -10.1816   17.6634 C   0  0  0  0  0  0  0  0  0  0  0  0
    2.7878   -8.3822   16.2137 C   0  0  0  0  0  0  0  0  0  0  0  0
    9.4601   -2.6590   25.6528 C   0  0  0  0  0  0  0  0  0  0  0  0
   10.1182   -1.5672   23.1165 C   0  0  0  0  0  0  0  0  0  0  0  0
    1.0552   -9.6360   17.0650 C   0  0  0  0  0  0  0  0  0  0  0  0
    3.6519   -9.1783   16.9039 C   0  0  0  0  0  0  0  0  0  0  0  0
    7.8675   -7.0096   15.9415 C   0  0  0  0  0  0  0  0  0  0  0  0
    5.9733   -9.6553   17.3832 N   0  0  0  0  0  0  0  0  0  0  0  0
   10.2411   -2.9363   23.4301 C   0  0  0  0  0  0  0  0  0  0  0  0
   10.7288   -3.8197   19.9525 C   0  0  0  0  0  0  0  0  0  0  0  0
   10.1189   -5.0054   19.6987 C   0  0  0  0  0  0  0  0  0  0  0  0
  1  3  4  0
  1  7  4  0
  2 21  4  0
  2 27  4  0
  3  9  4  0
  3 10  4  0
  4  8  4  0
  4 18  4  0
  4 25  1  0
  5  9  4  0
  5 12  4  0
  6 13  1  0
  6 27  1  0
  7 28  4  0
  8 11  4  0
  9 29  4  0
 10 12  4  0
 11 24  1  0
 11 26  4  0
 12 25  1  0
 13 28  1  0
 14 20  4  0
 14 23  4  0
 15 17  4  0
 15 21  4  0
 16 19  4  0
 16 23  4  0
 17 22  4  0
 18 26  4  0
 19 24  4  0
 20 24  4  0
 22 27  4  0
 28 29  4  0
M  END
$$$$

 Created by Python create_sdf_string function

 29 33  0  0  0  0  0  0  0  0999 V2000
   10.7215   -3.3326   17.6437 C   0  0  0  0  0  0  0  0  0  0  0  0
    9.9489   -3.4675   24.6487 N   0  0  0  0  0  0  0  0  0  0  0  0
   10.0172   -4.4740   17.4101 C   0  0  0  0  0  0  0  0  0  0  0  0
    6.9051   -7.9575   16.4222 C   0  0  0  0  0  0  0  0  0  0  0  0
    8.9969   -6.3552   17.9668 N   0  0  0  0  0  0  0  0  0  0  0  0
   10.6702   -3.9051   22.4070 C   0  0  0  0  0  0  0  0  0  0  0  0
   11.0625   -3.0028   18.8894 C   0  0  0  0  0  0  0  0  0  0  0  0
    5.6180   -7.9194   16.1754 O   0  0  0  0  0  0  0  0  0  0  0  0
    9.7259   -5.3080   18.4485 C   0  0  0  0  0  0  0  0  0  0  0  0
    9.4578   -5.0200   16.3036 N   0  0  0  0  0  0  0  0  0  0  0  0
    5.0287   -8.9365   16.8223 C   0  0  0  0  0  0  0  0  0  0  0  0
    8.7742   -6.1498   16.6764 C   0  0  0  0  0  0  0  0  0  0  0  0
   10.9418   -3.4032   21.2053 O   0  0  0  0  0  0  0  0  0  0  0  0
    1.4797   -8.6258   16.2950 C   0  0  0  0  0  0  0  0  0  0  0  0
    9.2861   -1.2743   25.3585 C   0  0  0  0  0  0  0  0  0  0  0  0
    1.8892  -10.3985   17.7511 N   0  0  0  0  0  0  0  0  0  0  0  0
    9.6210   -0.6952   24.0976 C   0  0  0  0  0  0  0  0  0  0  0  0
    7.0792   -9.0217   17.1429 C   0  0  0  0  0  0  0  0  0  0  0  0
    3.1713  -10.1816   17.6634 C   0  0  0  0  0  0  0  0  0  0  0  0
    2.7878   -8.3822   16.2137 C   0  0  0  0  0  0  0  0  0  0  0  0
    9.4601   -2.6590   25.6528 C   0  0  0  0  0  0  0  0  0  0  0  0
   10.1182   -1.5672   23.1165 C   0  0  0  0  0  0  0  0  0  0  0  0
    1.0552   -9.6360   17.0650 C   0  0  0  0  0  0  0  0  0  0  0  0
    3.6519   -9.1783   16.9039 C   0  0  0  0  0  0  0  0  0  0  0  0
    7.8675   -7.0096   15.9415 C   0  0  0  0  0  0  0  0  0  0  0  0
    5.9733   -9.6553   17.3832 N   0  0  0  0  0  0  0  0  0  0  0  0
   10.2411   -2.9363   23.4301 C   0  0  0  0  0  0  0  0  0  0  0  0
   10.7288   -3.8197   19.9525 C   0  0  0  0  0  0  0  0  0  0  0  0
   10.1189   -5.0054   19.6987 C   0  0  0  0  0  0  0  0  0  0  0  0
  1  3  4  0
  1  7  4  0
  2 21  4  0
  2 27  4  0
  3  9  4  0
  3 10  4  0
  4  8  4  0
  4 18  4  0
  4 25  1  0
  5  9  4  0
  5 12  4  0
  6 13  1  0
  6 27  1  0
  7 28  4  0
  8 11  4  0
  9 29  4  0
 10 12  4  0
 11 24  1  0
 11 26  4  0
 12 25  1  0
 13 28  1  0
 14 20  4  0
 14 23  4  0
 15 17  4  0
 15 21  4  0
 16 19  4  0
 16 23  4  0
 17 22  4  0
 18 26  4  0
 19 24  4  0
 20 24  4  0
 22 27  4  0
 28 29  4  0
M  END
$$$$

 Created by Python create_sdf_string function

 29 33  0  0  0  0  0  0  0  0999 V2000
   10.7215   -3.3326   17.6437 C   0  0  0  0  0  0  0  0  0  0  0  0
    9.9489   -3.4675   24.6487 N   0  0  0  0  0  0  0  0  0  0  0  0
   10.0172   -4.4740   17.4101 C   0  0  0  0  0  0  0  0  0  0  0  0
    6.9051   -7.9575   16.4222 C   0  0  0  0  0  0  0  0  0  0  0  0
    8.9969   -6.3552   17.9668 N   0  0  0  0  0  0  0  0  0  0  0  0
   10.6702   -3.9051   22.4070 C   0  0  0  0  0  0  0  0  0  0  0  0
   11.0625   -3.0028   18.8894 C   0  0  0  0  0  0  0  0  0  0  0  0
    5.6180   -7.9194   16.1754 O   0  0  0  0  0  0  0  0  0  0  0  0
    9.7259   -5.3080   18.4485 C   0  0  0  0  0  0  0  0  0  0  0  0
    9.4578   -5.0200   16.3036 N   0  0  0  0  0  0  0  0  0  0  0  0
    5.0287   -8.9365   16.8223 C   0  0  0  0  0  0  0  0  0  0  0  0
    8.7742   -6.1498   16.6764 C   0  0  0  0  0  0  0  0  0  0  0  0
   10.9418   -3.4032   21.2053 O   0  0  0  0  0  0  0  0  0  0  0  0
    1.4797   -8.6258   16.2950 C   0  0  0  0  0  0  0  0  0  0  0  0
    9.2861   -1.2743   25.3585 C   0  0  0  0  0  0  0  0  0  0  0  0
    1.8892  -10.3985   17.7511 N   0  0  0  0  0  0  0  0  0  0  0  0
    9.6210   -0.6952   24.0976 C   0  0  0  0  0  0  0  0  0  0  0  0
    7.0792   -9.0217   17.1429 C   0  0  0  0  0  0  0  0  0  0  0  0
    3.1713  -10.1816   17.6634 C   0  0  0  0  0  0  0  0  0  0  0  0
    2.7878   -8.3822   16.2137 C   0  0  0  0  0  0  0  0  0  0  0  0
    9.4601   -2.6590   25.6528 C   0  0  0  0  0  0  0  0  0  0  0  0
   10.1182   -1.5672   23.1165 C   0  0  0  0  0  0  0  0  0  0  0  0
    1.0552   -9.6360   17.0650 C   0  0  0  0  0  0  0  0  0  0  0  0
    3.6519   -9.1783   16.9039 C   0  0  0  0  0  0  0  0  0  0  0  0
    7.8675   -7.0096   15.9415 C   0  0  0  0  0  0  0  0  0  0  0  0
    5.9733   -9.6553   17.3832 N   0  0  0  0  0  0  0  0  0  0  0  0
   10.2411   -2.9363   23.4301 C   0  0  0  0  0  0  0  0  0  0  0  0
   10.7288   -3.8197   19.9525 C   0  0  0  0  0  0  0  0  0  0  0  0
   10.1189   -5.0054   19.6987 C   0  0  0  0  0  0  0  0  0  0  0  0
  1  3  4  0
  1  7  4  0
  2 21  4  0
  2 27  4  0
  3  9  4  0
  3 10  4  0
  4  8  4  0
  4 18  4  0
  4 25  1  0
  5  9  4  0
  5 12  4  0
  6 13  1  0
  6 27  1  0
  7 28  4  0
  8 11  4  0
  9 29  4  0
 10 12  4  0
 11 24  1  0
 11 26  4  0
 12 25  1  0
 13 28  1  0
 14 20  4  0
 14 23  4  0
 15 17  4  0
 15 21  4  0
 16 19  4  0
 16 23  4  0
 17 22  4  0
 18 26  4  0
 19 24  4  0
 20 24  4  0
 22 27  4  0
 28 29  4  0
M  END
$$$$

 Created by Python create_sdf_string function

 29 33  0  0  0  0  0  0  0  0999 V2000
   10.7215   -3.3326   17.6437 C   0  0  0  0  0  0  0  0  0  0  0  0
    9.9489   -3.4675   24.6487 N   0  0  0  0  0  0  0  0  0  0  0  0
   10.0172   -4.4740   17.4101 C   0  0  0  0  0  0  0  0  0  0  0  0
    6.9051   -7.9575   16.4222 C   0  0  0  0  0  0  0  0  0  0  0  0
    8.9969   -6.3552   17.9668 N   0  0  0  0  0  0  0  0  0  0  0  0
   10.6702   -3.9051   22.4070 C   0  0  0  0  0  0  0  0  0  0  0  0
   11.0625   -3.0028   18.8894 C   0  0  0  0  0  0  0  0  0  0  0  0
    5.6180   -7.9194   16.1754 O   0  0  0  0  0  0  0  0  0  0  0  0
    9.7259   -5.3080   18.4485 C   0  0  0  0  0  0  0  0  0  0  0  0
    9.4578   -5.0200   16.3036 N   0  0  0  0  0  0  0  0  0  0  0  0
    5.0287   -8.9365   16.8223 C   0  0  0  0  0  0  0  0  0  0  0  0
    8.7742   -6.1498   16.6764 C   0  0  0  0  0  0  0  0  0  0  0  0
   10.9418   -3.4032   21.2053 O   0  0  0  0  0  0  0  0  0  0  0  0
    1.4797   -8.6258   16.2950 C   0  0  0  0  0  0  0  0  0  0  0  0
    9.2861   -1.2743   25.3585 C   0  0  0  0  0  0  0  0  0  0  0  0
    1.8892  -10.3985   17.7511 N   0  0  0  0  0  0  0  0  0  0  0  0
    9.6210   -0.6952   24.0976 C   0  0  0  0  0  0  0  0  0  0  0  0
    7.0792   -9.0217   17.1429 C   0  0  0  0  0  0  0  0  0  0  0  0
    3.1713  -10.1816   17.6634 C   0  0  0  0  0  0  0  0  0  0  0  0
    2.7878   -8.3822   16.2137 C   0  0  0  0  0  0  0  0  0  0  0  0
    9.4601   -2.6590   25.6528 C   0  0  0  0  0  0  0  0  0  0  0  0
   10.1182   -1.5672   23.1165 C   0  0  0  0  0  0  0  0  0  0  0  0
    1.0552   -9.6360   17.0650 C   0  0  0  0  0  0  0  0  0  0  0  0
    3.6519   -9.1783   16.9039 C   0  0  0  0  0  0  0  0  0  0  0  0
    7.8675   -7.0096   15.9415 C   0  0  0  0  0  0  0  0  0  0  0  0
    5.9733   -9.6553   17.3832 N   0  0  0  0  0  0  0  0  0  0  0  0
   10.2411   -2.9363   23.4301 C   0  0  0  0  0  0  0  0  0  0  0  0
   10.7288   -3.8197   19.9525 C   0  0  0  0  0  0  0  0  0  0  0  0
   10.1189   -5.0054   19.6987 C   0  0  0  0  0  0  0  0  0  0  0  0
  1  3  4  0
  1  7  4  0
  2 21  4  0
  2 27  4  0
  3  9  4  0
  3 10  4  0
  4  8  4  0
  4 18  4  0
  4 25  1  0
  5  9  4  0
  5 12  4  0
  6 13  1  0
  6 27  1  0
  7 28  4  0
  8 11  4  0
  9 29  4  0
 10 12  4  0
 11 24  1  0
 11 26  4  0
 12 25  1  0
 13 28  1  0
 14 20  4  0
 14 23  4  0
 15 17  4  0
 15 21  4  0
 16 19  4  0
 16 23  4  0
 17 22  4  0
 18 26  4  0
 19 24  4  0
 20 24  4  0
 22 27  4  0
 28 29  4  0
M  END
$$$$

 Created by Python create_sdf_string function

 29 33  0  0  0  0  0  0  0  0999 V2000
   10.7215   -3.3326   17.6437 C   0  0  0  0  0  0  0  0  0  0  0  0
    9.9489   -3.4675   24.6487 N   0  0  0  0  0  0  0  0  0  0  0  0
   10.0172   -4.4740   17.4101 C   0  0  0  0  0  0  0  0  0  0  0  0
    6.9051   -7.9575   16.4222 C   0  0  0  0  0  0  0  0  0  0  0  0
    8.9969   -6.3552   17.9668 N   0  0  0  0  0  0  0  0  0  0  0  0
   10.6702   -3.9051   22.4070 C   0  0  0  0  0  0  0  0  0  0  0  0
   11.0625   -3.0028   18.8894 C   0  0  0  0  0  0  0  0  0  0  0  0
    5.6180   -7.9194   16.1754 O   0  0  0  0  0  0  0  0  0  0  0  0
    9.7259   -5.3080   18.4485 C   0  0  0  0  0  0  0  0  0  0  0  0
    9.4578   -5.0200   16.3036 N   0  0  0  0  0  0  0  0  0  0  0  0
    5.0287   -8.9365   16.8223 C   0  0  0  0  0  0  0  0  0  0  0  0
    8.7742   -6.1498   16.6764 C   0  0  0  0  0  0  0  0  0  0  0  0
   10.9418   -3.4032   21.2053 O   0  0  0  0  0  0  0  0  0  0  0  0
    1.4797   -8.6258   16.2950 C   0  0  0  0  0  0  0  0  0  0  0  0
    9.2861   -1.2743   25.3585 C   0  0  0  0  0  0  0  0  0  0  0  0
    1.8892  -10.3985   17.7511 N   0  0  0  0  0  0  0  0  0  0  0  0
    9.6210   -0.6952   24.0976 C   0  0  0  0  0  0  0  0  0  0  0  0
    7.0792   -9.0217   17.1429 C   0  0  0  0  0  0  0  0  0  0  0  0
    3.1713  -10.1816   17.6634 C   0  0  0  0  0  0  0  0  0  0  0  0
    2.7878   -8.3822   16.2137 C   0  0  0  0  0  0  0  0  0  0  0  0
    9.4601   -2.6590   25.6528 C   0  0  0  0  0  0  0  0  0  0  0  0
   10.1182   -1.5672   23.1165 C   0  0  0  0  0  0  0  0  0  0  0  0
    1.0552   -9.6360   17.0650 C   0  0  0  0  0  0  0  0  0  0  0  0
    3.6519   -9.1783   16.9039 C   0  0  0  0  0  0  0  0  0  0  0  0
    7.8675   -7.0096   15.9415 C   0  0  0  0  0  0  0  0  0  0  0  0
    5.9733   -9.6553   17.3832 N   0  0  0  0  0  0  0  0  0  0  0  0
   10.2411   -2.9363   23.4301 C   0  0  0  0  0  0  0  0  0  0  0  0
   10.7288   -3.8197   19.9525 C   0  0  0  0  0  0  0  0  0  0  0  0
   10.1189   -5.0054   19.6987 C   0  0  0  0  0  0  0  0  0  0  0  0
  1  3  4  0
  1  7  4  0
  2 21  4  0
  2 27  4  0
  3  9  4  0
  3 10  4  0
  4  8  4  0
  4 18  4  0
  4 25  1  0
  5  9  4  0
  5 12  4  0
  6 13  1  0
  6 27  1  0
  7 28  4  0
  8 11  4  0
  9 29  4  0
 10 12  4  0
 11 24  1  0
 11 26  4  0
 12 25  1  0
 13 28  1  0
 14 20  4  0
 14 23  4  0
 15 17  4  0
 15 21  4  0
 16 19  4  0
 16 23  4  0
 17 22  4  0
 18 26  4  0
 19 24  4  0
 20 24  4  0
 22 27  4  0
 28 29  4  0
M  END
$$$$

 Created by Python create_sdf_string function

 29 33  0  0  0  0  0  0  0  0999 V2000
   10.7215   -3.3326   17.6437 C   0  0  0  0  0  0  0  0  0  0  0  0
    9.9489   -3.4675   24.6487 N   0  0  0  0  0  0  0  0  0  0  0  0
   10.0172   -4.4740   17.4101 C   0  0  0  0  0  0  0  0  0  0  0  0
    6.9051   -7.9575   16.4222 C   0  0  0  0  0  0  0  0  0  0  0  0
    8.9969   -6.3552   17.9668 N   0  0  0  0  0  0  0  0  0  0  0  0
   10.6702   -3.9051   22.4070 C   0  0  0  0  0  0  0  0  0  0  0  0
   11.0625   -3.0028   18.8894 C   0  0  0  0  0  0  0  0  0  0  0  0
    5.6180   -7.9194   16.1754 O   0  0  0  0  0  0  0  0  0  0  0  0
    9.7259   -5.3080   18.4485 C   0  0  0  0  0  0  0  0  0  0  0  0
    9.4578   -5.0200   16.3036 N   0  0  0  0  0  0  0  0  0  0  0  0
    5.0287   -8.9365   16.8223 C   0  0  0  0  0  0  0  0  0  0  0  0
    8.7742   -6.1498   16.6764 C   0  0  0  0  0  0  0  0  0  0  0  0
   10.9418   -3.4032   21.2053 O   0  0  0  0  0  0  0  0  0  0  0  0
    1.4797   -8.6258   16.2950 C   0  0  0  0  0  0  0  0  0  0  0  0
    9.2861   -1.2743   25.3585 C   0  0  0  0  0  0  0  0  0  0  0  0
    1.8892  -10.3985   17.7511 N   0  0  0  0  0  0  0  0  0  0  0  0
    9.6210   -0.6952   24.0976 C   0  0  0  0  0  0  0  0  0  0  0  0
    7.0792   -9.0217   17.1429 C   0  0  0  0  0  0  0  0  0  0  0  0
    3.1713  -10.1816   17.6634 C   0  0  0  0  0  0  0  0  0  0  0  0
    2.7878   -8.3822   16.2137 C   0  0  0  0  0  0  0  0  0  0  0  0
    9.4601   -2.6590   25.6528 C   0  0  0  0  0  0  0  0  0  0  0  0
   10.1182   -1.5672   23.1165 C   0  0  0  0  0  0  0  0  0  0  0  0
    1.0552   -9.6360   17.0650 C   0  0  0  0  0  0  0  0  0  0  0  0
    3.6519   -9.1783   16.9039 C   0  0  0  0  0  0  0  0  0  0  0  0
    7.8675   -7.0096   15.9415 C   0  0  0  0  0  0  0  0  0  0  0  0
    5.9733   -9.6553   17.3832 N   0  0  0  0  0  0  0  0  0  0  0  0
   10.2411   -2.9363   23.4301 C   0  0  0  0  0  0  0  0  0  0  0  0
   10.7288   -3.8197   19.9525 C   0  0  0  0  0  0  0  0  0  0  0  0
   10.1189   -5.0054   19.6987 C   0  0  0  0  0  0  0  0  0  0  0  0
  1  3  4  0
  1  7  4  0
  2 21  4  0
  2 27  4  0
  3  9  4  0
  3 10  4  0
  4  8  4  0
  4 18  4  0
  4 25  1  0
  5  9  4  0
  5 12  4  0
  6 13  1  0
  6 27  1  0
  7 28  4  0
  8 11  4  0
  9 29  4  0
 10 12  4  0
 11 24  1  0
 11 26  4  0
 12 25  1  0
 13 28  1  0
 14 20  4  0
 14 23  4  0
 15 17  4  0
 15 21  4  0
 16 19  4  0
 16 23  4  0
 17 22  4  0
 18 26  4  0
 19 24  4  0
 20 24  4  0
 22 27  4  0
 28 29  4  0
M  END
$$$$

 Created by Python create_sdf_string function

 29 33  0  0  0  0  0  0  0  0999 V2000
   10.7215   -3.3326   17.6437 C   0  0  0  0  0  0  0  0  0  0  0  0
    9.9489   -3.4675   24.6487 N   0  0  0  0  0  0  0  0  0  0  0  0
   10.0172   -4.4740   17.4101 C   0  0  0  0  0  0  0  0  0  0  0  0
    6.9051   -7.9575   16.4222 C   0  0  0  0  0  0  0  0  0  0  0  0
    8.9969   -6.3552   17.9668 N   0  0  0  0  0  0  0  0  0  0  0  0
   10.6702   -3.9051   22.4070 C   0  0  0  0  0  0  0  0  0  0  0  0
   11.0625   -3.0028   18.8894 C   0  0  0  0  0  0  0  0  0  0  0  0
    5.6180   -7.9194   16.1754 O   0  0  0  0  0  0  0  0  0  0  0  0
    9.7259   -5.3080   18.4485 C   0  0  0  0  0  0  0  0  0  0  0  0
    9.4578   -5.0200   16.3036 N   0  0  0  0  0  0  0  0  0  0  0  0
    5.0287   -8.9365   16.8223 C   0  0  0  0  0  0  0  0  0  0  0  0
    8.7742   -6.1498   16.6764 C   0  0  0  0  0  0  0  0  0  0  0  0
   10.9418   -3.4032   21.2053 O   0  0  0  0  0  0  0  0  0  0  0  0
    1.4797   -8.6258   16.2950 C   0  0  0  0  0  0  0  0  0  0  0  0
    9.2861   -1.2743   25.3585 C   0  0  0  0  0  0  0  0  0  0  0  0
    1.8892  -10.3985   17.7511 N   0  0  0  0  0  0  0  0  0  0  0  0
    9.6210   -0.6952   24.0976 C   0  0  0  0  0  0  0  0  0  0  0  0
    7.0792   -9.0217   17.1429 C   0  0  0  0  0  0  0  0  0  0  0  0
    3.1713  -10.1816   17.6634 C   0  0  0  0  0  0  0  0  0  0  0  0
    2.7878   -8.3822   16.2137 C   0  0  0  0  0  0  0  0  0  0  0  0
    9.4601   -2.6590   25.6528 C   0  0  0  0  0  0  0  0  0  0  0  0
   10.1182   -1.5672   23.1165 C   0  0  0  0  0  0  0  0  0  0  0  0
    1.0552   -9.6360   17.0650 C   0  0  0  0  0  0  0  0  0  0  0  0
    3.6519   -9.1783   16.9039 C   0  0  0  0  0  0  0  0  0  0  0  0
    7.8675   -7.0096   15.9415 C   0  0  0  0  0  0  0  0  0  0  0  0
    5.9733   -9.6553   17.3832 N   0  0  0  0  0  0  0  0  0  0  0  0
   10.2411   -2.9363   23.4301 C   0  0  0  0  0  0  0  0  0  0  0  0
   10.7288   -3.8197   19.9525 C   0  0  0  0  0  0  0  0  0  0  0  0
   10.1189   -5.0054   19.6987 C   0  0  0  0  0  0  0  0  0  0  0  0
  1  3  4  0
  1  7  4  0
  2 21  4  0
  2 27  4  0
  3  9  4  0
  3 10  4  0
  4  8  4  0
  4 18  4  0
  4 25  1  0
  5  9  4  0
  5 12  4  0
  6 13  1  0
  6 27  1  0
  7 28  4  0
  8 11  4  0
  9 29  4  0
 10 12  4  0
 11 24  1  0
 11 26  4  0
 12 25  1  0
 13 28  1  0
 14 20  4  0
 14 23  4  0
 15 17  4  0
 15 21  4  0
 16 19  4  0
 16 23  4  0
 17 22  4  0
 18 26  4  0
 19 24  4  0
 20 24  4  0
 22 27  4  0
 28 29  4  0
M  END
$$$$

 Created by Python create_sdf_string function

 29 33  0  0  0  0  0  0  0  0999 V2000
   10.7215   -3.3326   17.6437 C   0  0  0  0  0  0  0  0  0  0  0  0
    9.9489   -3.4675   24.6487 N   0  0  0  0  0  0  0  0  0  0  0  0
   10.0172   -4.4740   17.4101 C   0  0  0  0  0  0  0  0  0  0  0  0
    6.9051   -7.9575   16.4222 C   0  0  0  0  0  0  0  0  0  0  0  0
    8.9969   -6.3552   17.9668 N   0  0  0  0  0  0  0  0  0  0  0  0
   10.6702   -3.9051   22.4070 C   0  0  0  0  0  0  0  0  0  0  0  0
   11.0625   -3.0028   18.8894 C   0  0  0  0  0  0  0  0  0  0  0  0
    5.6180   -7.9194   16.1754 O   0  0  0  0  0  0  0  0  0  0  0  0
    9.7259   -5.3080   18.4485 C   0  0  0  0  0  0  0  0  0  0  0  0
    9.4578   -5.0200   16.3036 N   0  0  0  0  0  0  0  0  0  0  0  0
    5.0287   -8.9365   16.8223 C   0  0  0  0  0  0  0  0  0  0  0  0
    8.7742   -6.1498   16.6764 C   0  0  0  0  0  0  0  0  0  0  0  0
   10.9418   -3.4032   21.2053 O   0  0  0  0  0  0  0  0  0  0  0  0
    1.4797   -8.6258   16.2950 C   0  0  0  0  0  0  0  0  0  0  0  0
    9.2861   -1.2743   25.3585 C   0  0  0  0  0  0  0  0  0  0  0  0
    1.8892  -10.3985   17.7511 N   0  0  0  0  0  0  0  0  0  0  0  0
    9.6210   -0.6952   24.0976 C   0  0  0  0  0  0  0  0  0  0  0  0
    7.0792   -9.0217   17.1429 C   0  0  0  0  0  0  0  0  0  0  0  0
    3.1713  -10.1816   17.6634 C   0  0  0  0  0  0  0  0  0  0  0  0
    2.7878   -8.3822   16.2137 C   0  0  0  0  0  0  0  0  0  0  0  0
    9.4601   -2.6590   25.6528 C   0  0  0  0  0  0  0  0  0  0  0  0
   10.1182   -1.5672   23.1165 C   0  0  0  0  0  0  0  0  0  0  0  0
    1.0552   -9.6360   17.0650 C   0  0  0  0  0  0  0  0  0  0  0  0
    3.6519   -9.1783   16.9039 C   0  0  0  0  0  0  0  0  0  0  0  0
    7.8675   -7.0096   15.9415 C   0  0  0  0  0  0  0  0  0  0  0  0
    5.9733   -9.6553   17.3832 N   0  0  0  0  0  0  0  0  0  0  0  0
   10.2411   -2.9363   23.4301 C   0  0  0  0  0  0  0  0  0  0  0  0
   10.7288   -3.8197   19.9525 C   0  0  0  0  0  0  0  0  0  0  0  0
   10.1189   -5.0054   19.6987 C   0  0  0  0  0  0  0  0  0  0  0  0
  1  3  4  0
  1  7  4  0
  2 21  4  0
  2 27  4  0
  3  9  4  0
  3 10  4  0
  4  8  4  0
  4 18  4  0
  4 25  1  0
  5  9  4  0
  5 12  4  0
  6 13  1  0
  6 27  1  0
  7 28  4  0
  8 11  4  0
  9 29  4  0
 10 12  4  0
 11 24  1  0
 11 26  4  0
 12 25  1  0
 13 28  1  0
 14 20  4  0
 14 23  4  0
 15 17  4  0
 15 21  4  0
 16 19  4  0
 16 23  4  0
 17 22  4  0
 18 26  4  0
 19 24  4  0
 20 24  4  0
 22 27  4  0
 28 29  4  0
M  END
$$$$

 Created by Python create_sdf_string function

 29 33  0  0  0  0  0  0  0  0999 V2000
   10.7215   -3.3326   17.6437 C   0  0  0  0  0  0  0  0  0  0  0  0
    9.9489   -3.4675   24.6487 N   0  0  0  0  0  0  0  0  0  0  0  0
   10.0172   -4.4740   17.4101 C   0  0  0  0  0  0  0  0  0  0  0  0
    6.9051   -7.9575   16.4222 C   0  0  0  0  0  0  0  0  0  0  0  0
    8.9969   -6.3552   17.9668 N   0  0  0  0  0  0  0  0  0  0  0  0
   10.6702   -3.9051   22.4070 C   0  0  0  0  0  0  0  0  0  0  0  0
   11.0625   -3.0028   18.8894 C   0  0  0  0  0  0  0  0  0  0  0  0
    5.6180   -7.9194   16.1754 O   0  0  0  0  0  0  0  0  0  0  0  0
    9.7259   -5.3080   18.4485 C   0  0  0  0  0  0  0  0  0  0  0  0
    9.4578   -5.0200   16.3036 N   0  0  0  0  0  0  0  0  0  0  0  0
    5.0287   -8.9365   16.8223 C   0  0  0  0  0  0  0  0  0  0  0  0
    8.7742   -6.1498   16.6764 C   0  0  0  0  0  0  0  0  0  0  0  0
   10.9418   -3.4032   21.2053 O   0  0  0  0  0  0  0  0  0  0  0  0
    1.4797   -8.6258   16.2950 C   0  0  0  0  0  0  0  0  0  0  0  0
    9.2861   -1.2743   25.3585 C   0  0  0  0  0  0  0  0  0  0  0  0
    1.8892  -10.3985   17.7511 N   0  0  0  0  0  0  0  0  0  0  0  0
    9.6210   -0.6952   24.0976 C   0  0  0  0  0  0  0  0  0  0  0  0
    7.0792   -9.0217   17.1429 C   0  0  0  0  0  0  0  0  0  0  0  0
    3.1713  -10.1816   17.6634 C   0  0  0  0  0  0  0  0  0  0  0  0
    2.7878   -8.3822   16.2137 C   0  0  0  0  0  0  0  0  0  0  0  0
    9.4601   -2.6590   25.6528 C   0  0  0  0  0  0  0  0  0  0  0  0
   10.1182   -1.5672   23.1165 C   0  0  0  0  0  0  0  0  0  0  0  0
    1.0552   -9.6360   17.0650 C   0  0  0  0  0  0  0  0  0  0  0  0
    3.6519   -9.1783   16.9039 C   0  0  0  0  0  0  0  0  0  0  0  0
    7.8675   -7.0096   15.9415 C   0  0  0  0  0  0  0  0  0  0  0  0
    5.9733   -9.6553   17.3832 N   0  0  0  0  0  0  0  0  0  0  0  0
   10.2411   -2.9363   23.4301 C   0  0  0  0  0  0  0  0  0  0  0  0
   10.7288   -3.8197   19.9525 C   0  0  0  0  0  0  0  0  0  0  0  0
   10.1189   -5.0054   19.6987 C   0  0  0  0  0  0  0  0  0  0  0  0
  1  3  4  0
  1  7  4  0
  2 21  4  0
  2 27  4  0
  3  9  4  0
  3 10  4  0
  4  8  4  0
  4 18  4  0
  4 25  1  0
  5  9  4  0
  5 12  4  0
  6 13  1  0
  6 27  1  0
  7 28  4  0
  8 11  4  0
  9 29  4  0
 10 12  4  0
 11 24  1  0
 11 26  4  0
 12 25  1  0
 13 28  1  0
 14 20  4  0
 14 23  4  0
 15 17  4  0
 15 21  4  0
 16 19  4  0
 16 23  4  0
 17 22  4  0
 18 26  4  0
 19 24  4  0
 20 24  4  0
 22 27  4  0
 28 29  4  0
M  END
$$$$

 Created by Python create_sdf_string function

 29 33  0  0  0  0  0  0  0  0999 V2000
   10.7215   -3.3326   17.6437 C   0  0  0  0  0  0  0  0  0  0  0  0
    9.9489   -3.4675   24.6487 N   0  0  0  0  0  0  0  0  0  0  0  0
   10.0172   -4.4740   17.4101 C   0  0  0  0  0  0  0  0  0  0  0  0
    6.9051   -7.9575   16.4222 C   0  0  0  0  0  0  0  0  0  0  0  0
    8.9969   -6.3552   17.9668 N   0  0  0  0  0  0  0  0  0  0  0  0
   10.6702   -3.9051   22.4070 C   0  0  0  0  0  0  0  0  0  0  0  0
   11.0625   -3.0028   18.8894 C   0  0  0  0  0  0  0  0  0  0  0  0
    5.6180   -7.9194   16.1754 O   0  0  0  0  0  0  0  0  0  0  0  0
    9.7259   -5.3080   18.4485 C   0  0  0  0  0  0  0  0  0  0  0  0
    9.4578   -5.0200   16.3036 N   0  0  0  0  0  0  0  0  0  0  0  0
    5.0287   -8.9365   16.8223 C   0  0  0  0  0  0  0  0  0  0  0  0
    8.7742   -6.1498   16.6764 C   0  0  0  0  0  0  0  0  0  0  0  0
   10.9418   -3.4032   21.2053 O   0  0  0  0  0  0  0  0  0  0  0  0
    1.4797   -8.6258   16.2950 C   0  0  0  0  0  0  0  0  0  0  0  0
    9.2861   -1.2743   25.3585 C   0  0  0  0  0  0  0  0  0  0  0  0
    1.8892  -10.3985   17.7511 N   0  0  0  0  0  0  0  0  0  0  0  0
    9.6210   -0.6952   24.0976 C   0  0  0  0  0  0  0  0  0  0  0  0
    7.0792   -9.0217   17.1429 C   0  0  0  0  0  0  0  0  0  0  0  0
    3.1713  -10.1816   17.6634 C   0  0  0  0  0  0  0  0  0  0  0  0
    2.7878   -8.3822   16.2137 C   0  0  0  0  0  0  0  0  0  0  0  0
    9.4601   -2.6590   25.6528 C   0  0  0  0  0  0  0  0  0  0  0  0
   10.1182   -1.5672   23.1165 C   0  0  0  0  0  0  0  0  0  0  0  0
    1.0552   -9.6360   17.0650 C   0  0  0  0  0  0  0  0  0  0  0  0
    3.6519   -9.1783   16.9039 C   0  0  0  0  0  0  0  0  0  0  0  0
    7.8675   -7.0096   15.9415 C   0  0  0  0  0  0  0  0  0  0  0  0
    5.9733   -9.6553   17.3832 N   0  0  0  0  0  0  0  0  0  0  0  0
   10.2411   -2.9363   23.4301 C   0  0  0  0  0  0  0  0  0  0  0  0
   10.7288   -3.8197   19.9525 C   0  0  0  0  0  0  0  0  0  0  0  0
   10.1189   -5.0054   19.6987 C   0  0  0  0  0  0  0  0  0  0  0  0
  1  3  4  0
  1  7  4  0
  2 21  4  0
  2 27  4  0
  3  9  4  0
  3 10  4  0
  4  8  4  0
  4 18  4  0
  4 25  1  0
  5  9  4  0
  5 12  4  0
  6 13  1  0
  6 27  1  0
  7 28  4  0
  8 11  4  0
  9 29  4  0
 10 12  4  0
 11 24  1  0
 11 26  4  0
 12 25  1  0
 13 28  1  0
 14 20  4  0
 14 23  4  0
 15 17  4  0
 15 21  4  0
 16 19  4  0
 16 23  4  0
 17 22  4  0
 18 26  4  0
 19 24  4  0
 20 24  4  0
 22 27  4  0
 28 29  4  0
M  END
$$$$

 Created by Python create_sdf_string function

 29 33  0  0  0  0  0  0  0  0999 V2000
   10.7215   -3.3326   17.6437 C   0  0  0  0  0  0  0  0  0  0  0  0
    9.9489   -3.4675   24.6487 N   0  0  0  0  0  0  0  0  0  0  0  0
   10.0172   -4.4740   17.4101 C   0  0  0  0  0  0  0  0  0  0  0  0
    6.9051   -7.9575   16.4222 C   0  0  0  0  0  0  0  0  0  0  0  0
    8.9969   -6.3552   17.9668 N   0  0  0  0  0  0  0  0  0  0  0  0
   10.6702   -3.9051   22.4070 C   0  0  0  0  0  0  0  0  0  0  0  0
   11.0625   -3.0028   18.8894 C   0  0  0  0  0  0  0  0  0  0  0  0
    5.6180   -7.9194   16.1754 O   0  0  0  0  0  0  0  0  0  0  0  0
    9.7259   -5.3080   18.4485 C   0  0  0  0  0  0  0  0  0  0  0  0
    9.4578   -5.0200   16.3036 N   0  0  0  0  0  0  0  0  0  0  0  0
    5.0287   -8.9365   16.8223 C   0  0  0  0  0  0  0  0  0  0  0  0
    8.7742   -6.1498   16.6764 C   0  0  0  0  0  0  0  0  0  0  0  0
   10.9418   -3.4032   21.2053 O   0  0  0  0  0  0  0  0  0  0  0  0
    1.4797   -8.6258   16.2950 C   0  0  0  0  0  0  0  0  0  0  0  0
    9.2861   -1.2743   25.3585 C   0  0  0  0  0  0  0  0  0  0  0  0
    1.8892  -10.3985   17.7511 N   0  0  0  0  0  0  0  0  0  0  0  0
    9.6210   -0.6952   24.0976 C   0  0  0  0  0  0  0  0  0  0  0  0
    7.0792   -9.0217   17.1429 C   0  0  0  0  0  0  0  0  0  0  0  0
    3.1713  -10.1816   17.6634 C   0  0  0  0  0  0  0  0  0  0  0  0
    2.7878   -8.3822   16.2137 C   0  0  0  0  0  0  0  0  0  0  0  0
    9.4601   -2.6590   25.6528 C   0  0  0  0  0  0  0  0  0  0  0  0
   10.1182   -1.5672   23.1165 C   0  0  0  0  0  0  0  0  0  0  0  0
    1.0552   -9.6360   17.0650 C   0  0  0  0  0  0  0  0  0  0  0  0
    3.6519   -9.1783   16.9039 C   0  0  0  0  0  0  0  0  0  0  0  0
    7.8675   -7.0096   15.9415 C   0  0  0  0  0  0  0  0  0  0  0  0
    5.9733   -9.6553   17.3832 N   0  0  0  0  0  0  0  0  0  0  0  0
   10.2411   -2.9363   23.4301 C   0  0  0  0  0  0  0  0  0  0  0  0
   10.7288   -3.8197   19.9525 C   0  0  0  0  0  0  0  0  0  0  0  0
   10.1189   -5.0054   19.6987 C   0  0  0  0  0  0  0  0  0  0  0  0
  1  3  4  0
  1  7  4  0
  2 21  4  0
  2 27  4  0
  3  9  4  0
  3 10  4  0
  4  8  4  0
  4 18  4  0
  4 25  1  0
  5  9  4  0
  5 12  4  0
  6 13  1  0
  6 27  1  0
  7 28  4  0
  8 11  4  0
  9 29  4  0
 10 12  4  0
 11 24  1  0
 11 26  4  0
 12 25  1  0
 13 28  1  0
 14 20  4  0
 14 23  4  0
 15 17  4  0
 15 21  4  0
 16 19  4  0
 16 23  4  0
 17 22  4  0
 18 26  4  0
 19 24  4  0
 20 24  4  0
 22 27  4  0
 28 29  4  0
M  END
$$$$

 Created by Python create_sdf_string function

 29 33  0  0  0  0  0  0  0  0999 V2000
   10.7215   -3.3326   17.6437 C   0  0  0  0  0  0  0  0  0  0  0  0
    9.9489   -3.4675   24.6487 N   0  0  0  0  0  0  0  0  0  0  0  0
   10.0172   -4.4740   17.4101 C   0  0  0  0  0  0  0  0  0  0  0  0
    6.9051   -7.9575   16.4222 C   0  0  0  0  0  0  0  0  0  0  0  0
    8.9969   -6.3552   17.9668 N   0  0  0  0  0  0  0  0  0  0  0  0
   10.6702   -3.9051   22.4070 C   0  0  0  0  0  0  0  0  0  0  0  0
   11.0625   -3.0028   18.8894 C   0  0  0  0  0  0  0  0  0  0  0  0
    5.6180   -7.9194   16.1754 O   0  0  0  0  0  0  0  0  0  0  0  0
    9.7259   -5.3080   18.4485 C   0  0  0  0  0  0  0  0  0  0  0  0
    9.4578   -5.0200   16.3036 N   0  0  0  0  0  0  0  0  0  0  0  0
    5.0287   -8.9365   16.8223 C   0  0  0  0  0  0  0  0  0  0  0  0
    8.7742   -6.1498   16.6764 C   0  0  0  0  0  0  0  0  0  0  0  0
   10.9418   -3.4032   21.2053 O   0  0  0  0  0  0  0  0  0  0  0  0
    1.4797   -8.6258   16.2950 C   0  0  0  0  0  0  0  0  0  0  0  0
    9.2861   -1.2743   25.3585 C   0  0  0  0  0  0  0  0  0  0  0  0
    1.8892  -10.3985   17.7511 N   0  0  0  0  0  0  0  0  0  0  0  0
    9.6210   -0.6952   24.0976 C   0  0  0  0  0  0  0  0  0  0  0  0
    7.0792   -9.0217   17.1429 C   0  0  0  0  0  0  0  0  0  0  0  0
    3.1713  -10.1816   17.6634 C   0  0  0  0  0  0  0  0  0  0  0  0
    2.7878   -8.3822   16.2137 C   0  0  0  0  0  0  0  0  0  0  0  0
    9.4601   -2.6590   25.6528 C   0  0  0  0  0  0  0  0  0  0  0  0
   10.1182   -1.5672   23.1165 C   0  0  0  0  0  0  0  0  0  0  0  0
    1.0552   -9.6360   17.0650 C   0  0  0  0  0  0  0  0  0  0  0  0
    3.6519   -9.1783   16.9039 C   0  0  0  0  0  0  0  0  0  0  0  0
    7.8675   -7.0096   15.9415 C   0  0  0  0  0  0  0  0  0  0  0  0
    5.9733   -9.6553   17.3832 N   0  0  0  0  0  0  0  0  0  0  0  0
   10.2411   -2.9363   23.4301 C   0  0  0  0  0  0  0  0  0  0  0  0
   10.7288   -3.8197   19.9525 C   0  0  0  0  0  0  0  0  0  0  0  0
   10.1189   -5.0054   19.6987 C   0  0  0  0  0  0  0  0  0  0  0  0
  1  3  4  0
  1  7  4  0
  2 21  4  0
  2 27  4  0
  3  9  4  0
  3 10  4  0
  4  8  4  0
  4 18  4  0
  4 25  1  0
  5  9  4  0
  5 12  4  0
  6 13  1  0
  6 27  1  0
  7 28  4  0
  8 11  4  0
  9 29  4  0
 10 12  4  0
 11 24  1  0
 11 26  4  0
 12 25  1  0
 13 28  1  0
 14 20  4  0
 14 23  4  0
 15 17  4  0
 15 21  4  0
 16 19  4  0
 16 23  4  0
 17 22  4  0
 18 26  4  0
 19 24  4  0
 20 24  4  0
 22 27  4  0
 28 29  4  0
M  END
$$$$

 Created by Python create_sdf_string function

 29 33  0  0  0  0  0  0  0  0999 V2000
   10.7215   -3.3326   17.6437 C   0  0  0  0  0  0  0  0  0  0  0  0
    9.9489   -3.4675   24.6487 N   0  0  0  0  0  0  0  0  0  0  0  0
   10.0172   -4.4740   17.4101 C   0  0  0  0  0  0  0  0  0  0  0  0
    6.9051   -7.9575   16.4222 C   0  0  0  0  0  0  0  0  0  0  0  0
    8.9969   -6.3552   17.9668 N   0  0  0  0  0  0  0  0  0  0  0  0
   10.6702   -3.9051   22.4070 C   0  0  0  0  0  0  0  0  0  0  0  0
   11.0625   -3.0028   18.8894 C   0  0  0  0  0  0  0  0  0  0  0  0
    5.6180   -7.9194   16.1754 O   0  0  0  0  0  0  0  0  0  0  0  0
    9.7259   -5.3080   18.4485 C   0  0  0  0  0  0  0  0  0  0  0  0
    9.4578   -5.0200   16.3036 N   0  0  0  0  0  0  0  0  0  0  0  0
    5.0287   -8.9365   16.8223 C   0  0  0  0  0  0  0  0  0  0  0  0
    8.7742   -6.1498   16.6764 C   0  0  0  0  0  0  0  0  0  0  0  0
   10.9418   -3.4032   21.2053 O   0  0  0  0  0  0  0  0  0  0  0  0
    1.4797   -8.6258   16.2950 C   0  0  0  0  0  0  0  0  0  0  0  0
    9.2861   -1.2743   25.3585 C   0  0  0  0  0  0  0  0  0  0  0  0
    1.8892  -10.3985   17.7511 N   0  0  0  0  0  0  0  0  0  0  0  0
    9.6210   -0.6952   24.0976 C   0  0  0  0  0  0  0  0  0  0  0  0
    7.0792   -9.0217   17.1429 C   0  0  0  0  0  0  0  0  0  0  0  0
    3.1713  -10.1816   17.6634 C   0  0  0  0  0  0  0  0  0  0  0  0
    2.7878   -8.3822   16.2137 C   0  0  0  0  0  0  0  0  0  0  0  0
    9.4601   -2.6590   25.6528 C   0  0  0  0  0  0  0  0  0  0  0  0
   10.1182   -1.5672   23.1165 C   0  0  0  0  0  0  0  0  0  0  0  0
    1.0552   -9.6360   17.0650 C   0  0  0  0  0  0  0  0  0  0  0  0
    3.6519   -9.1783   16.9039 C   0  0  0  0  0  0  0  0  0  0  0  0
    7.8675   -7.0096   15.9415 C   0  0  0  0  0  0  0  0  0  0  0  0
    5.9733   -9.6553   17.3832 N   0  0  0  0  0  0  0  0  0  0  0  0
   10.2411   -2.9363   23.4301 C   0  0  0  0  0  0  0  0  0  0  0  0
   10.7288   -3.8197   19.9525 C   0  0  0  0  0  0  0  0  0  0  0  0
   10.1189   -5.0054   19.6987 C   0  0  0  0  0  0  0  0  0  0  0  0
  1  3  4  0
  1  7  4  0
  2 21  4  0
  2 27  4  0
  3  9  4  0
  3 10  4  0
  4  8  4  0
  4 18  4  0
  4 25  1  0
  5  9  4  0
  5 12  4  0
  6 13  1  0
  6 27  1  0
  7 28  4  0
  8 11  4  0
  9 29  4  0
 10 12  4  0
 11 24  1  0
 11 26  4  0
 12 25  1  0
 13 28  1  0
 14 20  4  0
 14 23  4  0
 15 17  4  0
 15 21  4  0
 16 19  4  0
 16 23  4  0
 17 22  4  0
 18 26  4  0
 19 24  4  0
 20 24  4  0
 22 27  4  0
 28 29  4  0
M  END
$$$$

 Created by Python create_sdf_string function

 29 33  0  0  0  0  0  0  0  0999 V2000
   10.7215   -3.3326   17.6437 C   0  0  0  0  0  0  0  0  0  0  0  0
    9.9489   -3.4675   24.6487 N   0  0  0  0  0  0  0  0  0  0  0  0
   10.0172   -4.4740   17.4101 C   0  0  0  0  0  0  0  0  0  0  0  0
    6.9051   -7.9575   16.4222 C   0  0  0  0  0  0  0  0  0  0  0  0
    8.9969   -6.3552   17.9668 N   0  0  0  0  0  0  0  0  0  0  0  0
   10.6702   -3.9051   22.4070 C   0  0  0  0  0  0  0  0  0  0  0  0
   11.0625   -3.0028   18.8894 C   0  0  0  0  0  0  0  0  0  0  0  0
    5.6180   -7.9194   16.1754 O   0  0  0  0  0  0  0  0  0  0  0  0
    9.7259   -5.3080   18.4485 C   0  0  0  0  0  0  0  0  0  0  0  0
    9.4578   -5.0200   16.3036 N   0  0  0  0  0  0  0  0  0  0  0  0
    5.0287   -8.9365   16.8223 C   0  0  0  0  0  0  0  0  0  0  0  0
    8.7742   -6.1498   16.6764 C   0  0  0  0  0  0  0  0  0  0  0  0
   10.9418   -3.4032   21.2053 O   0  0  0  0  0  0  0  0  0  0  0  0
    1.4797   -8.6258   16.2950 C   0  0  0  0  0  0  0  0  0  0  0  0
    9.2861   -1.2743   25.3585 C   0  0  0  0  0  0  0  0  0  0  0  0
    1.8892  -10.3985   17.7511 N   0  0  0  0  0  0  0  0  0  0  0  0
    9.6210   -0.6952   24.0976 C   0  0  0  0  0  0  0  0  0  0  0  0
    7.0792   -9.0217   17.1429 C   0  0  0  0  0  0  0  0  0  0  0  0
    3.1713  -10.1816   17.6634 C   0  0  0  0  0  0  0  0  0  0  0  0
    2.7878   -8.3822   16.2137 C   0  0  0  0  0  0  0  0  0  0  0  0
    9.4601   -2.6590   25.6528 C   0  0  0  0  0  0  0  0  0  0  0  0
   10.1182   -1.5672   23.1165 C   0  0  0  0  0  0  0  0  0  0  0  0
    1.0552   -9.6360   17.0650 C   0  0  0  0  0  0  0  0  0  0  0  0
    3.6519   -9.1783   16.9039 C   0  0  0  0  0  0  0  0  0  0  0  0
    7.8675   -7.0096   15.9415 C   0  0  0  0  0  0  0  0  0  0  0  0
    5.9733   -9.6553   17.3832 N   0  0  0  0  0  0  0  0  0  0  0  0
   10.2411   -2.9363   23.4301 C   0  0  0  0  0  0  0  0  0  0  0  0
   10.7288   -3.8197   19.9525 C   0  0  0  0  0  0  0  0  0  0  0  0
   10.1189   -5.0054   19.6987 C   0  0  0  0  0  0  0  0  0  0  0  0
  1  3  4  0
  1  7  4  0
  2 21  4  0
  2 27  4  0
  3  9  4  0
  3 10  4  0
  4  8  4  0
  4 18  4  0
  4 25  1  0
  5  9  4  0
  5 12  4  0
  6 13  1  0
  6 27  1  0
  7 28  4  0
  8 11  4  0
  9 29  4  0
 10 12  4  0
 11 24  1  0
 11 26  4  0
 12 25  1  0
 13 28  1  0
 14 20  4  0
 14 23  4  0
 15 17  4  0
 15 21  4  0
 16 19  4  0
 16 23  4  0
 17 22  4  0
 18 26  4  0
 19 24  4  0
 20 24  4  0
 22 27  4  0
 28 29  4  0
M  END
$$$$

 Created by Python create_sdf_string function

 29 33  0  0  0  0  0  0  0  0999 V2000
   10.7215   -3.3326   17.6437 C   0  0  0  0  0  0  0  0  0  0  0  0
    9.9489   -3.4675   24.6487 N   0  0  0  0  0  0  0  0  0  0  0  0
   10.0172   -4.4740   17.4101 C   0  0  0  0  0  0  0  0  0  0  0  0
    6.9051   -7.9575   16.4222 C   0  0  0  0  0  0  0  0  0  0  0  0
    8.9969   -6.3552   17.9668 N   0  0  0  0  0  0  0  0  0  0  0  0
   10.6702   -3.9051   22.4070 C   0  0  0  0  0  0  0  0  0  0  0  0
   11.0625   -3.0028   18.8894 C   0  0  0  0  0  0  0  0  0  0  0  0
    5.6180   -7.9194   16.1754 O   0  0  0  0  0  0  0  0  0  0  0  0
    9.7259   -5.3080   18.4485 C   0  0  0  0  0  0  0  0  0  0  0  0
    9.4578   -5.0200   16.3036 N   0  0  0  0  0  0  0  0  0  0  0  0
    5.0287   -8.9365   16.8223 C   0  0  0  0  0  0  0  0  0  0  0  0
    8.7742   -6.1498   16.6764 C   0  0  0  0  0  0  0  0  0  0  0  0
   10.9418   -3.4032   21.2053 O   0  0  0  0  0  0  0  0  0  0  0  0
    1.4797   -8.6258   16.2950 C   0  0  0  0  0  0  0  0  0  0  0  0
    9.2861   -1.2743   25.3585 C   0  0  0  0  0  0  0  0  0  0  0  0
    1.8892  -10.3985   17.7511 N   0  0  0  0  0  0  0  0  0  0  0  0
    9.6210   -0.6952   24.0976 C   0  0  0  0  0  0  0  0  0  0  0  0
    7.0792   -9.0217   17.1429 C   0  0  0  0  0  0  0  0  0  0  0  0
    3.1713  -10.1816   17.6634 C   0  0  0  0  0  0  0  0  0  0  0  0
    2.7878   -8.3822   16.2137 C   0  0  0  0  0  0  0  0  0  0  0  0
    9.4601   -2.6590   25.6528 C   0  0  0  0  0  0  0  0  0  0  0  0
   10.1182   -1.5672   23.1165 C   0  0  0  0  0  0  0  0  0  0  0  0
    1.0552   -9.6360   17.0650 C   0  0  0  0  0  0  0  0  0  0  0  0
    3.6519   -9.1783   16.9039 C   0  0  0  0  0  0  0  0  0  0  0  0
    7.8675   -7.0096   15.9415 C   0  0  0  0  0  0  0  0  0  0  0  0
    5.9733   -9.6553   17.3832 N   0  0  0  0  0  0  0  0  0  0  0  0
   10.2411   -2.9363   23.4301 C   0  0  0  0  0  0  0  0  0  0  0  0
   10.7288   -3.8197   19.9525 C   0  0  0  0  0  0  0  0  0  0  0  0
   10.1189   -5.0054   19.6987 C   0  0  0  0  0  0  0  0  0  0  0  0
  1  3  4  0
  1  7  4  0
  2 21  4  0
  2 27  4  0
  3  9  4  0
  3 10  4  0
  4  8  4  0
  4 18  4  0
  4 25  1  0
  5  9  4  0
  5 12  4  0
  6 13  1  0
  6 27  1  0
  7 28  4  0
  8 11  4  0
  9 29  4  0
 10 12  4  0
 11 24  1  0
 11 26  4  0
 12 25  1  0
 13 28  1  0
 14 20  4  0
 14 23  4  0
 15 17  4  0
 15 21  4  0
 16 19  4  0
 16 23  4  0
 17 22  4  0
 18 26  4  0
 19 24  4  0
 20 24  4  0
 22 27  4  0
 28 29  4  0
M  END
$$$$

 Created by Python create_sdf_string function

 29 33  0  0  0  0  0  0  0  0999 V2000
   10.7215   -3.3326   17.6437 C   0  0  0  0  0  0  0  0  0  0  0  0
    9.9489   -3.4675   24.6487 N   0  0  0  0  0  0  0  0  0  0  0  0
   10.0172   -4.4740   17.4101 C   0  0  0  0  0  0  0  0  0  0  0  0
    6.9051   -7.9575   16.4222 C   0  0  0  0  0  0  0  0  0  0  0  0
    8.9969   -6.3552   17.9668 N   0  0  0  0  0  0  0  0  0  0  0  0
   10.6702   -3.9051   22.4070 C   0  0  0  0  0  0  0  0  0  0  0  0
   11.0625   -3.0028   18.8894 C   0  0  0  0  0  0  0  0  0  0  0  0
    5.6180   -7.9194   16.1754 O   0  0  0  0  0  0  0  0  0  0  0  0
    9.7259   -5.3080   18.4485 C   0  0  0  0  0  0  0  0  0  0  0  0
    9.4578   -5.0200   16.3036 N   0  0  0  0  0  0  0  0  0  0  0  0
    5.0287   -8.9365   16.8223 C   0  0  0  0  0  0  0  0  0  0  0  0
    8.7742   -6.1498   16.6764 C   0  0  0  0  0  0  0  0  0  0  0  0
   10.9418   -3.4032   21.2053 O   0  0  0  0  0  0  0  0  0  0  0  0
    1.4797   -8.6258   16.2950 C   0  0  0  0  0  0  0  0  0  0  0  0
    9.2861   -1.2743   25.3585 C   0  0  0  0  0  0  0  0  0  0  0  0
    1.8892  -10.3985   17.7511 N   0  0  0  0  0  0  0  0  0  0  0  0
    9.6210   -0.6952   24.0976 C   0  0  0  0  0  0  0  0  0  0  0  0
    7.0792   -9.0217   17.1429 C   0  0  0  0  0  0  0  0  0  0  0  0
    3.1713  -10.1816   17.6634 C   0  0  0  0  0  0  0  0  0  0  0  0
    2.7878   -8.3822   16.2137 C   0  0  0  0  0  0  0  0  0  0  0  0
    9.4601   -2.6590   25.6528 C   0  0  0  0  0  0  0  0  0  0  0  0
   10.1182   -1.5672   23.1165 C   0  0  0  0  0  0  0  0  0  0  0  0
    1.0552   -9.6360   17.0650 C   0  0  0  0  0  0  0  0  0  0  0  0
    3.6519   -9.1783   16.9039 C   0  0  0  0  0  0  0  0  0  0  0  0
    7.8675   -7.0096   15.9415 C   0  0  0  0  0  0  0  0  0  0  0  0
    5.9733   -9.6553   17.3832 N   0  0  0  0  0  0  0  0  0  0  0  0
   10.2411   -2.9363   23.4301 C   0  0  0  0  0  0  0  0  0  0  0  0
   10.7288   -3.8197   19.9525 C   0  0  0  0  0  0  0  0  0  0  0  0
   10.1189   -5.0054   19.6987 C   0  0  0  0  0  0  0  0  0  0  0  0
  1  3  4  0
  1  7  4  0
  2 21  4  0
  2 27  4  0
  3  9  4  0
  3 10  4  0
  4  8  4  0
  4 18  4  0
  4 25  1  0
  5  9  4  0
  5 12  4  0
  6 13  1  0
  6 27  1  0
  7 28  4  0
  8 11  4  0
  9 29  4  0
 10 12  4  0
 11 24  1  0
 11 26  4  0
 12 25  1  0
 13 28  1  0
 14 20  4  0
 14 23  4  0
 15 17  4  0
 15 21  4  0
 16 19  4  0
 16 23  4  0
 17 22  4  0
 18 26  4  0
 19 24  4  0
 20 24  4  0
 22 27  4  0
 28 29  4  0
M  END
$$$$

 Created by Python create_sdf_string function

 29 33  0  0  0  0  0  0  0  0999 V2000
   10.7215   -3.3326   17.6437 C   0  0  0  0  0  0  0  0  0  0  0  0
    9.9489   -3.4675   24.6487 N   0  0  0  0  0  0  0  0  0  0  0  0
   10.0172   -4.4740   17.4101 C   0  0  0  0  0  0  0  0  0  0  0  0
    6.9051   -7.9575   16.4222 C   0  0  0  0  0  0  0  0  0  0  0  0
    8.9969   -6.3552   17.9668 N   0  0  0  0  0  0  0  0  0  0  0  0
   10.6702   -3.9051   22.4070 C   0  0  0  0  0  0  0  0  0  0  0  0
   11.0625   -3.0028   18.8894 C   0  0  0  0  0  0  0  0  0  0  0  0
    5.6180   -7.9194   16.1754 O   0  0  0  0  0  0  0  0  0  0  0  0
    9.7259   -5.3080   18.4485 C   0  0  0  0  0  0  0  0  0  0  0  0
    9.4578   -5.0200   16.3036 N   0  0  0  0  0  0  0  0  0  0  0  0
    5.0287   -8.9365   16.8223 C   0  0  0  0  0  0  0  0  0  0  0  0
    8.7742   -6.1498   16.6764 C   0  0  0  0  0  0  0  0  0  0  0  0
   10.9418   -3.4032   21.2053 O   0  0  0  0  0  0  0  0  0  0  0  0
    1.4797   -8.6258   16.2950 C   0  0  0  0  0  0  0  0  0  0  0  0
    9.2861   -1.2743   25.3585 C   0  0  0  0  0  0  0  0  0  0  0  0
    1.8892  -10.3985   17.7511 N   0  0  0  0  0  0  0  0  0  0  0  0
    9.6210   -0.6952   24.0976 C   0  0  0  0  0  0  0  0  0  0  0  0
    7.0792   -9.0217   17.1429 C   0  0  0  0  0  0  0  0  0  0  0  0
    3.1713  -10.1816   17.6634 C   0  0  0  0  0  0  0  0  0  0  0  0
    2.7878   -8.3822   16.2137 C   0  0  0  0  0  0  0  0  0  0  0  0
    9.4601   -2.6590   25.6528 C   0  0  0  0  0  0  0  0  0  0  0  0
   10.1182   -1.5672   23.1165 C   0  0  0  0  0  0  0  0  0  0  0  0
    1.0552   -9.6360   17.0650 C   0  0  0  0  0  0  0  0  0  0  0  0
    3.6519   -9.1783   16.9039 C   0  0  0  0  0  0  0  0  0  0  0  0
    7.8675   -7.0096   15.9415 C   0  0  0  0  0  0  0  0  0  0  0  0
    5.9733   -9.6553   17.3832 N   0  0  0  0  0  0  0  0  0  0  0  0
   10.2411   -2.9363   23.4301 C   0  0  0  0  0  0  0  0  0  0  0  0
   10.7288   -3.8197   19.9525 C   0  0  0  0  0  0  0  0  0  0  0  0
   10.1189   -5.0054   19.6987 C   0  0  0  0  0  0  0  0  0  0  0  0
  1  3  4  0
  1  7  4  0
  2 21  4  0
  2 27  4  0
  3  9  4  0
  3 10  4  0
  4  8  4  0
  4 18  4  0
  4 25  1  0
  5  9  4  0
  5 12  4  0
  6 13  1  0
  6 27  1  0
  7 28  4  0
  8 11  4  0
  9 29  4  0
 10 12  4  0
 11 24  1  0
 11 26  4  0
 12 25  1  0
 13 28  1  0
 14 20  4  0
 14 23  4  0
 15 17  4  0
 15 21  4  0
 16 19  4  0
 16 23  4  0
 17 22  4  0
 18 26  4  0
 19 24  4  0
 20 24  4  0
 22 27  4  0
 28 29  4  0
M  END
$$$$

 Created by Python create_sdf_string function

 29 33  0  0  0  0  0  0  0  0999 V2000
   10.7215   -3.3326   17.6437 C   0  0  0  0  0  0  0  0  0  0  0  0
    9.9489   -3.4675   24.6487 N   0  0  0  0  0  0  0  0  0  0  0  0
   10.0172   -4.4740   17.4101 C   0  0  0  0  0  0  0  0  0  0  0  0
    6.9051   -7.9575   16.4222 C   0  0  0  0  0  0  0  0  0  0  0  0
    8.9969   -6.3552   17.9668 N   0  0  0  0  0  0  0  0  0  0  0  0
   10.6702   -3.9051   22.4070 C   0  0  0  0  0  0  0  0  0  0  0  0
   11.0625   -3.0028   18.8894 C   0  0  0  0  0  0  0  0  0  0  0  0
    5.6180   -7.9194   16.1754 O   0  0  0  0  0  0  0  0  0  0  0  0
    9.7259   -5.3080   18.4485 C   0  0  0  0  0  0  0  0  0  0  0  0
    9.4578   -5.0200   16.3036 N   0  0  0  0  0  0  0  0  0  0  0  0
    5.0287   -8.9365   16.8223 C   0  0  0  0  0  0  0  0  0  0  0  0
    8.7742   -6.1498   16.6764 C   0  0  0  0  0  0  0  0  0  0  0  0
   10.9418   -3.4032   21.2053 O   0  0  0  0  0  0  0  0  0  0  0  0
    1.4797   -8.6258   16.2950 C   0  0  0  0  0  0  0  0  0  0  0  0
    9.2861   -1.2743   25.3585 C   0  0  0  0  0  0  0  0  0  0  0  0
    1.8892  -10.3985   17.7511 N   0  0  0  0  0  0  0  0  0  0  0  0
    9.6210   -0.6952   24.0976 C   0  0  0  0  0  0  0  0  0  0  0  0
    7.0792   -9.0217   17.1429 C   0  0  0  0  0  0  0  0  0  0  0  0
    3.1713  -10.1816   17.6634 C   0  0  0  0  0  0  0  0  0  0  0  0
    2.7878   -8.3822   16.2137 C   0  0  0  0  0  0  0  0  0  0  0  0
    9.4601   -2.6590   25.6528 C   0  0  0  0  0  0  0  0  0  0  0  0
   10.1182   -1.5672   23.1165 C   0  0  0  0  0  0  0  0  0  0  0  0
    1.0552   -9.6360   17.0650 C   0  0  0  0  0  0  0  0  0  0  0  0
    3.6519   -9.1783   16.9039 C   0  0  0  0  0  0  0  0  0  0  0  0
    7.8675   -7.0096   15.9415 C   0  0  0  0  0  0  0  0  0  0  0  0
    5.9733   -9.6553   17.3832 N   0  0  0  0  0  0  0  0  0  0  0  0
   10.2411   -2.9363   23.4301 C   0  0  0  0  0  0  0  0  0  0  0  0
   10.7288   -3.8197   19.9525 C   0  0  0  0  0  0  0  0  0  0  0  0
   10.1189   -5.0054   19.6987 C   0  0  0  0  0  0  0  0  0  0  0  0
  1  3  4  0
  1  7  4  0
  2 21  4  0
  2 27  4  0
  3  9  4  0
  3 10  4  0
  4  8  4  0
  4 18  4  0
  4 25  1  0
  5  9  4  0
  5 12  4  0
  6 13  1  0
  6 27  1  0
  7 28  4  0
  8 11  4  0
  9 29  4  0
 10 12  4  0
 11 24  1  0
 11 26  4  0
 12 25  1  0
 13 28  1  0
 14 20  4  0
 14 23  4  0
 15 17  4  0
 15 21  4  0
 16 19  4  0
 16 23  4  0
 17 22  4  0
 18 26  4  0
 19 24  4  0
 20 24  4  0
 22 27  4  0
 28 29  4  0
M  END
$$$$

 Created by Python create_sdf_string function

 29 33  0  0  0  0  0  0  0  0999 V2000
   10.7215   -3.3326   17.6437 C   0  0  0  0  0  0  0  0  0  0  0  0
    9.9489   -3.4675   24.6487 N   0  0  0  0  0  0  0  0  0  0  0  0
   10.0172   -4.4740   17.4101 C   0  0  0  0  0  0  0  0  0  0  0  0
    6.9051   -7.9575   16.4222 C   0  0  0  0  0  0  0  0  0  0  0  0
    8.9969   -6.3552   17.9668 N   0  0  0  0  0  0  0  0  0  0  0  0
   10.6702   -3.9051   22.4070 C   0  0  0  0  0  0  0  0  0  0  0  0
   11.0625   -3.0028   18.8894 C   0  0  0  0  0  0  0  0  0  0  0  0
    5.6180   -7.9194   16.1754 O   0  0  0  0  0  0  0  0  0  0  0  0
    9.7259   -5.3080   18.4485 C   0  0  0  0  0  0  0  0  0  0  0  0
    9.4578   -5.0200   16.3036 N   0  0  0  0  0  0  0  0  0  0  0  0
    5.0287   -8.9365   16.8223 C   0  0  0  0  0  0  0  0  0  0  0  0
    8.7742   -6.1498   16.6764 C   0  0  0  0  0  0  0  0  0  0  0  0
   10.9418   -3.4032   21.2053 O   0  0  0  0  0  0  0  0  0  0  0  0
    1.4797   -8.6258   16.2950 C   0  0  0  0  0  0  0  0  0  0  0  0
    9.2861   -1.2743   25.3585 C   0  0  0  0  0  0  0  0  0  0  0  0
    1.8892  -10.3985   17.7511 N   0  0  0  0  0  0  0  0  0  0  0  0
    9.6210   -0.6952   24.0976 C   0  0  0  0  0  0  0  0  0  0  0  0
    7.0792   -9.0217   17.1429 C   0  0  0  0  0  0  0  0  0  0  0  0
    3.1713  -10.1816   17.6634 C   0  0  0  0  0  0  0  0  0  0  0  0
    2.7878   -8.3822   16.2137 C   0  0  0  0  0  0  0  0  0  0  0  0
    9.4601   -2.6590   25.6528 C   0  0  0  0  0  0  0  0  0  0  0  0
   10.1182   -1.5672   23.1165 C   0  0  0  0  0  0  0  0  0  0  0  0
    1.0552   -9.6360   17.0650 C   0  0  0  0  0  0  0  0  0  0  0  0
    3.6519   -9.1783   16.9039 C   0  0  0  0  0  0  0  0  0  0  0  0
    7.8675   -7.0096   15.9415 C   0  0  0  0  0  0  0  0  0  0  0  0
    5.9733   -9.6553   17.3832 N   0  0  0  0  0  0  0  0  0  0  0  0
   10.2411   -2.9363   23.4301 C   0  0  0  0  0  0  0  0  0  0  0  0
   10.7288   -3.8197   19.9525 C   0  0  0  0  0  0  0  0  0  0  0  0
   10.1189   -5.0054   19.6987 C   0  0  0  0  0  0  0  0  0  0  0  0
  1  3  4  0
  1  7  4  0
  2 21  4  0
  2 27  4  0
  3  9  4  0
  3 10  4  0
  4  8  4  0
  4 18  4  0
  4 25  1  0
  5  9  4  0
  5 12  4  0
  6 13  1  0
  6 27  1  0
  7 28  4  0
  8 11  4  0
  9 29  4  0
 10 12  4  0
 11 24  1  0
 11 26  4  0
 12 25  1  0
 13 28  1  0
 14 20  4  0
 14 23  4  0
 15 17  4  0
 15 21  4  0
 16 19  4  0
 16 23  4  0
 17 22  4  0
 18 26  4  0
 19 24  4  0
 20 24  4  0
 22 27  4  0
 28 29  4  0
M  END
$$$$

 Created by Python create_sdf_string function

 29 33  0  0  0  0  0  0  0  0999 V2000
   10.7215   -3.3326   17.6437 C   0  0  0  0  0  0  0  0  0  0  0  0
    9.9489   -3.4675   24.6487 N   0  0  0  0  0  0  0  0  0  0  0  0
   10.0172   -4.4740   17.4101 C   0  0  0  0  0  0  0  0  0  0  0  0
    6.9051   -7.9575   16.4222 C   0  0  0  0  0  0  0  0  0  0  0  0
    8.9969   -6.3552   17.9668 N   0  0  0  0  0  0  0  0  0  0  0  0
   10.6702   -3.9051   22.4070 C   0  0  0  0  0  0  0  0  0  0  0  0
   11.0625   -3.0028   18.8894 C   0  0  0  0  0  0  0  0  0  0  0  0
    5.6180   -7.9194   16.1754 O   0  0  0  0  0  0  0  0  0  0  0  0
    9.7259   -5.3080   18.4485 C   0  0  0  0  0  0  0  0  0  0  0  0
    9.4578   -5.0200   16.3036 N   0  0  0  0  0  0  0  0  0  0  0  0
    5.0287   -8.9365   16.8223 C   0  0  0  0  0  0  0  0  0  0  0  0
    8.7742   -6.1498   16.6764 C   0  0  0  0  0  0  0  0  0  0  0  0
   10.9418   -3.4032   21.2053 O   0  0  0  0  0  0  0  0  0  0  0  0
    1.4797   -8.6258   16.2950 C   0  0  0  0  0  0  0  0  0  0  0  0
    9.2861   -1.2743   25.3585 C   0  0  0  0  0  0  0  0  0  0  0  0
    1.8892  -10.3985   17.7511 N   0  0  0  0  0  0  0  0  0  0  0  0
    9.6210   -0.6952   24.0976 C   0  0  0  0  0  0  0  0  0  0  0  0
    7.0792   -9.0217   17.1429 C   0  0  0  0  0  0  0  0  0  0  0  0
    3.1713  -10.1816   17.6634 C   0  0  0  0  0  0  0  0  0  0  0  0
    2.7878   -8.3822   16.2137 C   0  0  0  0  0  0  0  0  0  0  0  0
    9.4601   -2.6590   25.6528 C   0  0  0  0  0  0  0  0  0  0  0  0
   10.1182   -1.5672   23.1165 C   0  0  0  0  0  0  0  0  0  0  0  0
    1.0552   -9.6360   17.0650 C   0  0  0  0  0  0  0  0  0  0  0  0
    3.6519   -9.1783   16.9039 C   0  0  0  0  0  0  0  0  0  0  0  0
    7.8675   -7.0096   15.9415 C   0  0  0  0  0  0  0  0  0  0  0  0
    5.9733   -9.6553   17.3832 N   0  0  0  0  0  0  0  0  0  0  0  0
   10.2411   -2.9363   23.4301 C   0  0  0  0  0  0  0  0  0  0  0  0
   10.7288   -3.8197   19.9525 C   0  0  0  0  0  0  0  0  0  0  0  0
   10.1189   -5.0054   19.6987 C   0  0  0  0  0  0  0  0  0  0  0  0
  1  3  4  0
  1  7  4  0
  2 21  4  0
  2 27  4  0
  3  9  4  0
  3 10  4  0
  4  8  4  0
  4 18  4  0
  4 25  1  0
  5  9  4  0
  5 12  4  0
  6 13  1  0
  6 27  1  0
  7 28  4  0
  8 11  4  0
  9 29  4  0
 10 12  4  0
 11 24  1  0
 11 26  4  0
 12 25  1  0
 13 28  1  0
 14 20  4  0
 14 23  4  0
 15 17  4  0
 15 21  4  0
 16 19  4  0
 16 23  4  0
 17 22  4  0
 18 26  4  0
 19 24  4  0
 20 24  4  0
 22 27  4  0
 28 29  4  0
M  END
$$$$

 Created by Python create_sdf_string function

 29 33  0  0  0  0  0  0  0  0999 V2000
   10.7215   -3.3326   17.6437 C   0  0  0  0  0  0  0  0  0  0  0  0
    9.9489   -3.4675   24.6487 N   0  0  0  0  0  0  0  0  0  0  0  0
   10.0172   -4.4740   17.4101 C   0  0  0  0  0  0  0  0  0  0  0  0
    6.9051   -7.9575   16.4222 C   0  0  0  0  0  0  0  0  0  0  0  0
    8.9969   -6.3552   17.9668 N   0  0  0  0  0  0  0  0  0  0  0  0
   10.6702   -3.9051   22.4070 C   0  0  0  0  0  0  0  0  0  0  0  0
   11.0625   -3.0028   18.8894 C   0  0  0  0  0  0  0  0  0  0  0  0
    5.6180   -7.9194   16.1754 O   0  0  0  0  0  0  0  0  0  0  0  0
    9.7259   -5.3080   18.4485 C   0  0  0  0  0  0  0  0  0  0  0  0
    9.4578   -5.0200   16.3036 N   0  0  0  0  0  0  0  0  0  0  0  0
    5.0287   -8.9365   16.8223 C   0  0  0  0  0  0  0  0  0  0  0  0
    8.7742   -6.1498   16.6764 C   0  0  0  0  0  0  0  0  0  0  0  0
   10.9418   -3.4032   21.2053 O   0  0  0  0  0  0  0  0  0  0  0  0
    1.4797   -8.6258   16.2950 C   0  0  0  0  0  0  0  0  0  0  0  0
    9.2861   -1.2743   25.3585 C   0  0  0  0  0  0  0  0  0  0  0  0
    1.8892  -10.3985   17.7511 N   0  0  0  0  0  0  0  0  0  0  0  0
    9.6210   -0.6952   24.0976 C   0  0  0  0  0  0  0  0  0  0  0  0
    7.0792   -9.0217   17.1429 C   0  0  0  0  0  0  0  0  0  0  0  0
    3.1713  -10.1816   17.6634 C   0  0  0  0  0  0  0  0  0  0  0  0
    2.7878   -8.3822   16.2137 C   0  0  0  0  0  0  0  0  0  0  0  0
    9.4601   -2.6590   25.6528 C   0  0  0  0  0  0  0  0  0  0  0  0
   10.1182   -1.5672   23.1165 C   0  0  0  0  0  0  0  0  0  0  0  0
    1.0552   -9.6360   17.0650 C   0  0  0  0  0  0  0  0  0  0  0  0
    3.6519   -9.1783   16.9039 C   0  0  0  0  0  0  0  0  0  0  0  0
    7.8675   -7.0096   15.9415 C   0  0  0  0  0  0  0  0  0  0  0  0
    5.9733   -9.6553   17.3832 N   0  0  0  0  0  0  0  0  0  0  0  0
   10.2411   -2.9363   23.4301 C   0  0  0  0  0  0  0  0  0  0  0  0
   10.7288   -3.8197   19.9525 C   0  0  0  0  0  0  0  0  0  0  0  0
   10.1189   -5.0054   19.6987 C   0  0  0  0  0  0  0  0  0  0  0  0
  1  3  4  0
  1  7  4  0
  2 21  4  0
  2 27  4  0
  3  9  4  0
  3 10  4  0
  4  8  4  0
  4 18  4  0
  4 25  1  0
  5  9  4  0
  5 12  4  0
  6 13  1  0
  6 27  1  0
  7 28  4  0
  8 11  4  0
  9 29  4  0
 10 12  4  0
 11 24  1  0
 11 26  4  0
 12 25  1  0
 13 28  1  0
 14 20  4  0
 14 23  4  0
 15 17  4  0
 15 21  4  0
 16 19  4  0
 16 23  4  0
 17 22  4  0
 18 26  4  0
 19 24  4  0
 20 24  4  0
 22 27  4  0
 28 29  4  0
M  END
$$$$

 Created by Python create_sdf_string function

 29 33  0  0  0  0  0  0  0  0999 V2000
   10.7215   -3.3326   17.6437 C   0  0  0  0  0  0  0  0  0  0  0  0
    9.9489   -3.4675   24.6487 N   0  0  0  0  0  0  0  0  0  0  0  0
   10.0172   -4.4740   17.4101 C   0  0  0  0  0  0  0  0  0  0  0  0
    6.9051   -7.9575   16.4222 C   0  0  0  0  0  0  0  0  0  0  0  0
    8.9969   -6.3552   17.9668 N   0  0  0  0  0  0  0  0  0  0  0  0
   10.6702   -3.9051   22.4070 C   0  0  0  0  0  0  0  0  0  0  0  0
   11.0625   -3.0028   18.8894 C   0  0  0  0  0  0  0  0  0  0  0  0
    5.6180   -7.9194   16.1754 O   0  0  0  0  0  0  0  0  0  0  0  0
    9.7259   -5.3080   18.4485 C   0  0  0  0  0  0  0  0  0  0  0  0
    9.4578   -5.0200   16.3036 N   0  0  0  0  0  0  0  0  0  0  0  0
    5.0287   -8.9365   16.8223 C   0  0  0  0  0  0  0  0  0  0  0  0
    8.7742   -6.1498   16.6764 C   0  0  0  0  0  0  0  0  0  0  0  0
   10.9418   -3.4032   21.2053 O   0  0  0  0  0  0  0  0  0  0  0  0
    1.4797   -8.6258   16.2950 C   0  0  0  0  0  0  0  0  0  0  0  0
    9.2861   -1.2743   25.3585 C   0  0  0  0  0  0  0  0  0  0  0  0
    1.8892  -10.3985   17.7511 N   0  0  0  0  0  0  0  0  0  0  0  0
    9.6210   -0.6952   24.0976 C   0  0  0  0  0  0  0  0  0  0  0  0
    7.0792   -9.0217   17.1429 C   0  0  0  0  0  0  0  0  0  0  0  0
    3.1713  -10.1816   17.6634 C   0  0  0  0  0  0  0  0  0  0  0  0
    2.7878   -8.3822   16.2137 C   0  0  0  0  0  0  0  0  0  0  0  0
    9.4601   -2.6590   25.6528 C   0  0  0  0  0  0  0  0  0  0  0  0
   10.1182   -1.5672   23.1165 C   0  0  0  0  0  0  0  0  0  0  0  0
    1.0552   -9.6360   17.0650 C   0  0  0  0  0  0  0  0  0  0  0  0
    3.6519   -9.1783   16.9039 C   0  0  0  0  0  0  0  0  0  0  0  0
    7.8675   -7.0096   15.9415 C   0  0  0  0  0  0  0  0  0  0  0  0
    5.9733   -9.6553   17.3832 N   0  0  0  0  0  0  0  0  0  0  0  0
   10.2411   -2.9363   23.4301 C   0  0  0  0  0  0  0  0  0  0  0  0
   10.7288   -3.8197   19.9525 C   0  0  0  0  0  0  0  0  0  0  0  0
   10.1189   -5.0054   19.6987 C   0  0  0  0  0  0  0  0  0  0  0  0
  1  3  4  0
  1  7  4  0
  2 21  4  0
  2 27  4  0
  3  9  4  0
  3 10  4  0
  4  8  4  0
  4 18  4  0
  4 25  1  0
  5  9  4  0
  5 12  4  0
  6 13  1  0
  6 27  1  0
  7 28  4  0
  8 11  4  0
  9 29  4  0
 10 12  4  0
 11 24  1  0
 11 26  4  0
 12 25  1  0
 13 28  1  0
 14 20  4  0
 14 23  4  0
 15 17  4  0
 15 21  4  0
 16 19  4  0
 16 23  4  0
 17 22  4  0
 18 26  4  0
 19 24  4  0
 20 24  4  0
 22 27  4  0
 28 29  4  0
M  END
$$$$

 Created by Python create_sdf_string function

 29 33  0  0  0  0  0  0  0  0999 V2000
   10.7215   -3.3326   17.6437 C   0  0  0  0  0  0  0  0  0  0  0  0
    9.9489   -3.4675   24.6487 N   0  0  0  0  0  0  0  0  0  0  0  0
   10.0172   -4.4740   17.4101 C   0  0  0  0  0  0  0  0  0  0  0  0
    6.9051   -7.9575   16.4222 C   0  0  0  0  0  0  0  0  0  0  0  0
    8.9969   -6.3552   17.9668 N   0  0  0  0  0  0  0  0  0  0  0  0
   10.6702   -3.9051   22.4070 C   0  0  0  0  0  0  0  0  0  0  0  0
   11.0625   -3.0028   18.8894 C   0  0  0  0  0  0  0  0  0  0  0  0
    5.6180   -7.9194   16.1754 O   0  0  0  0  0  0  0  0  0  0  0  0
    9.7259   -5.3080   18.4485 C   0  0  0  0  0  0  0  0  0  0  0  0
    9.4578   -5.0200   16.3036 N   0  0  0  0  0  0  0  0  0  0  0  0
    5.0287   -8.9365   16.8223 C   0  0  0  0  0  0  0  0  0  0  0  0
    8.7742   -6.1498   16.6764 C   0  0  0  0  0  0  0  0  0  0  0  0
   10.9418   -3.4032   21.2053 O   0  0  0  0  0  0  0  0  0  0  0  0
    1.4797   -8.6258   16.2950 C   0  0  0  0  0  0  0  0  0  0  0  0
    9.2861   -1.2743   25.3585 C   0  0  0  0  0  0  0  0  0  0  0  0
    1.8892  -10.3985   17.7511 N   0  0  0  0  0  0  0  0  0  0  0  0
    9.6210   -0.6952   24.0976 C   0  0  0  0  0  0  0  0  0  0  0  0
    7.0792   -9.0217   17.1429 C   0  0  0  0  0  0  0  0  0  0  0  0
    3.1713  -10.1816   17.6634 C   0  0  0  0  0  0  0  0  0  0  0  0
    2.7878   -8.3822   16.2137 C   0  0  0  0  0  0  0  0  0  0  0  0
    9.4601   -2.6590   25.6528 C   0  0  0  0  0  0  0  0  0  0  0  0
   10.1182   -1.5672   23.1165 C   0  0  0  0  0  0  0  0  0  0  0  0
    1.0552   -9.6360   17.0650 C   0  0  0  0  0  0  0  0  0  0  0  0
    3.6519   -9.1783   16.9039 C   0  0  0  0  0  0  0  0  0  0  0  0
    7.8675   -7.0096   15.9415 C   0  0  0  0  0  0  0  0  0  0  0  0
    5.9733   -9.6553   17.3832 N   0  0  0  0  0  0  0  0  0  0  0  0
   10.2411   -2.9363   23.4301 C   0  0  0  0  0  0  0  0  0  0  0  0
   10.7288   -3.8197   19.9525 C   0  0  0  0  0  0  0  0  0  0  0  0
   10.1189   -5.0054   19.6987 C   0  0  0  0  0  0  0  0  0  0  0  0
  1  3  4  0
  1  7  4  0
  2 21  4  0
  2 27  4  0
  3  9  4  0
  3 10  4  0
  4  8  4  0
  4 18  4  0
  4 25  1  0
  5  9  4  0
  5 12  4  0
  6 13  1  0
  6 27  1  0
  7 28  4  0
  8 11  4  0
  9 29  4  0
 10 12  4  0
 11 24  1  0
 11 26  4  0
 12 25  1  0
 13 28  1  0
 14 20  4  0
 14 23  4  0
 15 17  4  0
 15 21  4  0
 16 19  4  0
 16 23  4  0
 17 22  4  0
 18 26  4  0
 19 24  4  0
 20 24  4  0
 22 27  4  0
 28 29  4  0
M  END
$$$$

 Created by Python create_sdf_string function

 29 33  0  0  0  0  0  0  0  0999 V2000
   10.7215   -3.3326   17.6437 C   0  0  0  0  0  0  0  0  0  0  0  0
    9.9489   -3.4675   24.6487 N   0  0  0  0  0  0  0  0  0  0  0  0
   10.0172   -4.4740   17.4101 C   0  0  0  0  0  0  0  0  0  0  0  0
    6.9051   -7.9575   16.4222 C   0  0  0  0  0  0  0  0  0  0  0  0
    8.9969   -6.3552   17.9668 N   0  0  0  0  0  0  0  0  0  0  0  0
   10.6702   -3.9051   22.4070 C   0  0  0  0  0  0  0  0  0  0  0  0
   11.0625   -3.0028   18.8894 C   0  0  0  0  0  0  0  0  0  0  0  0
    5.6180   -7.9194   16.1754 O   0  0  0  0  0  0  0  0  0  0  0  0
    9.7259   -5.3080   18.4485 C   0  0  0  0  0  0  0  0  0  0  0  0
    9.4578   -5.0200   16.3036 N   0  0  0  0  0  0  0  0  0  0  0  0
    5.0287   -8.9365   16.8223 C   0  0  0  0  0  0  0  0  0  0  0  0
    8.7742   -6.1498   16.6764 C   0  0  0  0  0  0  0  0  0  0  0  0
   10.9418   -3.4032   21.2053 O   0  0  0  0  0  0  0  0  0  0  0  0
    1.4797   -8.6258   16.2950 C   0  0  0  0  0  0  0  0  0  0  0  0
    9.2861   -1.2743   25.3585 C   0  0  0  0  0  0  0  0  0  0  0  0
    1.8892  -10.3985   17.7511 N   0  0  0  0  0  0  0  0  0  0  0  0
    9.6210   -0.6952   24.0976 C   0  0  0  0  0  0  0  0  0  0  0  0
    7.0792   -9.0217   17.1429 C   0  0  0  0  0  0  0  0  0  0  0  0
    3.1713  -10.1816   17.6634 C   0  0  0  0  0  0  0  0  0  0  0  0
    2.7878   -8.3822   16.2137 C   0  0  0  0  0  0  0  0  0  0  0  0
    9.4601   -2.6590   25.6528 C   0  0  0  0  0  0  0  0  0  0  0  0
   10.1182   -1.5672   23.1165 C   0  0  0  0  0  0  0  0  0  0  0  0
    1.0552   -9.6360   17.0650 C   0  0  0  0  0  0  0  0  0  0  0  0
    3.6519   -9.1783   16.9039 C   0  0  0  0  0  0  0  0  0  0  0  0
    7.8675   -7.0096   15.9415 C   0  0  0  0  0  0  0  0  0  0  0  0
    5.9733   -9.6553   17.3832 N   0  0  0  0  0  0  0  0  0  0  0  0
   10.2411   -2.9363   23.4301 C   0  0  0  0  0  0  0  0  0  0  0  0
   10.7288   -3.8197   19.9525 C   0  0  0  0  0  0  0  0  0  0  0  0
   10.1189   -5.0054   19.6987 C   0  0  0  0  0  0  0  0  0  0  0  0
  1  3  4  0
  1  7  4  0
  2 21  4  0
  2 27  4  0
  3  9  4  0
  3 10  4  0
  4  8  4  0
  4 18  4  0
  4 25  1  0
  5  9  4  0
  5 12  4  0
  6 13  1  0
  6 27  1  0
  7 28  4  0
  8 11  4  0
  9 29  4  0
 10 12  4  0
 11 24  1  0
 11 26  4  0
 12 25  1  0
 13 28  1  0
 14 20  4  0
 14 23  4  0
 15 17  4  0
 15 21  4  0
 16 19  4  0
 16 23  4  0
 17 22  4  0
 18 26  4  0
 19 24  4  0
 20 24  4  0
 22 27  4  0
 28 29  4  0
M  END
$$$$

 Created by Python create_sdf_string function

 29 33  0  0  0  0  0  0  0  0999 V2000
   10.7215   -3.3326   17.6437 C   0  0  0  0  0  0  0  0  0  0  0  0
    9.9489   -3.4675   24.6487 N   0  0  0  0  0  0  0  0  0  0  0  0
   10.0172   -4.4740   17.4101 C   0  0  0  0  0  0  0  0  0  0  0  0
    6.9051   -7.9575   16.4222 C   0  0  0  0  0  0  0  0  0  0  0  0
    8.9969   -6.3552   17.9668 N   0  0  0  0  0  0  0  0  0  0  0  0
   10.6702   -3.9051   22.4070 C   0  0  0  0  0  0  0  0  0  0  0  0
   11.0625   -3.0028   18.8894 C   0  0  0  0  0  0  0  0  0  0  0  0
    5.6180   -7.9194   16.1754 O   0  0  0  0  0  0  0  0  0  0  0  0
    9.7259   -5.3080   18.4485 C   0  0  0  0  0  0  0  0  0  0  0  0
    9.4578   -5.0200   16.3036 N   0  0  0  0  0  0  0  0  0  0  0  0
    5.0287   -8.9365   16.8223 C   0  0  0  0  0  0  0  0  0  0  0  0
    8.7742   -6.1498   16.6764 C   0  0  0  0  0  0  0  0  0  0  0  0
   10.9418   -3.4032   21.2053 O   0  0  0  0  0  0  0  0  0  0  0  0
    1.4797   -8.6258   16.2950 C   0  0  0  0  0  0  0  0  0  0  0  0
    9.2861   -1.2743   25.3585 C   0  0  0  0  0  0  0  0  0  0  0  0
    1.8892  -10.3985   17.7511 N   0  0  0  0  0  0  0  0  0  0  0  0
    9.6210   -0.6952   24.0976 C   0  0  0  0  0  0  0  0  0  0  0  0
    7.0792   -9.0217   17.1429 C   0  0  0  0  0  0  0  0  0  0  0  0
    3.1713  -10.1816   17.6634 C   0  0  0  0  0  0  0  0  0  0  0  0
    2.7878   -8.3822   16.2137 C   0  0  0  0  0  0  0  0  0  0  0  0
    9.4601   -2.6590   25.6528 C   0  0  0  0  0  0  0  0  0  0  0  0
   10.1182   -1.5672   23.1165 C   0  0  0  0  0  0  0  0  0  0  0  0
    1.0552   -9.6360   17.0650 C   0  0  0  0  0  0  0  0  0  0  0  0
    3.6519   -9.1783   16.9039 C   0  0  0  0  0  0  0  0  0  0  0  0
    7.8675   -7.0096   15.9415 C   0  0  0  0  0  0  0  0  0  0  0  0
    5.9733   -9.6553   17.3832 N   0  0  0  0  0  0  0  0  0  0  0  0
   10.2411   -2.9363   23.4301 C   0  0  0  0  0  0  0  0  0  0  0  0
   10.7288   -3.8197   19.9525 C   0  0  0  0  0  0  0  0  0  0  0  0
   10.1189   -5.0054   19.6987 C   0  0  0  0  0  0  0  0  0  0  0  0
  1  3  4  0
  1  7  4  0
  2 21  4  0
  2 27  4  0
  3  9  4  0
  3 10  4  0
  4  8  4  0
  4 18  4  0
  4 25  1  0
  5  9  4  0
  5 12  4  0
  6 13  1  0
  6 27  1  0
  7 28  4  0
  8 11  4  0
  9 29  4  0
 10 12  4  0
 11 24  1  0
 11 26  4  0
 12 25  1  0
 13 28  1  0
 14 20  4  0
 14 23  4  0
 15 17  4  0
 15 21  4  0
 16 19  4  0
 16 23  4  0
 17 22  4  0
 18 26  4  0
 19 24  4  0
 20 24  4  0
 22 27  4  0
 28 29  4  0
M  END
$$$$

 Created by Python create_sdf_string function

 29 33  0  0  0  0  0  0  0  0999 V2000
   10.7215   -3.3326   17.6437 C   0  0  0  0  0  0  0  0  0  0  0  0
    9.9489   -3.4675   24.6487 N   0  0  0  0  0  0  0  0  0  0  0  0
   10.0172   -4.4740   17.4101 C   0  0  0  0  0  0  0  0  0  0  0  0
    6.9051   -7.9575   16.4222 C   0  0  0  0  0  0  0  0  0  0  0  0
    8.9969   -6.3552   17.9668 N   0  0  0  0  0  0  0  0  0  0  0  0
   10.6702   -3.9051   22.4070 C   0  0  0  0  0  0  0  0  0  0  0  0
   11.0625   -3.0028   18.8894 C   0  0  0  0  0  0  0  0  0  0  0  0
    5.6180   -7.9194   16.1754 O   0  0  0  0  0  0  0  0  0  0  0  0
    9.7259   -5.3080   18.4485 C   0  0  0  0  0  0  0  0  0  0  0  0
    9.4578   -5.0200   16.3036 N   0  0  0  0  0  0  0  0  0  0  0  0
    5.0287   -8.9365   16.8223 C   0  0  0  0  0  0  0  0  0  0  0  0
    8.7742   -6.1498   16.6764 C   0  0  0  0  0  0  0  0  0  0  0  0
   10.9418   -3.4032   21.2053 O   0  0  0  0  0  0  0  0  0  0  0  0
    1.4797   -8.6258   16.2950 C   0  0  0  0  0  0  0  0  0  0  0  0
    9.2861   -1.2743   25.3585 C   0  0  0  0  0  0  0  0  0  0  0  0
    1.8892  -10.3985   17.7511 N   0  0  0  0  0  0  0  0  0  0  0  0
    9.6210   -0.6952   24.0976 C   0  0  0  0  0  0  0  0  0  0  0  0
    7.0792   -9.0217   17.1429 C   0  0  0  0  0  0  0  0  0  0  0  0
    3.1713  -10.1816   17.6634 C   0  0  0  0  0  0  0  0  0  0  0  0
    2.7878   -8.3822   16.2137 C   0  0  0  0  0  0  0  0  0  0  0  0
    9.4601   -2.6590   25.6528 C   0  0  0  0  0  0  0  0  0  0  0  0
   10.1182   -1.5672   23.1165 C   0  0  0  0  0  0  0  0  0  0  0  0
    1.0552   -9.6360   17.0650 C   0  0  0  0  0  0  0  0  0  0  0  0
    3.6519   -9.1783   16.9039 C   0  0  0  0  0  0  0  0  0  0  0  0
    7.8675   -7.0096   15.9415 C   0  0  0  0  0  0  0  0  0  0  0  0
    5.9733   -9.6553   17.3832 N   0  0  0  0  0  0  0  0  0  0  0  0
   10.2411   -2.9363   23.4301 C   0  0  0  0  0  0  0  0  0  0  0  0
   10.7288   -3.8197   19.9525 C   0  0  0  0  0  0  0  0  0  0  0  0
   10.1189   -5.0054   19.6987 C   0  0  0  0  0  0  0  0  0  0  0  0
  1  3  4  0
  1  7  4  0
  2 21  4  0
  2 27  4  0
  3  9  4  0
  3 10  4  0
  4  8  4  0
  4 18  4  0
  4 25  1  0
  5  9  4  0
  5 12  4  0
  6 13  1  0
  6 27  1  0
  7 28  4  0
  8 11  4  0
  9 29  4  0
 10 12  4  0
 11 24  1  0
 11 26  4  0
 12 25  1  0
 13 28  1  0
 14 20  4  0
 14 23  4  0
 15 17  4  0
 15 21  4  0
 16 19  4  0
 16 23  4  0
 17 22  4  0
 18 26  4  0
 19 24  4  0
 20 24  4  0
 22 27  4  0
 28 29  4  0
M  END
$$$$

 Created by Python create_sdf_string function

 29 33  0  0  0  0  0  0  0  0999 V2000
   10.7215   -3.3326   17.6437 C   0  0  0  0  0  0  0  0  0  0  0  0
    9.9489   -3.4675   24.6487 N   0  0  0  0  0  0  0  0  0  0  0  0
   10.0172   -4.4740   17.4101 C   0  0  0  0  0  0  0  0  0  0  0  0
    6.9051   -7.9575   16.4222 C   0  0  0  0  0  0  0  0  0  0  0  0
    8.9969   -6.3552   17.9668 N   0  0  0  0  0  0  0  0  0  0  0  0
   10.6702   -3.9051   22.4070 C   0  0  0  0  0  0  0  0  0  0  0  0
   11.0625   -3.0028   18.8894 C   0  0  0  0  0  0  0  0  0  0  0  0
    5.6180   -7.9194   16.1754 O   0  0  0  0  0  0  0  0  0  0  0  0
    9.7259   -5.3080   18.4485 C   0  0  0  0  0  0  0  0  0  0  0  0
    9.4578   -5.0200   16.3036 N   0  0  0  0  0  0  0  0  0  0  0  0
    5.0287   -8.9365   16.8223 C   0  0  0  0  0  0  0  0  0  0  0  0
    8.7742   -6.1498   16.6764 C   0  0  0  0  0  0  0  0  0  0  0  0
   10.9418   -3.4032   21.2053 O   0  0  0  0  0  0  0  0  0  0  0  0
    1.4797   -8.6258   16.2950 C   0  0  0  0  0  0  0  0  0  0  0  0
    9.2861   -1.2743   25.3585 C   0  0  0  0  0  0  0  0  0  0  0  0
    1.8892  -10.3985   17.7511 N   0  0  0  0  0  0  0  0  0  0  0  0
    9.6210   -0.6952   24.0976 C   0  0  0  0  0  0  0  0  0  0  0  0
    7.0792   -9.0217   17.1429 C   0  0  0  0  0  0  0  0  0  0  0  0
    3.1713  -10.1816   17.6634 C   0  0  0  0  0  0  0  0  0  0  0  0
    2.7878   -8.3822   16.2137 C   0  0  0  0  0  0  0  0  0  0  0  0
    9.4601   -2.6590   25.6528 C   0  0  0  0  0  0  0  0  0  0  0  0
   10.1182   -1.5672   23.1165 C   0  0  0  0  0  0  0  0  0  0  0  0
    1.0552   -9.6360   17.0650 C   0  0  0  0  0  0  0  0  0  0  0  0
    3.6519   -9.1783   16.9039 C   0  0  0  0  0  0  0  0  0  0  0  0
    7.8675   -7.0096   15.9415 C   0  0  0  0  0  0  0  0  0  0  0  0
    5.9733   -9.6553   17.3832 N   0  0  0  0  0  0  0  0  0  0  0  0
   10.2411   -2.9363   23.4301 C   0  0  0  0  0  0  0  0  0  0  0  0
   10.7288   -3.8197   19.9525 C   0  0  0  0  0  0  0  0  0  0  0  0
   10.1189   -5.0054   19.6987 C   0  0  0  0  0  0  0  0  0  0  0  0
  1  3  4  0
  1  7  4  0
  2 21  4  0
  2 27  4  0
  3  9  4  0
  3 10  4  0
  4  8  4  0
  4 18  4  0
  4 25  1  0
  5  9  4  0
  5 12  4  0
  6 13  1  0
  6 27  1  0
  7 28  4  0
  8 11  4  0
  9 29  4  0
 10 12  4  0
 11 24  1  0
 11 26  4  0
 12 25  1  0
 13 28  1  0
 14 20  4  0
 14 23  4  0
 15 17  4  0
 15 21  4  0
 16 19  4  0
 16 23  4  0
 17 22  4  0
 18 26  4  0
 19 24  4  0
 20 24  4  0
 22 27  4  0
 28 29  4  0
M  END
$$$$

 Created by Python create_sdf_string function

 29 33  0  0  0  0  0  0  0  0999 V2000
   10.7215   -3.3326   17.6437 C   0  0  0  0  0  0  0  0  0  0  0  0
    9.9489   -3.4675   24.6487 N   0  0  0  0  0  0  0  0  0  0  0  0
   10.0172   -4.4740   17.4101 C   0  0  0  0  0  0  0  0  0  0  0  0
    6.9051   -7.9575   16.4222 C   0  0  0  0  0  0  0  0  0  0  0  0
    8.9969   -6.3552   17.9668 N   0  0  0  0  0  0  0  0  0  0  0  0
   10.6702   -3.9051   22.4070 C   0  0  0  0  0  0  0  0  0  0  0  0
   11.0625   -3.0028   18.8894 C   0  0  0  0  0  0  0  0  0  0  0  0
    5.6180   -7.9194   16.1754 O   0  0  0  0  0  0  0  0  0  0  0  0
    9.7259   -5.3080   18.4485 C   0  0  0  0  0  0  0  0  0  0  0  0
    9.4578   -5.0200   16.3036 N   0  0  0  0  0  0  0  0  0  0  0  0
    5.0287   -8.9365   16.8223 C   0  0  0  0  0  0  0  0  0  0  0  0
    8.7742   -6.1498   16.6764 C   0  0  0  0  0  0  0  0  0  0  0  0
   10.9418   -3.4032   21.2053 O   0  0  0  0  0  0  0  0  0  0  0  0
    1.4797   -8.6258   16.2950 C   0  0  0  0  0  0  0  0  0  0  0  0
    9.2861   -1.2743   25.3585 C   0  0  0  0  0  0  0  0  0  0  0  0
    1.8892  -10.3985   17.7511 N   0  0  0  0  0  0  0  0  0  0  0  0
    9.6210   -0.6952   24.0976 C   0  0  0  0  0  0  0  0  0  0  0  0
    7.0792   -9.0217   17.1429 C   0  0  0  0  0  0  0  0  0  0  0  0
    3.1713  -10.1816   17.6634 C   0  0  0  0  0  0  0  0  0  0  0  0
    2.7878   -8.3822   16.2137 C   0  0  0  0  0  0  0  0  0  0  0  0
    9.4601   -2.6590   25.6528 C   0  0  0  0  0  0  0  0  0  0  0  0
   10.1182   -1.5672   23.1165 C   0  0  0  0  0  0  0  0  0  0  0  0
    1.0552   -9.6360   17.0650 C   0  0  0  0  0  0  0  0  0  0  0  0
    3.6519   -9.1783   16.9039 C   0  0  0  0  0  0  0  0  0  0  0  0
    7.8675   -7.0096   15.9415 C   0  0  0  0  0  0  0  0  0  0  0  0
    5.9733   -9.6553   17.3832 N   0  0  0  0  0  0  0  0  0  0  0  0
   10.2411   -2.9363   23.4301 C   0  0  0  0  0  0  0  0  0  0  0  0
   10.7288   -3.8197   19.9525 C   0  0  0  0  0  0  0  0  0  0  0  0
   10.1189   -5.0054   19.6987 C   0  0  0  0  0  0  0  0  0  0  0  0
  1  3  4  0
  1  7  4  0
  2 21  4  0
  2 27  4  0
  3  9  4  0
  3 10  4  0
  4  8  4  0
  4 18  4  0
  4 25  1  0
  5  9  4  0
  5 12  4  0
  6 13  1  0
  6 27  1  0
  7 28  4  0
  8 11  4  0
  9 29  4  0
 10 12  4  0
 11 24  1  0
 11 26  4  0
 12 25  1  0
 13 28  1  0
 14 20  4  0
 14 23  4  0
 15 17  4  0
 15 21  4  0
 16 19  4  0
 16 23  4  0
 17 22  4  0
 18 26  4  0
 19 24  4  0
 20 24  4  0
 22 27  4  0
 28 29  4  0
M  END
$$$$

 Created by Python create_sdf_string function

 29 33  0  0  0  0  0  0  0  0999 V2000
   10.7215   -3.3326   17.6437 C   0  0  0  0  0  0  0  0  0  0  0  0
    9.9489   -3.4675   24.6487 N   0  0  0  0  0  0  0  0  0  0  0  0
   10.0172   -4.4740   17.4101 C   0  0  0  0  0  0  0  0  0  0  0  0
    6.9051   -7.9575   16.4222 C   0  0  0  0  0  0  0  0  0  0  0  0
    8.9969   -6.3552   17.9668 N   0  0  0  0  0  0  0  0  0  0  0  0
   10.6702   -3.9051   22.4070 C   0  0  0  0  0  0  0  0  0  0  0  0
   11.0625   -3.0028   18.8894 C   0  0  0  0  0  0  0  0  0  0  0  0
    5.6180   -7.9194   16.1754 O   0  0  0  0  0  0  0  0  0  0  0  0
    9.7259   -5.3080   18.4485 C   0  0  0  0  0  0  0  0  0  0  0  0
    9.4578   -5.0200   16.3036 N   0  0  0  0  0  0  0  0  0  0  0  0
    5.0287   -8.9365   16.8223 C   0  0  0  0  0  0  0  0  0  0  0  0
    8.7742   -6.1498   16.6764 C   0  0  0  0  0  0  0  0  0  0  0  0
   10.9418   -3.4032   21.2053 O   0  0  0  0  0  0  0  0  0  0  0  0
    1.4797   -8.6258   16.2950 C   0  0  0  0  0  0  0  0  0  0  0  0
    9.2861   -1.2743   25.3585 C   0  0  0  0  0  0  0  0  0  0  0  0
    1.8892  -10.3985   17.7511 N   0  0  0  0  0  0  0  0  0  0  0  0
    9.6210   -0.6952   24.0976 C   0  0  0  0  0  0  0  0  0  0  0  0
    7.0792   -9.0217   17.1429 C   0  0  0  0  0  0  0  0  0  0  0  0
    3.1713  -10.1816   17.6634 C   0  0  0  0  0  0  0  0  0  0  0  0
    2.7878   -8.3822   16.2137 C   0  0  0  0  0  0  0  0  0  0  0  0
    9.4601   -2.6590   25.6528 C   0  0  0  0  0  0  0  0  0  0  0  0
   10.1182   -1.5672   23.1165 C   0  0  0  0  0  0  0  0  0  0  0  0
    1.0552   -9.6360   17.0650 C   0  0  0  0  0  0  0  0  0  0  0  0
    3.6519   -9.1783   16.9039 C   0  0  0  0  0  0  0  0  0  0  0  0
    7.8675   -7.0096   15.9415 C   0  0  0  0  0  0  0  0  0  0  0  0
    5.9733   -9.6553   17.3832 N   0  0  0  0  0  0  0  0  0  0  0  0
   10.2411   -2.9363   23.4301 C   0  0  0  0  0  0  0  0  0  0  0  0
   10.7288   -3.8197   19.9525 C   0  0  0  0  0  0  0  0  0  0  0  0
   10.1189   -5.0054   19.6987 C   0  0  0  0  0  0  0  0  0  0  0  0
  1  3  4  0
  1  7  4  0
  2 21  4  0
  2 27  4  0
  3  9  4  0
  3 10  4  0
  4  8  4  0
  4 18  4  0
  4 25  1  0
  5  9  4  0
  5 12  4  0
  6 13  1  0
  6 27  1  0
  7 28  4  0
  8 11  4  0
  9 29  4  0
 10 12  4  0
 11 24  1  0
 11 26  4  0
 12 25  1  0
 13 28  1  0
 14 20  4  0
 14 23  4  0
 15 17  4  0
 15 21  4  0
 16 19  4  0
 16 23  4  0
 17 22  4  0
 18 26  4  0
 19 24  4  0
 20 24  4  0
 22 27  4  0
 28 29  4  0
M  END
$$$$

 Created by Python create_sdf_string function

 29 33  0  0  0  0  0  0  0  0999 V2000
   10.7215   -3.3326   17.6437 C   0  0  0  0  0  0  0  0  0  0  0  0
    9.9489   -3.4675   24.6487 N   0  0  0  0  0  0  0  0  0  0  0  0
   10.0172   -4.4740   17.4101 C   0  0  0  0  0  0  0  0  0  0  0  0
    6.9051   -7.9575   16.4222 C   0  0  0  0  0  0  0  0  0  0  0  0
    8.9969   -6.3552   17.9668 N   0  0  0  0  0  0  0  0  0  0  0  0
   10.6702   -3.9051   22.4070 C   0  0  0  0  0  0  0  0  0  0  0  0
   11.0625   -3.0028   18.8894 C   0  0  0  0  0  0  0  0  0  0  0  0
    5.6180   -7.9194   16.1754 O   0  0  0  0  0  0  0  0  0  0  0  0
    9.7259   -5.3080   18.4485 C   0  0  0  0  0  0  0  0  0  0  0  0
    9.4578   -5.0200   16.3036 N   0  0  0  0  0  0  0  0  0  0  0  0
    5.0287   -8.9365   16.8223 C   0  0  0  0  0  0  0  0  0  0  0  0
    8.7742   -6.1498   16.6764 C   0  0  0  0  0  0  0  0  0  0  0  0
   10.9418   -3.4032   21.2053 O   0  0  0  0  0  0  0  0  0  0  0  0
    1.4797   -8.6258   16.2950 C   0  0  0  0  0  0  0  0  0  0  0  0
    9.2861   -1.2743   25.3585 C   0  0  0  0  0  0  0  0  0  0  0  0
    1.8892  -10.3985   17.7511 N   0  0  0  0  0  0  0  0  0  0  0  0
    9.6210   -0.6952   24.0976 C   0  0  0  0  0  0  0  0  0  0  0  0
    7.0792   -9.0217   17.1429 C   0  0  0  0  0  0  0  0  0  0  0  0
    3.1713  -10.1816   17.6634 C   0  0  0  0  0  0  0  0  0  0  0  0
    2.7878   -8.3822   16.2137 C   0  0  0  0  0  0  0  0  0  0  0  0
    9.4601   -2.6590   25.6528 C   0  0  0  0  0  0  0  0  0  0  0  0
   10.1182   -1.5672   23.1165 C   0  0  0  0  0  0  0  0  0  0  0  0
    1.0552   -9.6360   17.0650 C   0  0  0  0  0  0  0  0  0  0  0  0
    3.6519   -9.1783   16.9039 C   0  0  0  0  0  0  0  0  0  0  0  0
    7.8675   -7.0096   15.9415 C   0  0  0  0  0  0  0  0  0  0  0  0
    5.9733   -9.6553   17.3832 N   0  0  0  0  0  0  0  0  0  0  0  0
   10.2411   -2.9363   23.4301 C   0  0  0  0  0  0  0  0  0  0  0  0
   10.7288   -3.8197   19.9525 C   0  0  0  0  0  0  0  0  0  0  0  0
   10.1189   -5.0054   19.6987 C   0  0  0  0  0  0  0  0  0  0  0  0
  1  3  4  0
  1  7  4  0
  2 21  4  0
  2 27  4  0
  3  9  4  0
  3 10  4  0
  4  8  4  0
  4 18  4  0
  4 25  1  0
  5  9  4  0
  5 12  4  0
  6 13  1  0
  6 27  1  0
  7 28  4  0
  8 11  4  0
  9 29  4  0
 10 12  4  0
 11 24  1  0
 11 26  4  0
 12 25  1  0
 13 28  1  0
 14 20  4  0
 14 23  4  0
 15 17  4  0
 15 21  4  0
 16 19  4  0
 16 23  4  0
 17 22  4  0
 18 26  4  0
 19 24  4  0
 20 24  4  0
 22 27  4  0
 28 29  4  0
M  END
$$$$

 Created by Python create_sdf_string function

 29 33  0  0  0  0  0  0  0  0999 V2000
   10.7215   -3.3326   17.6437 C   0  0  0  0  0  0  0  0  0  0  0  0
    9.9489   -3.4675   24.6487 N   0  0  0  0  0  0  0  0  0  0  0  0
   10.0172   -4.4740   17.4101 C   0  0  0  0  0  0  0  0  0  0  0  0
    6.9051   -7.9575   16.4222 C   0  0  0  0  0  0  0  0  0  0  0  0
    8.9969   -6.3552   17.9668 N   0  0  0  0  0  0  0  0  0  0  0  0
   10.6702   -3.9051   22.4070 C   0  0  0  0  0  0  0  0  0  0  0  0
   11.0625   -3.0028   18.8894 C   0  0  0  0  0  0  0  0  0  0  0  0
    5.6180   -7.9194   16.1754 O   0  0  0  0  0  0  0  0  0  0  0  0
    9.7259   -5.3080   18.4485 C   0  0  0  0  0  0  0  0  0  0  0  0
    9.4578   -5.0200   16.3036 N   0  0  0  0  0  0  0  0  0  0  0  0
    5.0287   -8.9365   16.8223 C   0  0  0  0  0  0  0  0  0  0  0  0
    8.7742   -6.1498   16.6764 C   0  0  0  0  0  0  0  0  0  0  0  0
   10.9418   -3.4032   21.2053 O   0  0  0  0  0  0  0  0  0  0  0  0
    1.4797   -8.6258   16.2950 C   0  0  0  0  0  0  0  0  0  0  0  0
    9.2861   -1.2743   25.3585 C   0  0  0  0  0  0  0  0  0  0  0  0
    1.8892  -10.3985   17.7511 N   0  0  0  0  0  0  0  0  0  0  0  0
    9.6210   -0.6952   24.0976 C   0  0  0  0  0  0  0  0  0  0  0  0
    7.0792   -9.0217   17.1429 C   0  0  0  0  0  0  0  0  0  0  0  0
    3.1713  -10.1816   17.6634 C   0  0  0  0  0  0  0  0  0  0  0  0
    2.7878   -8.3822   16.2137 C   0  0  0  0  0  0  0  0  0  0  0  0
    9.4601   -2.6590   25.6528 C   0  0  0  0  0  0  0  0  0  0  0  0
   10.1182   -1.5672   23.1165 C   0  0  0  0  0  0  0  0  0  0  0  0
    1.0552   -9.6360   17.0650 C   0  0  0  0  0  0  0  0  0  0  0  0
    3.6519   -9.1783   16.9039 C   0  0  0  0  0  0  0  0  0  0  0  0
    7.8675   -7.0096   15.9415 C   0  0  0  0  0  0  0  0  0  0  0  0
    5.9733   -9.6553   17.3832 N   0  0  0  0  0  0  0  0  0  0  0  0
   10.2411   -2.9363   23.4301 C   0  0  0  0  0  0  0  0  0  0  0  0
   10.7288   -3.8197   19.9525 C   0  0  0  0  0  0  0  0  0  0  0  0
   10.1189   -5.0054   19.6987 C   0  0  0  0  0  0  0  0  0  0  0  0
  1  3  4  0
  1  7  4  0
  2 21  4  0
  2 27  4  0
  3  9  4  0
  3 10  4  0
  4  8  4  0
  4 18  4  0
  4 25  1  0
  5  9  4  0
  5 12  4  0
  6 13  1  0
  6 27  1  0
  7 28  4  0
  8 11  4  0
  9 29  4  0
 10 12  4  0
 11 24  1  0
 11 26  4  0
 12 25  1  0
 13 28  1  0
 14 20  4  0
 14 23  4  0
 15 17  4  0
 15 21  4  0
 16 19  4  0
 16 23  4  0
 17 22  4  0
 18 26  4  0
 19 24  4  0
 20 24  4  0
 22 27  4  0
 28 29  4  0
M  END
$$$$

 Created by Python create_sdf_string function

 29 33  0  0  0  0  0  0  0  0999 V2000
   10.7215   -3.3326   17.6437 C   0  0  0  0  0  0  0  0  0  0  0  0
    9.9489   -3.4675   24.6487 N   0  0  0  0  0  0  0  0  0  0  0  0
   10.0172   -4.4740   17.4101 C   0  0  0  0  0  0  0  0  0  0  0  0
    6.9051   -7.9575   16.4222 C   0  0  0  0  0  0  0  0  0  0  0  0
    8.9969   -6.3552   17.9668 N   0  0  0  0  0  0  0  0  0  0  0  0
   10.6702   -3.9051   22.4070 C   0  0  0  0  0  0  0  0  0  0  0  0
   11.0625   -3.0028   18.8894 C   0  0  0  0  0  0  0  0  0  0  0  0
    5.6180   -7.9194   16.1754 O   0  0  0  0  0  0  0  0  0  0  0  0
    9.7259   -5.3080   18.4485 C   0  0  0  0  0  0  0  0  0  0  0  0
    9.4578   -5.0200   16.3036 N   0  0  0  0  0  0  0  0  0  0  0  0
    5.0287   -8.9365   16.8223 C   0  0  0  0  0  0  0  0  0  0  0  0
    8.7742   -6.1498   16.6764 C   0  0  0  0  0  0  0  0  0  0  0  0
   10.9418   -3.4032   21.2053 O   0  0  0  0  0  0  0  0  0  0  0  0
    1.4797   -8.6258   16.2950 C   0  0  0  0  0  0  0  0  0  0  0  0
    9.2861   -1.2743   25.3585 C   0  0  0  0  0  0  0  0  0  0  0  0
    1.8892  -10.3985   17.7511 N   0  0  0  0  0  0  0  0  0  0  0  0
    9.6210   -0.6952   24.0976 C   0  0  0  0  0  0  0  0  0  0  0  0
    7.0792   -9.0217   17.1429 C   0  0  0  0  0  0  0  0  0  0  0  0
    3.1713  -10.1816   17.6634 C   0  0  0  0  0  0  0  0  0  0  0  0
    2.7878   -8.3822   16.2137 C   0  0  0  0  0  0  0  0  0  0  0  0
    9.4601   -2.6590   25.6528 C   0  0  0  0  0  0  0  0  0  0  0  0
   10.1182   -1.5672   23.1165 C   0  0  0  0  0  0  0  0  0  0  0  0
    1.0552   -9.6360   17.0650 C   0  0  0  0  0  0  0  0  0  0  0  0
    3.6519   -9.1783   16.9039 C   0  0  0  0  0  0  0  0  0  0  0  0
    7.8675   -7.0096   15.9415 C   0  0  0  0  0  0  0  0  0  0  0  0
    5.9733   -9.6553   17.3832 N   0  0  0  0  0  0  0  0  0  0  0  0
   10.2411   -2.9363   23.4301 C   0  0  0  0  0  0  0  0  0  0  0  0
   10.7288   -3.8197   19.9525 C   0  0  0  0  0  0  0  0  0  0  0  0
   10.1189   -5.0054   19.6987 C   0  0  0  0  0  0  0  0  0  0  0  0
  1  3  4  0
  1  7  4  0
  2 21  4  0
  2 27  4  0
  3  9  4  0
  3 10  4  0
  4  8  4  0
  4 18  4  0
  4 25  1  0
  5  9  4  0
  5 12  4  0
  6 13  1  0
  6 27  1  0
  7 28  4  0
  8 11  4  0
  9 29  4  0
 10 12  4  0
 11 24  1  0
 11 26  4  0
 12 25  1  0
 13 28  1  0
 14 20  4  0
 14 23  4  0
 15 17  4  0
 15 21  4  0
 16 19  4  0
 16 23  4  0
 17 22  4  0
 18 26  4  0
 19 24  4  0
 20 24  4  0
 22 27  4  0
 28 29  4  0
M  END
$$$$

 Created by Python create_sdf_string function

 29 33  0  0  0  0  0  0  0  0999 V2000
   10.7215   -3.3326   17.6437 C   0  0  0  0  0  0  0  0  0  0  0  0
    9.9489   -3.4675   24.6487 N   0  0  0  0  0  0  0  0  0  0  0  0
   10.0172   -4.4740   17.4101 C   0  0  0  0  0  0  0  0  0  0  0  0
    6.9051   -7.9575   16.4222 C   0  0  0  0  0  0  0  0  0  0  0  0
    8.9969   -6.3552   17.9668 N   0  0  0  0  0  0  0  0  0  0  0  0
   10.6702   -3.9051   22.4070 C   0  0  0  0  0  0  0  0  0  0  0  0
   11.0625   -3.0028   18.8894 C   0  0  0  0  0  0  0  0  0  0  0  0
    5.6180   -7.9194   16.1754 O   0  0  0  0  0  0  0  0  0  0  0  0
    9.7259   -5.3080   18.4485 C   0  0  0  0  0  0  0  0  0  0  0  0
    9.4578   -5.0200   16.3036 N   0  0  0  0  0  0  0  0  0  0  0  0
    5.0287   -8.9365   16.8223 C   0  0  0  0  0  0  0  0  0  0  0  0
    8.7742   -6.1498   16.6764 C   0  0  0  0  0  0  0  0  0  0  0  0
   10.9418   -3.4032   21.2053 O   0  0  0  0  0  0  0  0  0  0  0  0
    1.4797   -8.6258   16.2950 C   0  0  0  0  0  0  0  0  0  0  0  0
    9.2861   -1.2743   25.3585 C   0  0  0  0  0  0  0  0  0  0  0  0
    1.8892  -10.3985   17.7511 N   0  0  0  0  0  0  0  0  0  0  0  0
    9.6210   -0.6952   24.0976 C   0  0  0  0  0  0  0  0  0  0  0  0
    7.0792   -9.0217   17.1429 C   0  0  0  0  0  0  0  0  0  0  0  0
    3.1713  -10.1816   17.6634 C   0  0  0  0  0  0  0  0  0  0  0  0
    2.7878   -8.3822   16.2137 C   0  0  0  0  0  0  0  0  0  0  0  0
    9.4601   -2.6590   25.6528 C   0  0  0  0  0  0  0  0  0  0  0  0
   10.1182   -1.5672   23.1165 C   0  0  0  0  0  0  0  0  0  0  0  0
    1.0552   -9.6360   17.0650 C   0  0  0  0  0  0  0  0  0  0  0  0
    3.6519   -9.1783   16.9039 C   0  0  0  0  0  0  0  0  0  0  0  0
    7.8675   -7.0096   15.9415 C   0  0  0  0  0  0  0  0  0  0  0  0
    5.9733   -9.6553   17.3832 N   0  0  0  0  0  0  0  0  0  0  0  0
   10.2411   -2.9363   23.4301 C   0  0  0  0  0  0  0  0  0  0  0  0
   10.7288   -3.8197   19.9525 C   0  0  0  0  0  0  0  0  0  0  0  0
   10.1189   -5.0054   19.6987 C   0  0  0  0  0  0  0  0  0  0  0  0
  1  3  4  0
  1  7  4  0
  2 21  4  0
  2 27  4  0
  3  9  4  0
  3 10  4  0
  4  8  4  0
  4 18  4  0
  4 25  1  0
  5  9  4  0
  5 12  4  0
  6 13  1  0
  6 27  1  0
  7 28  4  0
  8 11  4  0
  9 29  4  0
 10 12  4  0
 11 24  1  0
 11 26  4  0
 12 25  1  0
 13 28  1  0
 14 20  4  0
 14 23  4  0
 15 17  4  0
 15 21  4  0
 16 19  4  0
 16 23  4  0
 17 22  4  0
 18 26  4  0
 19 24  4  0
 20 24  4  0
 22 27  4  0
 28 29  4  0
M  END
$$$$

 Created by Python create_sdf_string function

 29 33  0  0  0  0  0  0  0  0999 V2000
   10.7215   -3.3326   17.6437 C   0  0  0  0  0  0  0  0  0  0  0  0
    9.9489   -3.4675   24.6487 N   0  0  0  0  0  0  0  0  0  0  0  0
   10.0172   -4.4740   17.4101 C   0  0  0  0  0  0  0  0  0  0  0  0
    6.9051   -7.9575   16.4222 C   0  0  0  0  0  0  0  0  0  0  0  0
    8.9969   -6.3552   17.9668 N   0  0  0  0  0  0  0  0  0  0  0  0
   10.6702   -3.9051   22.4070 C   0  0  0  0  0  0  0  0  0  0  0  0
   11.0625   -3.0028   18.8894 C   0  0  0  0  0  0  0  0  0  0  0  0
    5.6180   -7.9194   16.1754 O   0  0  0  0  0  0  0  0  0  0  0  0
    9.7259   -5.3080   18.4485 C   0  0  0  0  0  0  0  0  0  0  0  0
    9.4578   -5.0200   16.3036 N   0  0  0  0  0  0  0  0  0  0  0  0
    5.0287   -8.9365   16.8223 C   0  0  0  0  0  0  0  0  0  0  0  0
    8.7742   -6.1498   16.6764 C   0  0  0  0  0  0  0  0  0  0  0  0
   10.9418   -3.4032   21.2053 O   0  0  0  0  0  0  0  0  0  0  0  0
    1.4797   -8.6258   16.2950 C   0  0  0  0  0  0  0  0  0  0  0  0
    9.2861   -1.2743   25.3585 C   0  0  0  0  0  0  0  0  0  0  0  0
    1.8892  -10.3985   17.7511 N   0  0  0  0  0  0  0  0  0  0  0  0
    9.6210   -0.6952   24.0976 C   0  0  0  0  0  0  0  0  0  0  0  0
    7.0792   -9.0217   17.1429 C   0  0  0  0  0  0  0  0  0  0  0  0
    3.1713  -10.1816   17.6634 C   0  0  0  0  0  0  0  0  0  0  0  0
    2.7878   -8.3822   16.2137 C   0  0  0  0  0  0  0  0  0  0  0  0
    9.4601   -2.6590   25.6528 C   0  0  0  0  0  0  0  0  0  0  0  0
   10.1182   -1.5672   23.1165 C   0  0  0  0  0  0  0  0  0  0  0  0
    1.0552   -9.6360   17.0650 C   0  0  0  0  0  0  0  0  0  0  0  0
    3.6519   -9.1783   16.9039 C   0  0  0  0  0  0  0  0  0  0  0  0
    7.8675   -7.0096   15.9415 C   0  0  0  0  0  0  0  0  0  0  0  0
    5.9733   -9.6553   17.3832 N   0  0  0  0  0  0  0  0  0  0  0  0
   10.2411   -2.9363   23.4301 C   0  0  0  0  0  0  0  0  0  0  0  0
   10.7288   -3.8197   19.9525 C   0  0  0  0  0  0  0  0  0  0  0  0
   10.1189   -5.0054   19.6987 C   0  0  0  0  0  0  0  0  0  0  0  0
  1  3  4  0
  1  7  4  0
  2 21  4  0
  2 27  4  0
  3  9  4  0
  3 10  4  0
  4  8  4  0
  4 18  4  0
  4 25  1  0
  5  9  4  0
  5 12  4  0
  6 13  1  0
  6 27  1  0
  7 28  4  0
  8 11  4  0
  9 29  4  0
 10 12  4  0
 11 24  1  0
 11 26  4  0
 12 25  1  0
 13 28  1  0
 14 20  4  0
 14 23  4  0
 15 17  4  0
 15 21  4  0
 16 19  4  0
 16 23  4  0
 17 22  4  0
 18 26  4  0
 19 24  4  0
 20 24  4  0
 22 27  4  0
 28 29  4  0
M  END
$$$$

 Created by Python create_sdf_string function

 29 33  0  0  0  0  0  0  0  0999 V2000
   10.7215   -3.3326   17.6437 C   0  0  0  0  0  0  0  0  0  0  0  0
    9.9489   -3.4675   24.6487 N   0  0  0  0  0  0  0  0  0  0  0  0
   10.0172   -4.4740   17.4101 C   0  0  0  0  0  0  0  0  0  0  0  0
    6.9051   -7.9575   16.4222 C   0  0  0  0  0  0  0  0  0  0  0  0
    8.9969   -6.3552   17.9668 N   0  0  0  0  0  0  0  0  0  0  0  0
   10.6702   -3.9051   22.4070 C   0  0  0  0  0  0  0  0  0  0  0  0
   11.0625   -3.0028   18.8894 C   0  0  0  0  0  0  0  0  0  0  0  0
    5.6180   -7.9194   16.1754 O   0  0  0  0  0  0  0  0  0  0  0  0
    9.7259   -5.3080   18.4485 C   0  0  0  0  0  0  0  0  0  0  0  0
    9.4578   -5.0200   16.3036 N   0  0  0  0  0  0  0  0  0  0  0  0
    5.0287   -8.9365   16.8223 C   0  0  0  0  0  0  0  0  0  0  0  0
    8.7742   -6.1498   16.6764 C   0  0  0  0  0  0  0  0  0  0  0  0
   10.9418   -3.4032   21.2053 O   0  0  0  0  0  0  0  0  0  0  0  0
    1.4797   -8.6258   16.2950 C   0  0  0  0  0  0  0  0  0  0  0  0
    9.2861   -1.2743   25.3585 C   0  0  0  0  0  0  0  0  0  0  0  0
    1.8892  -10.3985   17.7511 N   0  0  0  0  0  0  0  0  0  0  0  0
    9.6210   -0.6952   24.0976 C   0  0  0  0  0  0  0  0  0  0  0  0
    7.0792   -9.0217   17.1429 C   0  0  0  0  0  0  0  0  0  0  0  0
    3.1713  -10.1816   17.6634 C   0  0  0  0  0  0  0  0  0  0  0  0
    2.7878   -8.3822   16.2137 C   0  0  0  0  0  0  0  0  0  0  0  0
    9.4601   -2.6590   25.6528 C   0  0  0  0  0  0  0  0  0  0  0  0
   10.1182   -1.5672   23.1165 C   0  0  0  0  0  0  0  0  0  0  0  0
    1.0552   -9.6360   17.0650 C   0  0  0  0  0  0  0  0  0  0  0  0
    3.6519   -9.1783   16.9039 C   0  0  0  0  0  0  0  0  0  0  0  0
    7.8675   -7.0096   15.9415 C   0  0  0  0  0  0  0  0  0  0  0  0
    5.9733   -9.6553   17.3832 N   0  0  0  0  0  0  0  0  0  0  0  0
   10.2411   -2.9363   23.4301 C   0  0  0  0  0  0  0  0  0  0  0  0
   10.7288   -3.8197   19.9525 C   0  0  0  0  0  0  0  0  0  0  0  0
   10.1189   -5.0054   19.6987 C   0  0  0  0  0  0  0  0  0  0  0  0
  1  3  4  0
  1  7  4  0
  2 21  4  0
  2 27  4  0
  3  9  4  0
  3 10  4  0
  4  8  4  0
  4 18  4  0
  4 25  1  0
  5  9  4  0
  5 12  4  0
  6 13  1  0
  6 27  1  0
  7 28  4  0
  8 11  4  0
  9 29  4  0
 10 12  4  0
 11 24  1  0
 11 26  4  0
 12 25  1  0
 13 28  1  0
 14 20  4  0
 14 23  4  0
 15 17  4  0
 15 21  4  0
 16 19  4  0
 16 23  4  0
 17 22  4  0
 18 26  4  0
 19 24  4  0
 20 24  4  0
 22 27  4  0
 28 29  4  0
M  END
$$$$

 Created by Python create_sdf_string function

 29 33  0  0  0  0  0  0  0  0999 V2000
   10.7215   -3.3326   17.6437 C   0  0  0  0  0  0  0  0  0  0  0  0
    9.9489   -3.4675   24.6487 N   0  0  0  0  0  0  0  0  0  0  0  0
   10.0172   -4.4740   17.4101 C   0  0  0  0  0  0  0  0  0  0  0  0
    6.9051   -7.9575   16.4222 C   0  0  0  0  0  0  0  0  0  0  0  0
    8.9969   -6.3552   17.9668 N   0  0  0  0  0  0  0  0  0  0  0  0
   10.6702   -3.9051   22.4070 C   0  0  0  0  0  0  0  0  0  0  0  0
   11.0625   -3.0028   18.8894 C   0  0  0  0  0  0  0  0  0  0  0  0
    5.6180   -7.9194   16.1754 O   0  0  0  0  0  0  0  0  0  0  0  0
    9.7259   -5.3080   18.4485 C   0  0  0  0  0  0  0  0  0  0  0  0
    9.4578   -5.0200   16.3036 N   0  0  0  0  0  0  0  0  0  0  0  0
    5.0287   -8.9365   16.8223 C   0  0  0  0  0  0  0  0  0  0  0  0
    8.7742   -6.1498   16.6764 C   0  0  0  0  0  0  0  0  0  0  0  0
   10.9418   -3.4032   21.2053 O   0  0  0  0  0  0  0  0  0  0  0  0
    1.4797   -8.6258   16.2950 C   0  0  0  0  0  0  0  0  0  0  0  0
    9.2861   -1.2743   25.3585 C   0  0  0  0  0  0  0  0  0  0  0  0
    1.8892  -10.3985   17.7511 N   0  0  0  0  0  0  0  0  0  0  0  0
    9.6210   -0.6952   24.0976 C   0  0  0  0  0  0  0  0  0  0  0  0
    7.0792   -9.0217   17.1429 C   0  0  0  0  0  0  0  0  0  0  0  0
    3.1713  -10.1816   17.6634 C   0  0  0  0  0  0  0  0  0  0  0  0
    2.7878   -8.3822   16.2137 C   0  0  0  0  0  0  0  0  0  0  0  0
    9.4601   -2.6590   25.6528 C   0  0  0  0  0  0  0  0  0  0  0  0
   10.1182   -1.5672   23.1165 C   0  0  0  0  0  0  0  0  0  0  0  0
    1.0552   -9.6360   17.0650 C   0  0  0  0  0  0  0  0  0  0  0  0
    3.6519   -9.1783   16.9039 C   0  0  0  0  0  0  0  0  0  0  0  0
    7.8675   -7.0096   15.9415 C   0  0  0  0  0  0  0  0  0  0  0  0
    5.9733   -9.6553   17.3832 N   0  0  0  0  0  0  0  0  0  0  0  0
   10.2411   -2.9363   23.4301 C   0  0  0  0  0  0  0  0  0  0  0  0
   10.7288   -3.8197   19.9525 C   0  0  0  0  0  0  0  0  0  0  0  0
   10.1189   -5.0054   19.6987 C   0  0  0  0  0  0  0  0  0  0  0  0
  1  3  4  0
  1  7  4  0
  2 21  4  0
  2 27  4  0
  3  9  4  0
  3 10  4  0
  4  8  4  0
  4 18  4  0
  4 25  1  0
  5  9  4  0
  5 12  4  0
  6 13  1  0
  6 27  1  0
  7 28  4  0
  8 11  4  0
  9 29  4  0
 10 12  4  0
 11 24  1  0
 11 26  4  0
 12 25  1  0
 13 28  1  0
 14 20  4  0
 14 23  4  0
 15 17  4  0
 15 21  4  0
 16 19  4  0
 16 23  4  0
 17 22  4  0
 18 26  4  0
 19 24  4  0
 20 24  4  0
 22 27  4  0
 28 29  4  0
M  END
$$$$

 Created by Python create_sdf_string function

 29 33  0  0  0  0  0  0  0  0999 V2000
   10.7215   -3.3326   17.6437 C   0  0  0  0  0  0  0  0  0  0  0  0
    9.9489   -3.4675   24.6487 N   0  0  0  0  0  0  0  0  0  0  0  0
   10.0172   -4.4740   17.4101 C   0  0  0  0  0  0  0  0  0  0  0  0
    6.9051   -7.9575   16.4222 C   0  0  0  0  0  0  0  0  0  0  0  0
    8.9969   -6.3552   17.9668 N   0  0  0  0  0  0  0  0  0  0  0  0
   10.6702   -3.9051   22.4070 C   0  0  0  0  0  0  0  0  0  0  0  0
   11.0625   -3.0028   18.8894 C   0  0  0  0  0  0  0  0  0  0  0  0
    5.6180   -7.9194   16.1754 O   0  0  0  0  0  0  0  0  0  0  0  0
    9.7259   -5.3080   18.4485 C   0  0  0  0  0  0  0  0  0  0  0  0
    9.4578   -5.0200   16.3036 N   0  0  0  0  0  0  0  0  0  0  0  0
    5.0287   -8.9365   16.8223 C   0  0  0  0  0  0  0  0  0  0  0  0
    8.7742   -6.1498   16.6764 C   0  0  0  0  0  0  0  0  0  0  0  0
   10.9418   -3.4032   21.2053 O   0  0  0  0  0  0  0  0  0  0  0  0
    1.4797   -8.6258   16.2950 C   0  0  0  0  0  0  0  0  0  0  0  0
    9.2861   -1.2743   25.3585 C   0  0  0  0  0  0  0  0  0  0  0  0
    1.8892  -10.3985   17.7511 N   0  0  0  0  0  0  0  0  0  0  0  0
    9.6210   -0.6952   24.0976 C   0  0  0  0  0  0  0  0  0  0  0  0
    7.0792   -9.0217   17.1429 C   0  0  0  0  0  0  0  0  0  0  0  0
    3.1713  -10.1816   17.6634 C   0  0  0  0  0  0  0  0  0  0  0  0
    2.7878   -8.3822   16.2137 C   0  0  0  0  0  0  0  0  0  0  0  0
    9.4601   -2.6590   25.6528 C   0  0  0  0  0  0  0  0  0  0  0  0
   10.1182   -1.5672   23.1165 C   0  0  0  0  0  0  0  0  0  0  0  0
    1.0552   -9.6360   17.0650 C   0  0  0  0  0  0  0  0  0  0  0  0
    3.6519   -9.1783   16.9039 C   0  0  0  0  0  0  0  0  0  0  0  0
    7.8675   -7.0096   15.9415 C   0  0  0  0  0  0  0  0  0  0  0  0
    5.9733   -9.6553   17.3832 N   0  0  0  0  0  0  0  0  0  0  0  0
   10.2411   -2.9363   23.4301 C   0  0  0  0  0  0  0  0  0  0  0  0
   10.7288   -3.8197   19.9525 C   0  0  0  0  0  0  0  0  0  0  0  0
   10.1189   -5.0054   19.6987 C   0  0  0  0  0  0  0  0  0  0  0  0
  1  3  4  0
  1  7  4  0
  2 21  4  0
  2 27  4  0
  3  9  4  0
  3 10  4  0
  4  8  4  0
  4 18  4  0
  4 25  1  0
  5  9  4  0
  5 12  4  0
  6 13  1  0
  6 27  1  0
  7 28  4  0
  8 11  4  0
  9 29  4  0
 10 12  4  0
 11 24  1  0
 11 26  4  0
 12 25  1  0
 13 28  1  0
 14 20  4  0
 14 23  4  0
 15 17  4  0
 15 21  4  0
 16 19  4  0
 16 23  4  0
 17 22  4  0
 18 26  4  0
 19 24  4  0
 20 24  4  0
 22 27  4  0
 28 29  4  0
M  END
$$$$

 Created by Python create_sdf_string function

 29 33  0  0  0  0  0  0  0  0999 V2000
   10.7215   -3.3326   17.6437 C   0  0  0  0  0  0  0  0  0  0  0  0
    9.9489   -3.4675   24.6487 N   0  0  0  0  0  0  0  0  0  0  0  0
   10.0172   -4.4740   17.4101 C   0  0  0  0  0  0  0  0  0  0  0  0
    6.9051   -7.9575   16.4222 C   0  0  0  0  0  0  0  0  0  0  0  0
    8.9969   -6.3552   17.9668 N   0  0  0  0  0  0  0  0  0  0  0  0
   10.6702   -3.9051   22.4070 C   0  0  0  0  0  0  0  0  0  0  0  0
   11.0625   -3.0028   18.8894 C   0  0  0  0  0  0  0  0  0  0  0  0
    5.6180   -7.9194   16.1754 O   0  0  0  0  0  0  0  0  0  0  0  0
    9.7259   -5.3080   18.4485 C   0  0  0  0  0  0  0  0  0  0  0  0
    9.4578   -5.0200   16.3036 N   0  0  0  0  0  0  0  0  0  0  0  0
    5.0287   -8.9365   16.8223 C   0  0  0  0  0  0  0  0  0  0  0  0
    8.7742   -6.1498   16.6764 C   0  0  0  0  0  0  0  0  0  0  0  0
   10.9418   -3.4032   21.2053 O   0  0  0  0  0  0  0  0  0  0  0  0
    1.4797   -8.6258   16.2950 C   0  0  0  0  0  0  0  0  0  0  0  0
    9.2861   -1.2743   25.3585 C   0  0  0  0  0  0  0  0  0  0  0  0
    1.8892  -10.3985   17.7511 N   0  0  0  0  0  0  0  0  0  0  0  0
    9.6210   -0.6952   24.0976 C   0  0  0  0  0  0  0  0  0  0  0  0
    7.0792   -9.0217   17.1429 C   0  0  0  0  0  0  0  0  0  0  0  0
    3.1713  -10.1816   17.6634 C   0  0  0  0  0  0  0  0  0  0  0  0
    2.7878   -8.3822   16.2137 C   0  0  0  0  0  0  0  0  0  0  0  0
    9.4601   -2.6590   25.6528 C   0  0  0  0  0  0  0  0  0  0  0  0
   10.1182   -1.5672   23.1165 C   0  0  0  0  0  0  0  0  0  0  0  0
    1.0552   -9.6360   17.0650 C   0  0  0  0  0  0  0  0  0  0  0  0
    3.6519   -9.1783   16.9039 C   0  0  0  0  0  0  0  0  0  0  0  0
    7.8675   -7.0096   15.9415 C   0  0  0  0  0  0  0  0  0  0  0  0
    5.9733   -9.6553   17.3832 N   0  0  0  0  0  0  0  0  0  0  0  0
   10.2411   -2.9363   23.4301 C   0  0  0  0  0  0  0  0  0  0  0  0
   10.7288   -3.8197   19.9525 C   0  0  0  0  0  0  0  0  0  0  0  0
   10.1189   -5.0054   19.6987 C   0  0  0  0  0  0  0  0  0  0  0  0
  1  3  4  0
  1  7  4  0
  2 21  4  0
  2 27  4  0
  3  9  4  0
  3 10  4  0
  4  8  4  0
  4 18  4  0
  4 25  1  0
  5  9  4  0
  5 12  4  0
  6 13  1  0
  6 27  1  0
  7 28  4  0
  8 11  4  0
  9 29  4  0
 10 12  4  0
 11 24  1  0
 11 26  4  0
 12 25  1  0
 13 28  1  0
 14 20  4  0
 14 23  4  0
 15 17  4  0
 15 21  4  0
 16 19  4  0
 16 23  4  0
 17 22  4  0
 18 26  4  0
 19 24  4  0
 20 24  4  0
 22 27  4  0
 28 29  4  0
M  END
$$$$

 Created by Python create_sdf_string function

 29 33  0  0  0  0  0  0  0  0999 V2000
   10.7215   -3.3326   17.6437 C   0  0  0  0  0  0  0  0  0  0  0  0
    9.9489   -3.4675   24.6487 N   0  0  0  0  0  0  0  0  0  0  0  0
   10.0172   -4.4740   17.4101 C   0  0  0  0  0  0  0  0  0  0  0  0
    6.9051   -7.9575   16.4222 C   0  0  0  0  0  0  0  0  0  0  0  0
    8.9969   -6.3552   17.9668 N   0  0  0  0  0  0  0  0  0  0  0  0
   10.6702   -3.9051   22.4070 C   0  0  0  0  0  0  0  0  0  0  0  0
   11.0625   -3.0028   18.8894 C   0  0  0  0  0  0  0  0  0  0  0  0
    5.6180   -7.9194   16.1754 O   0  0  0  0  0  0  0  0  0  0  0  0
    9.7259   -5.3080   18.4485 C   0  0  0  0  0  0  0  0  0  0  0  0
    9.4578   -5.0200   16.3036 N   0  0  0  0  0  0  0  0  0  0  0  0
    5.0287   -8.9365   16.8223 C   0  0  0  0  0  0  0  0  0  0  0  0
    8.7742   -6.1498   16.6764 C   0  0  0  0  0  0  0  0  0  0  0  0
   10.9418   -3.4032   21.2053 O   0  0  0  0  0  0  0  0  0  0  0  0
    1.4797   -8.6258   16.2950 C   0  0  0  0  0  0  0  0  0  0  0  0
    9.2861   -1.2743   25.3585 C   0  0  0  0  0  0  0  0  0  0  0  0
    1.8892  -10.3985   17.7511 N   0  0  0  0  0  0  0  0  0  0  0  0
    9.6210   -0.6952   24.0976 C   0  0  0  0  0  0  0  0  0  0  0  0
    7.0792   -9.0217   17.1429 C   0  0  0  0  0  0  0  0  0  0  0  0
    3.1713  -10.1816   17.6634 C   0  0  0  0  0  0  0  0  0  0  0  0
    2.7878   -8.3822   16.2137 C   0  0  0  0  0  0  0  0  0  0  0  0
    9.4601   -2.6590   25.6528 C   0  0  0  0  0  0  0  0  0  0  0  0
   10.1182   -1.5672   23.1165 C   0  0  0  0  0  0  0  0  0  0  0  0
    1.0552   -9.6360   17.0650 C   0  0  0  0  0  0  0  0  0  0  0  0
    3.6519   -9.1783   16.9039 C   0  0  0  0  0  0  0  0  0  0  0  0
    7.8675   -7.0096   15.9415 C   0  0  0  0  0  0  0  0  0  0  0  0
    5.9733   -9.6553   17.3832 N   0  0  0  0  0  0  0  0  0  0  0  0
   10.2411   -2.9363   23.4301 C   0  0  0  0  0  0  0  0  0  0  0  0
   10.7288   -3.8197   19.9525 C   0  0  0  0  0  0  0  0  0  0  0  0
   10.1189   -5.0054   19.6987 C   0  0  0  0  0  0  0  0  0  0  0  0
  1  3  4  0
  1  7  4  0
  2 21  4  0
  2 27  4  0
  3  9  4  0
  3 10  4  0
  4  8  4  0
  4 18  4  0
  4 25  1  0
  5  9  4  0
  5 12  4  0
  6 13  1  0
  6 27  1  0
  7 28  4  0
  8 11  4  0
  9 29  4  0
 10 12  4  0
 11 24  1  0
 11 26  4  0
 12 25  1  0
 13 28  1  0
 14 20  4  0
 14 23  4  0
 15 17  4  0
 15 21  4  0
 16 19  4  0
 16 23  4  0
 17 22  4  0
 18 26  4  0
 19 24  4  0
 20 24  4  0
 22 27  4  0
 28 29  4  0
M  END
$$$$

 Created by Python create_sdf_string function

 29 33  0  0  0  0  0  0  0  0999 V2000
   10.7215   -3.3326   17.6437 C   0  0  0  0  0  0  0  0  0  0  0  0
    9.9489   -3.4675   24.6487 N   0  0  0  0  0  0  0  0  0  0  0  0
   10.0172   -4.4740   17.4101 C   0  0  0  0  0  0  0  0  0  0  0  0
    6.9051   -7.9575   16.4222 C   0  0  0  0  0  0  0  0  0  0  0  0
    8.9969   -6.3552   17.9668 N   0  0  0  0  0  0  0  0  0  0  0  0
   10.6702   -3.9051   22.4070 C   0  0  0  0  0  0  0  0  0  0  0  0
   11.0625   -3.0028   18.8894 C   0  0  0  0  0  0  0  0  0  0  0  0
    5.6180   -7.9194   16.1754 O   0  0  0  0  0  0  0  0  0  0  0  0
    9.7259   -5.3080   18.4485 C   0  0  0  0  0  0  0  0  0  0  0  0
    9.4578   -5.0200   16.3036 N   0  0  0  0  0  0  0  0  0  0  0  0
    5.0287   -8.9365   16.8223 C   0  0  0  0  0  0  0  0  0  0  0  0
    8.7742   -6.1498   16.6764 C   0  0  0  0  0  0  0  0  0  0  0  0
   10.9418   -3.4032   21.2053 O   0  0  0  0  0  0  0  0  0  0  0  0
    1.4797   -8.6258   16.2950 C   0  0  0  0  0  0  0  0  0  0  0  0
    9.2861   -1.2743   25.3585 C   0  0  0  0  0  0  0  0  0  0  0  0
    1.8892  -10.3985   17.7511 N   0  0  0  0  0  0  0  0  0  0  0  0
    9.6210   -0.6952   24.0976 C   0  0  0  0  0  0  0  0  0  0  0  0
    7.0792   -9.0217   17.1429 C   0  0  0  0  0  0  0  0  0  0  0  0
    3.1713  -10.1816   17.6634 C   0  0  0  0  0  0  0  0  0  0  0  0
    2.7878   -8.3822   16.2137 C   0  0  0  0  0  0  0  0  0  0  0  0
    9.4601   -2.6590   25.6528 C   0  0  0  0  0  0  0  0  0  0  0  0
   10.1182   -1.5672   23.1165 C   0  0  0  0  0  0  0  0  0  0  0  0
    1.0552   -9.6360   17.0650 C   0  0  0  0  0  0  0  0  0  0  0  0
    3.6519   -9.1783   16.9039 C   0  0  0  0  0  0  0  0  0  0  0  0
    7.8675   -7.0096   15.9415 C   0  0  0  0  0  0  0  0  0  0  0  0
    5.9733   -9.6553   17.3832 N   0  0  0  0  0  0  0  0  0  0  0  0
   10.2411   -2.9363   23.4301 C   0  0  0  0  0  0  0  0  0  0  0  0
   10.7288   -3.8197   19.9525 C   0  0  0  0  0  0  0  0  0  0  0  0
   10.1189   -5.0054   19.6987 C   0  0  0  0  0  0  0  0  0  0  0  0
  1  3  4  0
  1  7  4  0
  2 21  4  0
  2 27  4  0
  3  9  4  0
  3 10  4  0
  4  8  4  0
  4 18  4  0
  4 25  1  0
  5  9  4  0
  5 12  4  0
  6 13  1  0
  6 27  1  0
  7 28  4  0
  8 11  4  0
  9 29  4  0
 10 12  4  0
 11 24  1  0
 11 26  4  0
 12 25  1  0
 13 28  1  0
 14 20  4  0
 14 23  4  0
 15 17  4  0
 15 21  4  0
 16 19  4  0
 16 23  4  0
 17 22  4  0
 18 26  4  0
 19 24  4  0
 20 24  4  0
 22 27  4  0
 28 29  4  0
M  END
$$$$

 Created by Python create_sdf_string function

 29 33  0  0  0  0  0  0  0  0999 V2000
   10.7215   -3.3326   17.6437 C   0  0  0  0  0  0  0  0  0  0  0  0
    9.9489   -3.4675   24.6487 N   0  0  0  0  0  0  0  0  0  0  0  0
   10.0172   -4.4740   17.4101 C   0  0  0  0  0  0  0  0  0  0  0  0
    6.9051   -7.9575   16.4222 C   0  0  0  0  0  0  0  0  0  0  0  0
    8.9969   -6.3552   17.9668 N   0  0  0  0  0  0  0  0  0  0  0  0
   10.6702   -3.9051   22.4070 C   0  0  0  0  0  0  0  0  0  0  0  0
   11.0625   -3.0028   18.8894 C   0  0  0  0  0  0  0  0  0  0  0  0
    5.6180   -7.9194   16.1754 O   0  0  0  0  0  0  0  0  0  0  0  0
    9.7259   -5.3080   18.4485 C   0  0  0  0  0  0  0  0  0  0  0  0
    9.4578   -5.0200   16.3036 N   0  0  0  0  0  0  0  0  0  0  0  0
    5.0287   -8.9365   16.8223 C   0  0  0  0  0  0  0  0  0  0  0  0
    8.7742   -6.1498   16.6764 C   0  0  0  0  0  0  0  0  0  0  0  0
   10.9418   -3.4032   21.2053 O   0  0  0  0  0  0  0  0  0  0  0  0
    1.4797   -8.6258   16.2950 C   0  0  0  0  0  0  0  0  0  0  0  0
    9.2861   -1.2743   25.3585 C   0  0  0  0  0  0  0  0  0  0  0  0
    1.8892  -10.3985   17.7511 N   0  0  0  0  0  0  0  0  0  0  0  0
    9.6210   -0.6952   24.0976 C   0  0  0  0  0  0  0  0  0  0  0  0
    7.0792   -9.0217   17.1429 C   0  0  0  0  0  0  0  0  0  0  0  0
    3.1713  -10.1816   17.6634 C   0  0  0  0  0  0  0  0  0  0  0  0
    2.7878   -8.3822   16.2137 C   0  0  0  0  0  0  0  0  0  0  0  0
    9.4601   -2.6590   25.6528 C   0  0  0  0  0  0  0  0  0  0  0  0
   10.1182   -1.5672   23.1165 C   0  0  0  0  0  0  0  0  0  0  0  0
    1.0552   -9.6360   17.0650 C   0  0  0  0  0  0  0  0  0  0  0  0
    3.6519   -9.1783   16.9039 C   0  0  0  0  0  0  0  0  0  0  0  0
    7.8675   -7.0096   15.9415 C   0  0  0  0  0  0  0  0  0  0  0  0
    5.9733   -9.6553   17.3832 N   0  0  0  0  0  0  0  0  0  0  0  0
   10.2411   -2.9363   23.4301 C   0  0  0  0  0  0  0  0  0  0  0  0
   10.7288   -3.8197   19.9525 C   0  0  0  0  0  0  0  0  0  0  0  0
   10.1189   -5.0054   19.6987 C   0  0  0  0  0  0  0  0  0  0  0  0
  1  3  4  0
  1  7  4  0
  2 21  4  0
  2 27  4  0
  3  9  4  0
  3 10  4  0
  4  8  4  0
  4 18  4  0
  4 25  1  0
  5  9  4  0
  5 12  4  0
  6 13  1  0
  6 27  1  0
  7 28  4  0
  8 11  4  0
  9 29  4  0
 10 12  4  0
 11 24  1  0
 11 26  4  0
 12 25  1  0
 13 28  1  0
 14 20  4  0
 14 23  4  0
 15 17  4  0
 15 21  4  0
 16 19  4  0
 16 23  4  0
 17 22  4  0
 18 26  4  0
 19 24  4  0
 20 24  4  0
 22 27  4  0
 28 29  4  0
M  END
$$$$

 Created by Python create_sdf_string function

 29 33  0  0  0  0  0  0  0  0999 V2000
   10.7215   -3.3326   17.6437 C   0  0  0  0  0  0  0  0  0  0  0  0
    9.9489   -3.4675   24.6487 N   0  0  0  0  0  0  0  0  0  0  0  0
   10.0172   -4.4740   17.4101 C   0  0  0  0  0  0  0  0  0  0  0  0
    6.9051   -7.9575   16.4222 C   0  0  0  0  0  0  0  0  0  0  0  0
    8.9969   -6.3552   17.9668 N   0  0  0  0  0  0  0  0  0  0  0  0
   10.6702   -3.9051   22.4070 C   0  0  0  0  0  0  0  0  0  0  0  0
   11.0625   -3.0028   18.8894 C   0  0  0  0  0  0  0  0  0  0  0  0
    5.6180   -7.9194   16.1754 O   0  0  0  0  0  0  0  0  0  0  0  0
    9.7259   -5.3080   18.4485 C   0  0  0  0  0  0  0  0  0  0  0  0
    9.4578   -5.0200   16.3036 N   0  0  0  0  0  0  0  0  0  0  0  0
    5.0287   -8.9365   16.8223 C   0  0  0  0  0  0  0  0  0  0  0  0
    8.7742   -6.1498   16.6764 C   0  0  0  0  0  0  0  0  0  0  0  0
   10.9418   -3.4032   21.2053 O   0  0  0  0  0  0  0  0  0  0  0  0
    1.4797   -8.6258   16.2950 C   0  0  0  0  0  0  0  0  0  0  0  0
    9.2861   -1.2743   25.3585 C   0  0  0  0  0  0  0  0  0  0  0  0
    1.8892  -10.3985   17.7511 N   0  0  0  0  0  0  0  0  0  0  0  0
    9.6210   -0.6952   24.0976 C   0  0  0  0  0  0  0  0  0  0  0  0
    7.0792   -9.0217   17.1429 C   0  0  0  0  0  0  0  0  0  0  0  0
    3.1713  -10.1816   17.6634 C   0  0  0  0  0  0  0  0  0  0  0  0
    2.7878   -8.3822   16.2137 C   0  0  0  0  0  0  0  0  0  0  0  0
    9.4601   -2.6590   25.6528 C   0  0  0  0  0  0  0  0  0  0  0  0
   10.1182   -1.5672   23.1165 C   0  0  0  0  0  0  0  0  0  0  0  0
    1.0552   -9.6360   17.0650 C   0  0  0  0  0  0  0  0  0  0  0  0
    3.6519   -9.1783   16.9039 C   0  0  0  0  0  0  0  0  0  0  0  0
    7.8675   -7.0096   15.9415 C   0  0  0  0  0  0  0  0  0  0  0  0
    5.9733   -9.6553   17.3832 N   0  0  0  0  0  0  0  0  0  0  0  0
   10.2411   -2.9363   23.4301 C   0  0  0  0  0  0  0  0  0  0  0  0
   10.7288   -3.8197   19.9525 C   0  0  0  0  0  0  0  0  0  0  0  0
   10.1189   -5.0054   19.6987 C   0  0  0  0  0  0  0  0  0  0  0  0
  1  3  4  0
  1  7  4  0
  2 21  4  0
  2 27  4  0
  3  9  4  0
  3 10  4  0
  4  8  4  0
  4 18  4  0
  4 25  1  0
  5  9  4  0
  5 12  4  0
  6 13  1  0
  6 27  1  0
  7 28  4  0
  8 11  4  0
  9 29  4  0
 10 12  4  0
 11 24  1  0
 11 26  4  0
 12 25  1  0
 13 28  1  0
 14 20  4  0
 14 23  4  0
 15 17  4  0
 15 21  4  0
 16 19  4  0
 16 23  4  0
 17 22  4  0
 18 26  4  0
 19 24  4  0
 20 24  4  0
 22 27  4  0
 28 29  4  0
M  END
$$$$

 Created by Python create_sdf_string function

 29 33  0  0  0  0  0  0  0  0999 V2000
   10.7215   -3.3326   17.6437 C   0  0  0  0  0  0  0  0  0  0  0  0
    9.9489   -3.4675   24.6487 N   0  0  0  0  0  0  0  0  0  0  0  0
   10.0172   -4.4740   17.4101 C   0  0  0  0  0  0  0  0  0  0  0  0
    6.9051   -7.9575   16.4222 C   0  0  0  0  0  0  0  0  0  0  0  0
    8.9969   -6.3552   17.9668 N   0  0  0  0  0  0  0  0  0  0  0  0
   10.6702   -3.9051   22.4070 C   0  0  0  0  0  0  0  0  0  0  0  0
   11.0625   -3.0028   18.8894 C   0  0  0  0  0  0  0  0  0  0  0  0
    5.6180   -7.9194   16.1754 O   0  0  0  0  0  0  0  0  0  0  0  0
    9.7259   -5.3080   18.4485 C   0  0  0  0  0  0  0  0  0  0  0  0
    9.4578   -5.0200   16.3036 N   0  0  0  0  0  0  0  0  0  0  0  0
    5.0287   -8.9365   16.8223 C   0  0  0  0  0  0  0  0  0  0  0  0
    8.7742   -6.1498   16.6764 C   0  0  0  0  0  0  0  0  0  0  0  0
   10.9418   -3.4032   21.2053 O   0  0  0  0  0  0  0  0  0  0  0  0
    1.4797   -8.6258   16.2950 C   0  0  0  0  0  0  0  0  0  0  0  0
    9.2861   -1.2743   25.3585 C   0  0  0  0  0  0  0  0  0  0  0  0
    1.8892  -10.3985   17.7511 N   0  0  0  0  0  0  0  0  0  0  0  0
    9.6210   -0.6952   24.0976 C   0  0  0  0  0  0  0  0  0  0  0  0
    7.0792   -9.0217   17.1429 C   0  0  0  0  0  0  0  0  0  0  0  0
    3.1713  -10.1816   17.6634 C   0  0  0  0  0  0  0  0  0  0  0  0
    2.7878   -8.3822   16.2137 C   0  0  0  0  0  0  0  0  0  0  0  0
    9.4601   -2.6590   25.6528 C   0  0  0  0  0  0  0  0  0  0  0  0
   10.1182   -1.5672   23.1165 C   0  0  0  0  0  0  0  0  0  0  0  0
    1.0552   -9.6360   17.0650 C   0  0  0  0  0  0  0  0  0  0  0  0
    3.6519   -9.1783   16.9039 C   0  0  0  0  0  0  0  0  0  0  0  0
    7.8675   -7.0096   15.9415 C   0  0  0  0  0  0  0  0  0  0  0  0
    5.9733   -9.6553   17.3832 N   0  0  0  0  0  0  0  0  0  0  0  0
   10.2411   -2.9363   23.4301 C   0  0  0  0  0  0  0  0  0  0  0  0
   10.7288   -3.8197   19.9525 C   0  0  0  0  0  0  0  0  0  0  0  0
   10.1189   -5.0054   19.6987 C   0  0  0  0  0  0  0  0  0  0  0  0
  1  3  4  0
  1  7  4  0
  2 21  4  0
  2 27  4  0
  3  9  4  0
  3 10  4  0
  4  8  4  0
  4 18  4  0
  4 25  1  0
  5  9  4  0
  5 12  4  0
  6 13  1  0
  6 27  1  0
  7 28  4  0
  8 11  4  0
  9 29  4  0
 10 12  4  0
 11 24  1  0
 11 26  4  0
 12 25  1  0
 13 28  1  0
 14 20  4  0
 14 23  4  0
 15 17  4  0
 15 21  4  0
 16 19  4  0
 16 23  4  0
 17 22  4  0
 18 26  4  0
 19 24  4  0
 20 24  4  0
 22 27  4  0
 28 29  4  0
M  END
$$$$

 Created by Python create_sdf_string function

 29 33  0  0  0  0  0  0  0  0999 V2000
   10.7215   -3.3326   17.6437 C   0  0  0  0  0  0  0  0  0  0  0  0
    9.9489   -3.4675   24.6487 N   0  0  0  0  0  0  0  0  0  0  0  0
   10.0172   -4.4740   17.4101 C   0  0  0  0  0  0  0  0  0  0  0  0
    6.9051   -7.9575   16.4222 C   0  0  0  0  0  0  0  0  0  0  0  0
    8.9969   -6.3552   17.9668 N   0  0  0  0  0  0  0  0  0  0  0  0
   10.6702   -3.9051   22.4070 C   0  0  0  0  0  0  0  0  0  0  0  0
   11.0625   -3.0028   18.8894 C   0  0  0  0  0  0  0  0  0  0  0  0
    5.6180   -7.9194   16.1754 O   0  0  0  0  0  0  0  0  0  0  0  0
    9.7259   -5.3080   18.4485 C   0  0  0  0  0  0  0  0  0  0  0  0
    9.4578   -5.0200   16.3036 N   0  0  0  0  0  0  0  0  0  0  0  0
    5.0287   -8.9365   16.8223 C   0  0  0  0  0  0  0  0  0  0  0  0
    8.7742   -6.1498   16.6764 C   0  0  0  0  0  0  0  0  0  0  0  0
   10.9418   -3.4032   21.2053 O   0  0  0  0  0  0  0  0  0  0  0  0
    1.4797   -8.6258   16.2950 C   0  0  0  0  0  0  0  0  0  0  0  0
    9.2861   -1.2743   25.3585 C   0  0  0  0  0  0  0  0  0  0  0  0
    1.8892  -10.3985   17.7511 N   0  0  0  0  0  0  0  0  0  0  0  0
    9.6210   -0.6952   24.0976 C   0  0  0  0  0  0  0  0  0  0  0  0
    7.0792   -9.0217   17.1429 C   0  0  0  0  0  0  0  0  0  0  0  0
    3.1713  -10.1816   17.6634 C   0  0  0  0  0  0  0  0  0  0  0  0
    2.7878   -8.3822   16.2137 C   0  0  0  0  0  0  0  0  0  0  0  0
    9.4601   -2.6590   25.6528 C   0  0  0  0  0  0  0  0  0  0  0  0
   10.1182   -1.5672   23.1165 C   0  0  0  0  0  0  0  0  0  0  0  0
    1.0552   -9.6360   17.0650 C   0  0  0  0  0  0  0  0  0  0  0  0
    3.6519   -9.1783   16.9039 C   0  0  0  0  0  0  0  0  0  0  0  0
    7.8675   -7.0096   15.9415 C   0  0  0  0  0  0  0  0  0  0  0  0
    5.9733   -9.6553   17.3832 N   0  0  0  0  0  0  0  0  0  0  0  0
   10.2411   -2.9363   23.4301 C   0  0  0  0  0  0  0  0  0  0  0  0
   10.7288   -3.8197   19.9525 C   0  0  0  0  0  0  0  0  0  0  0  0
   10.1189   -5.0054   19.6987 C   0  0  0  0  0  0  0  0  0  0  0  0
  1  3  4  0
  1  7  4  0
  2 21  4  0
  2 27  4  0
  3  9  4  0
  3 10  4  0
  4  8  4  0
  4 18  4  0
  4 25  1  0
  5  9  4  0
  5 12  4  0
  6 13  1  0
  6 27  1  0
  7 28  4  0
  8 11  4  0
  9 29  4  0
 10 12  4  0
 11 24  1  0
 11 26  4  0
 12 25  1  0
 13 28  1  0
 14 20  4  0
 14 23  4  0
 15 17  4  0
 15 21  4  0
 16 19  4  0
 16 23  4  0
 17 22  4  0
 18 26  4  0
 19 24  4  0
 20 24  4  0
 22 27  4  0
 28 29  4  0
M  END
$$$$

 Created by Python create_sdf_string function

 29 33  0  0  0  0  0  0  0  0999 V2000
   10.7215   -3.3326   17.6437 C   0  0  0  0  0  0  0  0  0  0  0  0
    9.9489   -3.4675   24.6487 N   0  0  0  0  0  0  0  0  0  0  0  0
   10.0172   -4.4740   17.4101 C   0  0  0  0  0  0  0  0  0  0  0  0
    6.9051   -7.9575   16.4222 C   0  0  0  0  0  0  0  0  0  0  0  0
    8.9969   -6.3552   17.9668 N   0  0  0  0  0  0  0  0  0  0  0  0
   10.6702   -3.9051   22.4070 C   0  0  0  0  0  0  0  0  0  0  0  0
   11.0625   -3.0028   18.8894 C   0  0  0  0  0  0  0  0  0  0  0  0
    5.6180   -7.9194   16.1754 O   0  0  0  0  0  0  0  0  0  0  0  0
    9.7259   -5.3080   18.4485 C   0  0  0  0  0  0  0  0  0  0  0  0
    9.4578   -5.0200   16.3036 N   0  0  0  0  0  0  0  0  0  0  0  0
    5.0287   -8.9365   16.8223 C   0  0  0  0  0  0  0  0  0  0  0  0
    8.7742   -6.1498   16.6764 C   0  0  0  0  0  0  0  0  0  0  0  0
   10.9418   -3.4032   21.2053 O   0  0  0  0  0  0  0  0  0  0  0  0
    1.4797   -8.6258   16.2950 C   0  0  0  0  0  0  0  0  0  0  0  0
    9.2861   -1.2743   25.3585 C   0  0  0  0  0  0  0  0  0  0  0  0
    1.8892  -10.3985   17.7511 N   0  0  0  0  0  0  0  0  0  0  0  0
    9.6210   -0.6952   24.0976 C   0  0  0  0  0  0  0  0  0  0  0  0
    7.0792   -9.0217   17.1429 C   0  0  0  0  0  0  0  0  0  0  0  0
    3.1713  -10.1816   17.6634 C   0  0  0  0  0  0  0  0  0  0  0  0
    2.7878   -8.3822   16.2137 C   0  0  0  0  0  0  0  0  0  0  0  0
    9.4601   -2.6590   25.6528 C   0  0  0  0  0  0  0  0  0  0  0  0
   10.1182   -1.5672   23.1165 C   0  0  0  0  0  0  0  0  0  0  0  0
    1.0552   -9.6360   17.0650 C   0  0  0  0  0  0  0  0  0  0  0  0
    3.6519   -9.1783   16.9039 C   0  0  0  0  0  0  0  0  0  0  0  0
    7.8675   -7.0096   15.9415 C   0  0  0  0  0  0  0  0  0  0  0  0
    5.9733   -9.6553   17.3832 N   0  0  0  0  0  0  0  0  0  0  0  0
   10.2411   -2.9363   23.4301 C   0  0  0  0  0  0  0  0  0  0  0  0
   10.7288   -3.8197   19.9525 C   0  0  0  0  0  0  0  0  0  0  0  0
   10.1189   -5.0054   19.6987 C   0  0  0  0  0  0  0  0  0  0  0  0
  1  3  4  0
  1  7  4  0
  2 21  4  0
  2 27  4  0
  3  9  4  0
  3 10  4  0
  4  8  4  0
  4 18  4  0
  4 25  1  0
  5  9  4  0
  5 12  4  0
  6 13  1  0
  6 27  1  0
  7 28  4  0
  8 11  4  0
  9 29  4  0
 10 12  4  0
 11 24  1  0
 11 26  4  0
 12 25  1  0
 13 28  1  0
 14 20  4  0
 14 23  4  0
 15 17  4  0
 15 21  4  0
 16 19  4  0
 16 23  4  0
 17 22  4  0
 18 26  4  0
 19 24  4  0
 20 24  4  0
 22 27  4  0
 28 29  4  0
M  END
$$$$

 Created by Python create_sdf_string function

 29 33  0  0  0  0  0  0  0  0999 V2000
   10.7215   -3.3326   17.6437 C   0  0  0  0  0  0  0  0  0  0  0  0
    9.9489   -3.4675   24.6487 N   0  0  0  0  0  0  0  0  0  0  0  0
   10.0172   -4.4740   17.4101 C   0  0  0  0  0  0  0  0  0  0  0  0
    6.9051   -7.9575   16.4222 C   0  0  0  0  0  0  0  0  0  0  0  0
    8.9969   -6.3552   17.9668 N   0  0  0  0  0  0  0  0  0  0  0  0
   10.6702   -3.9051   22.4070 C   0  0  0  0  0  0  0  0  0  0  0  0
   11.0625   -3.0028   18.8894 C   0  0  0  0  0  0  0  0  0  0  0  0
    5.6180   -7.9194   16.1754 O   0  0  0  0  0  0  0  0  0  0  0  0
    9.7259   -5.3080   18.4485 C   0  0  0  0  0  0  0  0  0  0  0  0
    9.4578   -5.0200   16.3036 N   0  0  0  0  0  0  0  0  0  0  0  0
    5.0287   -8.9365   16.8223 C   0  0  0  0  0  0  0  0  0  0  0  0
    8.7742   -6.1498   16.6764 C   0  0  0  0  0  0  0  0  0  0  0  0
   10.9418   -3.4032   21.2053 O   0  0  0  0  0  0  0  0  0  0  0  0
    1.4797   -8.6258   16.2950 C   0  0  0  0  0  0  0  0  0  0  0  0
    9.2861   -1.2743   25.3585 C   0  0  0  0  0  0  0  0  0  0  0  0
    1.8892  -10.3985   17.7511 N   0  0  0  0  0  0  0  0  0  0  0  0
    9.6210   -0.6952   24.0976 C   0  0  0  0  0  0  0  0  0  0  0  0
    7.0792   -9.0217   17.1429 C   0  0  0  0  0  0  0  0  0  0  0  0
    3.1713  -10.1816   17.6634 C   0  0  0  0  0  0  0  0  0  0  0  0
    2.7878   -8.3822   16.2137 C   0  0  0  0  0  0  0  0  0  0  0  0
    9.4601   -2.6590   25.6528 C   0  0  0  0  0  0  0  0  0  0  0  0
   10.1182   -1.5672   23.1165 C   0  0  0  0  0  0  0  0  0  0  0  0
    1.0552   -9.6360   17.0650 C   0  0  0  0  0  0  0  0  0  0  0  0
    3.6519   -9.1783   16.9039 C   0  0  0  0  0  0  0  0  0  0  0  0
    7.8675   -7.0096   15.9415 C   0  0  0  0  0  0  0  0  0  0  0  0
    5.9733   -9.6553   17.3832 N   0  0  0  0  0  0  0  0  0  0  0  0
   10.2411   -2.9363   23.4301 C   0  0  0  0  0  0  0  0  0  0  0  0
   10.7288   -3.8197   19.9525 C   0  0  0  0  0  0  0  0  0  0  0  0
   10.1189   -5.0054   19.6987 C   0  0  0  0  0  0  0  0  0  0  0  0
  1  3  4  0
  1  7  4  0
  2 21  4  0
  2 27  4  0
  3  9  4  0
  3 10  4  0
  4  8  4  0
  4 18  4  0
  4 25  1  0
  5  9  4  0
  5 12  4  0
  6 13  1  0
  6 27  1  0
  7 28  4  0
  8 11  4  0
  9 29  4  0
 10 12  4  0
 11 24  1  0
 11 26  4  0
 12 25  1  0
 13 28  1  0
 14 20  4  0
 14 23  4  0
 15 17  4  0
 15 21  4  0
 16 19  4  0
 16 23  4  0
 17 22  4  0
 18 26  4  0
 19 24  4  0
 20 24  4  0
 22 27  4  0
 28 29  4  0
M  END
$$$$

 Created by Python create_sdf_string function

 29 33  0  0  0  0  0  0  0  0999 V2000
   10.7215   -3.3326   17.6437 C   0  0  0  0  0  0  0  0  0  0  0  0
    9.9489   -3.4675   24.6487 N   0  0  0  0  0  0  0  0  0  0  0  0
   10.0172   -4.4740   17.4101 C   0  0  0  0  0  0  0  0  0  0  0  0
    6.9051   -7.9575   16.4222 C   0  0  0  0  0  0  0  0  0  0  0  0
    8.9969   -6.3552   17.9668 N   0  0  0  0  0  0  0  0  0  0  0  0
   10.6702   -3.9051   22.4070 C   0  0  0  0  0  0  0  0  0  0  0  0
   11.0625   -3.0028   18.8894 C   0  0  0  0  0  0  0  0  0  0  0  0
    5.6180   -7.9194   16.1754 O   0  0  0  0  0  0  0  0  0  0  0  0
    9.7259   -5.3080   18.4485 C   0  0  0  0  0  0  0  0  0  0  0  0
    9.4578   -5.0200   16.3036 N   0  0  0  0  0  0  0  0  0  0  0  0
    5.0287   -8.9365   16.8223 C   0  0  0  0  0  0  0  0  0  0  0  0
    8.7742   -6.1498   16.6764 C   0  0  0  0  0  0  0  0  0  0  0  0
   10.9418   -3.4032   21.2053 O   0  0  0  0  0  0  0  0  0  0  0  0
    1.4797   -8.6258   16.2950 C   0  0  0  0  0  0  0  0  0  0  0  0
    9.2861   -1.2743   25.3585 C   0  0  0  0  0  0  0  0  0  0  0  0
    1.8892  -10.3985   17.7511 N   0  0  0  0  0  0  0  0  0  0  0  0
    9.6210   -0.6952   24.0976 C   0  0  0  0  0  0  0  0  0  0  0  0
    7.0792   -9.0217   17.1429 C   0  0  0  0  0  0  0  0  0  0  0  0
    3.1713  -10.1816   17.6634 C   0  0  0  0  0  0  0  0  0  0  0  0
    2.7878   -8.3822   16.2137 C   0  0  0  0  0  0  0  0  0  0  0  0
    9.4601   -2.6590   25.6528 C   0  0  0  0  0  0  0  0  0  0  0  0
   10.1182   -1.5672   23.1165 C   0  0  0  0  0  0  0  0  0  0  0  0
    1.0552   -9.6360   17.0650 C   0  0  0  0  0  0  0  0  0  0  0  0
    3.6519   -9.1783   16.9039 C   0  0  0  0  0  0  0  0  0  0  0  0
    7.8675   -7.0096   15.9415 C   0  0  0  0  0  0  0  0  0  0  0  0
    5.9733   -9.6553   17.3832 N   0  0  0  0  0  0  0  0  0  0  0  0
   10.2411   -2.9363   23.4301 C   0  0  0  0  0  0  0  0  0  0  0  0
   10.7288   -3.8197   19.9525 C   0  0  0  0  0  0  0  0  0  0  0  0
   10.1189   -5.0054   19.6987 C   0  0  0  0  0  0  0  0  0  0  0  0
  1  3  4  0
  1  7  4  0
  2 21  4  0
  2 27  4  0
  3  9  4  0
  3 10  4  0
  4  8  4  0
  4 18  4  0
  4 25  1  0
  5  9  4  0
  5 12  4  0
  6 13  1  0
  6 27  1  0
  7 28  4  0
  8 11  4  0
  9 29  4  0
 10 12  4  0
 11 24  1  0
 11 26  4  0
 12 25  1  0
 13 28  1  0
 14 20  4  0
 14 23  4  0
 15 17  4  0
 15 21  4  0
 16 19  4  0
 16 23  4  0
 17 22  4  0
 18 26  4  0
 19 24  4  0
 20 24  4  0
 22 27  4  0
 28 29  4  0
M  END
$$$$

 Created by Python create_sdf_string function

 29 33  0  0  0  0  0  0  0  0999 V2000
   10.7215   -3.3326   17.6437 C   0  0  0  0  0  0  0  0  0  0  0  0
    9.9489   -3.4675   24.6487 N   0  0  0  0  0  0  0  0  0  0  0  0
   10.0172   -4.4740   17.4101 C   0  0  0  0  0  0  0  0  0  0  0  0
    6.9051   -7.9575   16.4222 C   0  0  0  0  0  0  0  0  0  0  0  0
    8.9969   -6.3552   17.9668 N   0  0  0  0  0  0  0  0  0  0  0  0
   10.6702   -3.9051   22.4070 C   0  0  0  0  0  0  0  0  0  0  0  0
   11.0625   -3.0028   18.8894 C   0  0  0  0  0  0  0  0  0  0  0  0
    5.6180   -7.9194   16.1754 O   0  0  0  0  0  0  0  0  0  0  0  0
    9.7259   -5.3080   18.4485 C   0  0  0  0  0  0  0  0  0  0  0  0
    9.4578   -5.0200   16.3036 N   0  0  0  0  0  0  0  0  0  0  0  0
    5.0287   -8.9365   16.8223 C   0  0  0  0  0  0  0  0  0  0  0  0
    8.7742   -6.1498   16.6764 C   0  0  0  0  0  0  0  0  0  0  0  0
   10.9418   -3.4032   21.2053 O   0  0  0  0  0  0  0  0  0  0  0  0
    1.4797   -8.6258   16.2950 C   0  0  0  0  0  0  0  0  0  0  0  0
    9.2861   -1.2743   25.3585 C   0  0  0  0  0  0  0  0  0  0  0  0
    1.8892  -10.3985   17.7511 N   0  0  0  0  0  0  0  0  0  0  0  0
    9.6210   -0.6952   24.0976 C   0  0  0  0  0  0  0  0  0  0  0  0
    7.0792   -9.0217   17.1429 C   0  0  0  0  0  0  0  0  0  0  0  0
    3.1713  -10.1816   17.6634 C   0  0  0  0  0  0  0  0  0  0  0  0
    2.7878   -8.3822   16.2137 C   0  0  0  0  0  0  0  0  0  0  0  0
    9.4601   -2.6590   25.6528 C   0  0  0  0  0  0  0  0  0  0  0  0
   10.1182   -1.5672   23.1165 C   0  0  0  0  0  0  0  0  0  0  0  0
    1.0552   -9.6360   17.0650 C   0  0  0  0  0  0  0  0  0  0  0  0
    3.6519   -9.1783   16.9039 C   0  0  0  0  0  0  0  0  0  0  0  0
    7.8675   -7.0096   15.9415 C   0  0  0  0  0  0  0  0  0  0  0  0
    5.9733   -9.6553   17.3832 N   0  0  0  0  0  0  0  0  0  0  0  0
   10.2411   -2.9363   23.4301 C   0  0  0  0  0  0  0  0  0  0  0  0
   10.7288   -3.8197   19.9525 C   0  0  0  0  0  0  0  0  0  0  0  0
   10.1189   -5.0054   19.6987 C   0  0  0  0  0  0  0  0  0  0  0  0
  1  3  4  0
  1  7  4  0
  2 21  4  0
  2 27  4  0
  3  9  4  0
  3 10  4  0
  4  8  4  0
  4 18  4  0
  4 25  1  0
  5  9  4  0
  5 12  4  0
  6 13  1  0
  6 27  1  0
  7 28  4  0
  8 11  4  0
  9 29  4  0
 10 12  4  0
 11 24  1  0
 11 26  4  0
 12 25  1  0
 13 28  1  0
 14 20  4  0
 14 23  4  0
 15 17  4  0
 15 21  4  0
 16 19  4  0
 16 23  4  0
 17 22  4  0
 18 26  4  0
 19 24  4  0
 20 24  4  0
 22 27  4  0
 28 29  4  0
M  END
$$$$

 Created by Python create_sdf_string function

 29 33  0  0  0  0  0  0  0  0999 V2000
   10.7215   -3.3326   17.6437 C   0  0  0  0  0  0  0  0  0  0  0  0
    9.9489   -3.4675   24.6487 N   0  0  0  0  0  0  0  0  0  0  0  0
   10.0172   -4.4740   17.4101 C   0  0  0  0  0  0  0  0  0  0  0  0
    6.9051   -7.9575   16.4222 C   0  0  0  0  0  0  0  0  0  0  0  0
    8.9969   -6.3552   17.9668 N   0  0  0  0  0  0  0  0  0  0  0  0
   10.6702   -3.9051   22.4070 C   0  0  0  0  0  0  0  0  0  0  0  0
   11.0625   -3.0028   18.8894 C   0  0  0  0  0  0  0  0  0  0  0  0
    5.6180   -7.9194   16.1754 O   0  0  0  0  0  0  0  0  0  0  0  0
    9.7259   -5.3080   18.4485 C   0  0  0  0  0  0  0  0  0  0  0  0
    9.4578   -5.0200   16.3036 N   0  0  0  0  0  0  0  0  0  0  0  0
    5.0287   -8.9365   16.8223 C   0  0  0  0  0  0  0  0  0  0  0  0
    8.7742   -6.1498   16.6764 C   0  0  0  0  0  0  0  0  0  0  0  0
   10.9418   -3.4032   21.2053 O   0  0  0  0  0  0  0  0  0  0  0  0
    1.4797   -8.6258   16.2950 C   0  0  0  0  0  0  0  0  0  0  0  0
    9.2861   -1.2743   25.3585 C   0  0  0  0  0  0  0  0  0  0  0  0
    1.8892  -10.3985   17.7511 N   0  0  0  0  0  0  0  0  0  0  0  0
    9.6210   -0.6952   24.0976 C   0  0  0  0  0  0  0  0  0  0  0  0
    7.0792   -9.0217   17.1429 C   0  0  0  0  0  0  0  0  0  0  0  0
    3.1713  -10.1816   17.6634 C   0  0  0  0  0  0  0  0  0  0  0  0
    2.7878   -8.3822   16.2137 C   0  0  0  0  0  0  0  0  0  0  0  0
    9.4601   -2.6590   25.6528 C   0  0  0  0  0  0  0  0  0  0  0  0
   10.1182   -1.5672   23.1165 C   0  0  0  0  0  0  0  0  0  0  0  0
    1.0552   -9.6360   17.0650 C   0  0  0  0  0  0  0  0  0  0  0  0
    3.6519   -9.1783   16.9039 C   0  0  0  0  0  0  0  0  0  0  0  0
    7.8675   -7.0096   15.9415 C   0  0  0  0  0  0  0  0  0  0  0  0
    5.9733   -9.6553   17.3832 N   0  0  0  0  0  0  0  0  0  0  0  0
   10.2411   -2.9363   23.4301 C   0  0  0  0  0  0  0  0  0  0  0  0
   10.7288   -3.8197   19.9525 C   0  0  0  0  0  0  0  0  0  0  0  0
   10.1189   -5.0054   19.6987 C   0  0  0  0  0  0  0  0  0  0  0  0
  1  3  4  0
  1  7  4  0
  2 21  4  0
  2 27  4  0
  3  9  4  0
  3 10  4  0
  4  8  4  0
  4 18  4  0
  4 25  1  0
  5  9  4  0
  5 12  4  0
  6 13  1  0
  6 27  1  0
  7 28  4  0
  8 11  4  0
  9 29  4  0
 10 12  4  0
 11 24  1  0
 11 26  4  0
 12 25  1  0
 13 28  1  0
 14 20  4  0
 14 23  4  0
 15 17  4  0
 15 21  4  0
 16 19  4  0
 16 23  4  0
 17 22  4  0
 18 26  4  0
 19 24  4  0
 20 24  4  0
 22 27  4  0
 28 29  4  0
M  END
$$$$

 Created by Python create_sdf_string function

 29 33  0  0  0  0  0  0  0  0999 V2000
   10.7215   -3.3326   17.6437 C   0  0  0  0  0  0  0  0  0  0  0  0
    9.9489   -3.4675   24.6487 N   0  0  0  0  0  0  0  0  0  0  0  0
   10.0172   -4.4740   17.4101 C   0  0  0  0  0  0  0  0  0  0  0  0
    6.9051   -7.9575   16.4222 C   0  0  0  0  0  0  0  0  0  0  0  0
    8.9969   -6.3552   17.9668 N   0  0  0  0  0  0  0  0  0  0  0  0
   10.6702   -3.9051   22.4070 C   0  0  0  0  0  0  0  0  0  0  0  0
   11.0625   -3.0028   18.8894 C   0  0  0  0  0  0  0  0  0  0  0  0
    5.6180   -7.9194   16.1754 O   0  0  0  0  0  0  0  0  0  0  0  0
    9.7259   -5.3080   18.4485 C   0  0  0  0  0  0  0  0  0  0  0  0
    9.4578   -5.0200   16.3036 N   0  0  0  0  0  0  0  0  0  0  0  0
    5.0287   -8.9365   16.8223 C   0  0  0  0  0  0  0  0  0  0  0  0
    8.7742   -6.1498   16.6764 C   0  0  0  0  0  0  0  0  0  0  0  0
   10.9418   -3.4032   21.2053 O   0  0  0  0  0  0  0  0  0  0  0  0
    1.4797   -8.6258   16.2950 C   0  0  0  0  0  0  0  0  0  0  0  0
    9.2861   -1.2743   25.3585 C   0  0  0  0  0  0  0  0  0  0  0  0
    1.8892  -10.3985   17.7511 N   0  0  0  0  0  0  0  0  0  0  0  0
    9.6210   -0.6952   24.0976 C   0  0  0  0  0  0  0  0  0  0  0  0
    7.0792   -9.0217   17.1429 C   0  0  0  0  0  0  0  0  0  0  0  0
    3.1713  -10.1816   17.6634 C   0  0  0  0  0  0  0  0  0  0  0  0
    2.7878   -8.3822   16.2137 C   0  0  0  0  0  0  0  0  0  0  0  0
    9.4601   -2.6590   25.6528 C   0  0  0  0  0  0  0  0  0  0  0  0
   10.1182   -1.5672   23.1165 C   0  0  0  0  0  0  0  0  0  0  0  0
    1.0552   -9.6360   17.0650 C   0  0  0  0  0  0  0  0  0  0  0  0
    3.6519   -9.1783   16.9039 C   0  0  0  0  0  0  0  0  0  0  0  0
    7.8675   -7.0096   15.9415 C   0  0  0  0  0  0  0  0  0  0  0  0
    5.9733   -9.6553   17.3832 N   0  0  0  0  0  0  0  0  0  0  0  0
   10.2411   -2.9363   23.4301 C   0  0  0  0  0  0  0  0  0  0  0  0
   10.7288   -3.8197   19.9525 C   0  0  0  0  0  0  0  0  0  0  0  0
   10.1189   -5.0054   19.6987 C   0  0  0  0  0  0  0  0  0  0  0  0
  1  3  4  0
  1  7  4  0
  2 21  4  0
  2 27  4  0
  3  9  4  0
  3 10  4  0
  4  8  4  0
  4 18  4  0
  4 25  1  0
  5  9  4  0
  5 12  4  0
  6 13  1  0
  6 27  1  0
  7 28  4  0
  8 11  4  0
  9 29  4  0
 10 12  4  0
 11 24  1  0
 11 26  4  0
 12 25  1  0
 13 28  1  0
 14 20  4  0
 14 23  4  0
 15 17  4  0
 15 21  4  0
 16 19  4  0
 16 23  4  0
 17 22  4  0
 18 26  4  0
 19 24  4  0
 20 24  4  0
 22 27  4  0
 28 29  4  0
M  END
$$$$

 Created by Python create_sdf_string function

 29 33  0  0  0  0  0  0  0  0999 V2000
   10.7215   -3.3326   17.6437 C   0  0  0  0  0  0  0  0  0  0  0  0
    9.9489   -3.4675   24.6487 N   0  0  0  0  0  0  0  0  0  0  0  0
   10.0172   -4.4740   17.4101 C   0  0  0  0  0  0  0  0  0  0  0  0
    6.9051   -7.9575   16.4222 C   0  0  0  0  0  0  0  0  0  0  0  0
    8.9969   -6.3552   17.9668 N   0  0  0  0  0  0  0  0  0  0  0  0
   10.6702   -3.9051   22.4070 C   0  0  0  0  0  0  0  0  0  0  0  0
   11.0625   -3.0028   18.8894 C   0  0  0  0  0  0  0  0  0  0  0  0
    5.6180   -7.9194   16.1754 O   0  0  0  0  0  0  0  0  0  0  0  0
    9.7259   -5.3080   18.4485 C   0  0  0  0  0  0  0  0  0  0  0  0
    9.4578   -5.0200   16.3036 N   0  0  0  0  0  0  0  0  0  0  0  0
    5.0287   -8.9365   16.8223 C   0  0  0  0  0  0  0  0  0  0  0  0
    8.7742   -6.1498   16.6764 C   0  0  0  0  0  0  0  0  0  0  0  0
   10.9418   -3.4032   21.2053 O   0  0  0  0  0  0  0  0  0  0  0  0
    1.4797   -8.6258   16.2950 C   0  0  0  0  0  0  0  0  0  0  0  0
    9.2861   -1.2743   25.3585 C   0  0  0  0  0  0  0  0  0  0  0  0
    1.8892  -10.3985   17.7511 N   0  0  0  0  0  0  0  0  0  0  0  0
    9.6210   -0.6952   24.0976 C   0  0  0  0  0  0  0  0  0  0  0  0
    7.0792   -9.0217   17.1429 C   0  0  0  0  0  0  0  0  0  0  0  0
    3.1713  -10.1816   17.6634 C   0  0  0  0  0  0  0  0  0  0  0  0
    2.7878   -8.3822   16.2137 C   0  0  0  0  0  0  0  0  0  0  0  0
    9.4601   -2.6590   25.6528 C   0  0  0  0  0  0  0  0  0  0  0  0
   10.1182   -1.5672   23.1165 C   0  0  0  0  0  0  0  0  0  0  0  0
    1.0552   -9.6360   17.0650 C   0  0  0  0  0  0  0  0  0  0  0  0
    3.6519   -9.1783   16.9039 C   0  0  0  0  0  0  0  0  0  0  0  0
    7.8675   -7.0096   15.9415 C   0  0  0  0  0  0  0  0  0  0  0  0
    5.9733   -9.6553   17.3832 N   0  0  0  0  0  0  0  0  0  0  0  0
   10.2411   -2.9363   23.4301 C   0  0  0  0  0  0  0  0  0  0  0  0
   10.7288   -3.8197   19.9525 C   0  0  0  0  0  0  0  0  0  0  0  0
   10.1189   -5.0054   19.6987 C   0  0  0  0  0  0  0  0  0  0  0  0
  1  3  4  0
  1  7  4  0
  2 21  4  0
  2 27  4  0
  3  9  4  0
  3 10  4  0
  4  8  4  0
  4 18  4  0
  4 25  1  0
  5  9  4  0
  5 12  4  0
  6 13  1  0
  6 27  1  0
  7 28  4  0
  8 11  4  0
  9 29  4  0
 10 12  4  0
 11 24  1  0
 11 26  4  0
 12 25  1  0
 13 28  1  0
 14 20  4  0
 14 23  4  0
 15 17  4  0
 15 21  4  0
 16 19  4  0
 16 23  4  0
 17 22  4  0
 18 26  4  0
 19 24  4  0
 20 24  4  0
 22 27  4  0
 28 29  4  0
M  END
$$$$

 Created by Python create_sdf_string function

 29 33  0  0  0  0  0  0  0  0999 V2000
   10.7215   -3.3326   17.6437 C   0  0  0  0  0  0  0  0  0  0  0  0
    9.9489   -3.4675   24.6487 N   0  0  0  0  0  0  0  0  0  0  0  0
   10.0172   -4.4740   17.4101 C   0  0  0  0  0  0  0  0  0  0  0  0
    6.9051   -7.9575   16.4222 C   0  0  0  0  0  0  0  0  0  0  0  0
    8.9969   -6.3552   17.9668 N   0  0  0  0  0  0  0  0  0  0  0  0
   10.6702   -3.9051   22.4070 C   0  0  0  0  0  0  0  0  0  0  0  0
   11.0625   -3.0028   18.8894 C   0  0  0  0  0  0  0  0  0  0  0  0
    5.6180   -7.9194   16.1754 O   0  0  0  0  0  0  0  0  0  0  0  0
    9.7259   -5.3080   18.4485 C   0  0  0  0  0  0  0  0  0  0  0  0
    9.4578   -5.0200   16.3036 N   0  0  0  0  0  0  0  0  0  0  0  0
    5.0287   -8.9365   16.8223 C   0  0  0  0  0  0  0  0  0  0  0  0
    8.7742   -6.1498   16.6764 C   0  0  0  0  0  0  0  0  0  0  0  0
   10.9418   -3.4032   21.2053 O   0  0  0  0  0  0  0  0  0  0  0  0
    1.4797   -8.6258   16.2950 C   0  0  0  0  0  0  0  0  0  0  0  0
    9.2861   -1.2743   25.3585 C   0  0  0  0  0  0  0  0  0  0  0  0
    1.8892  -10.3985   17.7511 N   0  0  0  0  0  0  0  0  0  0  0  0
    9.6210   -0.6952   24.0976 C   0  0  0  0  0  0  0  0  0  0  0  0
    7.0792   -9.0217   17.1429 C   0  0  0  0  0  0  0  0  0  0  0  0
    3.1713  -10.1816   17.6634 C   0  0  0  0  0  0  0  0  0  0  0  0
    2.7878   -8.3822   16.2137 C   0  0  0  0  0  0  0  0  0  0  0  0
    9.4601   -2.6590   25.6528 C   0  0  0  0  0  0  0  0  0  0  0  0
   10.1182   -1.5672   23.1165 C   0  0  0  0  0  0  0  0  0  0  0  0
    1.0552   -9.6360   17.0650 C   0  0  0  0  0  0  0  0  0  0  0  0
    3.6519   -9.1783   16.9039 C   0  0  0  0  0  0  0  0  0  0  0  0
    7.8675   -7.0096   15.9415 C   0  0  0  0  0  0  0  0  0  0  0  0
    5.9733   -9.6553   17.3832 N   0  0  0  0  0  0  0  0  0  0  0  0
   10.2411   -2.9363   23.4301 C   0  0  0  0  0  0  0  0  0  0  0  0
   10.7288   -3.8197   19.9525 C   0  0  0  0  0  0  0  0  0  0  0  0
   10.1189   -5.0054   19.6987 C   0  0  0  0  0  0  0  0  0  0  0  0
  1  3  4  0
  1  7  4  0
  2 21  4  0
  2 27  4  0
  3  9  4  0
  3 10  4  0
  4  8  4  0
  4 18  4  0
  4 25  1  0
  5  9  4  0
  5 12  4  0
  6 13  1  0
  6 27  1  0
  7 28  4  0
  8 11  4  0
  9 29  4  0
 10 12  4  0
 11 24  1  0
 11 26  4  0
 12 25  1  0
 13 28  1  0
 14 20  4  0
 14 23  4  0
 15 17  4  0
 15 21  4  0
 16 19  4  0
 16 23  4  0
 17 22  4  0
 18 26  4  0
 19 24  4  0
 20 24  4  0
 22 27  4  0
 28 29  4  0
M  END
$$$$

 Created by Python create_sdf_string function

 29 33  0  0  0  0  0  0  0  0999 V2000
   10.7215   -3.3326   17.6437 C   0  0  0  0  0  0  0  0  0  0  0  0
    9.9489   -3.4675   24.6487 N   0  0  0  0  0  0  0  0  0  0  0  0
   10.0172   -4.4740   17.4101 C   0  0  0  0  0  0  0  0  0  0  0  0
    6.9051   -7.9575   16.4222 C   0  0  0  0  0  0  0  0  0  0  0  0
    8.9969   -6.3552   17.9668 N   0  0  0  0  0  0  0  0  0  0  0  0
   10.6702   -3.9051   22.4070 C   0  0  0  0  0  0  0  0  0  0  0  0
   11.0625   -3.0028   18.8894 C   0  0  0  0  0  0  0  0  0  0  0  0
    5.6180   -7.9194   16.1754 O   0  0  0  0  0  0  0  0  0  0  0  0
    9.7259   -5.3080   18.4485 C   0  0  0  0  0  0  0  0  0  0  0  0
    9.4578   -5.0200   16.3036 N   0  0  0  0  0  0  0  0  0  0  0  0
    5.0287   -8.9365   16.8223 C   0  0  0  0  0  0  0  0  0  0  0  0
    8.7742   -6.1498   16.6764 C   0  0  0  0  0  0  0  0  0  0  0  0
   10.9418   -3.4032   21.2053 O   0  0  0  0  0  0  0  0  0  0  0  0
    1.4797   -8.6258   16.2950 C   0  0  0  0  0  0  0  0  0  0  0  0
    9.2861   -1.2743   25.3585 C   0  0  0  0  0  0  0  0  0  0  0  0
    1.8892  -10.3985   17.7511 N   0  0  0  0  0  0  0  0  0  0  0  0
    9.6210   -0.6952   24.0976 C   0  0  0  0  0  0  0  0  0  0  0  0
    7.0792   -9.0217   17.1429 C   0  0  0  0  0  0  0  0  0  0  0  0
    3.1713  -10.1816   17.6634 C   0  0  0  0  0  0  0  0  0  0  0  0
    2.7878   -8.3822   16.2137 C   0  0  0  0  0  0  0  0  0  0  0  0
    9.4601   -2.6590   25.6528 C   0  0  0  0  0  0  0  0  0  0  0  0
   10.1182   -1.5672   23.1165 C   0  0  0  0  0  0  0  0  0  0  0  0
    1.0552   -9.6360   17.0650 C   0  0  0  0  0  0  0  0  0  0  0  0
    3.6519   -9.1783   16.9039 C   0  0  0  0  0  0  0  0  0  0  0  0
    7.8675   -7.0096   15.9415 C   0  0  0  0  0  0  0  0  0  0  0  0
    5.9733   -9.6553   17.3832 N   0  0  0  0  0  0  0  0  0  0  0  0
   10.2411   -2.9363   23.4301 C   0  0  0  0  0  0  0  0  0  0  0  0
   10.7288   -3.8197   19.9525 C   0  0  0  0  0  0  0  0  0  0  0  0
   10.1189   -5.0054   19.6987 C   0  0  0  0  0  0  0  0  0  0  0  0
  1  3  4  0
  1  7  4  0
  2 21  4  0
  2 27  4  0
  3  9  4  0
  3 10  4  0
  4  8  4  0
  4 18  4  0
  4 25  1  0
  5  9  4  0
  5 12  4  0
  6 13  1  0
  6 27  1  0
  7 28  4  0
  8 11  4  0
  9 29  4  0
 10 12  4  0
 11 24  1  0
 11 26  4  0
 12 25  1  0
 13 28  1  0
 14 20  4  0
 14 23  4  0
 15 17  4  0
 15 21  4  0
 16 19  4  0
 16 23  4  0
 17 22  4  0
 18 26  4  0
 19 24  4  0
 20 24  4  0
 22 27  4  0
 28 29  4  0
M  END
$$$$

 Created by Python create_sdf_string function

 29 33  0  0  0  0  0  0  0  0999 V2000
   10.7215   -3.3326   17.6437 C   0  0  0  0  0  0  0  0  0  0  0  0
    9.9489   -3.4675   24.6487 N   0  0  0  0  0  0  0  0  0  0  0  0
   10.0172   -4.4740   17.4101 C   0  0  0  0  0  0  0  0  0  0  0  0
    6.9051   -7.9575   16.4222 C   0  0  0  0  0  0  0  0  0  0  0  0
    8.9969   -6.3552   17.9668 N   0  0  0  0  0  0  0  0  0  0  0  0
   10.6702   -3.9051   22.4070 C   0  0  0  0  0  0  0  0  0  0  0  0
   11.0625   -3.0028   18.8894 C   0  0  0  0  0  0  0  0  0  0  0  0
    5.6180   -7.9194   16.1754 O   0  0  0  0  0  0  0  0  0  0  0  0
    9.7259   -5.3080   18.4485 C   0  0  0  0  0  0  0  0  0  0  0  0
    9.4578   -5.0200   16.3036 N   0  0  0  0  0  0  0  0  0  0  0  0
    5.0287   -8.9365   16.8223 C   0  0  0  0  0  0  0  0  0  0  0  0
    8.7742   -6.1498   16.6764 C   0  0  0  0  0  0  0  0  0  0  0  0
   10.9418   -3.4032   21.2053 O   0  0  0  0  0  0  0  0  0  0  0  0
    1.4797   -8.6258   16.2950 C   0  0  0  0  0  0  0  0  0  0  0  0
    9.2861   -1.2743   25.3585 C   0  0  0  0  0  0  0  0  0  0  0  0
    1.8892  -10.3985   17.7511 N   0  0  0  0  0  0  0  0  0  0  0  0
    9.6210   -0.6952   24.0976 C   0  0  0  0  0  0  0  0  0  0  0  0
    7.0792   -9.0217   17.1429 C   0  0  0  0  0  0  0  0  0  0  0  0
    3.1713  -10.1816   17.6634 C   0  0  0  0  0  0  0  0  0  0  0  0
    2.7878   -8.3822   16.2137 C   0  0  0  0  0  0  0  0  0  0  0  0
    9.4601   -2.6590   25.6528 C   0  0  0  0  0  0  0  0  0  0  0  0
   10.1182   -1.5672   23.1165 C   0  0  0  0  0  0  0  0  0  0  0  0
    1.0552   -9.6360   17.0650 C   0  0  0  0  0  0  0  0  0  0  0  0
    3.6519   -9.1783   16.9039 C   0  0  0  0  0  0  0  0  0  0  0  0
    7.8675   -7.0096   15.9415 C   0  0  0  0  0  0  0  0  0  0  0  0
    5.9733   -9.6553   17.3832 N   0  0  0  0  0  0  0  0  0  0  0  0
   10.2411   -2.9363   23.4301 C   0  0  0  0  0  0  0  0  0  0  0  0
   10.7288   -3.8197   19.9525 C   0  0  0  0  0  0  0  0  0  0  0  0
   10.1189   -5.0054   19.6987 C   0  0  0  0  0  0  0  0  0  0  0  0
  1  3  4  0
  1  7  4  0
  2 21  4  0
  2 27  4  0
  3  9  4  0
  3 10  4  0
  4  8  4  0
  4 18  4  0
  4 25  1  0
  5  9  4  0
  5 12  4  0
  6 13  1  0
  6 27  1  0
  7 28  4  0
  8 11  4  0
  9 29  4  0
 10 12  4  0
 11 24  1  0
 11 26  4  0
 12 25  1  0
 13 28  1  0
 14 20  4  0
 14 23  4  0
 15 17  4  0
 15 21  4  0
 16 19  4  0
 16 23  4  0
 17 22  4  0
 18 26  4  0
 19 24  4  0
 20 24  4  0
 22 27  4  0
 28 29  4  0
M  END
$$$$

 Created by Python create_sdf_string function

 29 33  0  0  0  0  0  0  0  0999 V2000
   10.7215   -3.3326   17.6437 C   0  0  0  0  0  0  0  0  0  0  0  0
    9.9489   -3.4675   24.6487 N   0  0  0  0  0  0  0  0  0  0  0  0
   10.0172   -4.4740   17.4101 C   0  0  0  0  0  0  0  0  0  0  0  0
    6.9051   -7.9575   16.4222 C   0  0  0  0  0  0  0  0  0  0  0  0
    8.9969   -6.3552   17.9668 N   0  0  0  0  0  0  0  0  0  0  0  0
   10.6702   -3.9051   22.4070 C   0  0  0  0  0  0  0  0  0  0  0  0
   11.0625   -3.0028   18.8894 C   0  0  0  0  0  0  0  0  0  0  0  0
    5.6180   -7.9194   16.1754 O   0  0  0  0  0  0  0  0  0  0  0  0
    9.7259   -5.3080   18.4485 C   0  0  0  0  0  0  0  0  0  0  0  0
    9.4578   -5.0200   16.3036 N   0  0  0  0  0  0  0  0  0  0  0  0
    5.0287   -8.9365   16.8223 C   0  0  0  0  0  0  0  0  0  0  0  0
    8.7742   -6.1498   16.6764 C   0  0  0  0  0  0  0  0  0  0  0  0
   10.9418   -3.4032   21.2053 O   0  0  0  0  0  0  0  0  0  0  0  0
    1.4797   -8.6258   16.2950 C   0  0  0  0  0  0  0  0  0  0  0  0
    9.2861   -1.2743   25.3585 C   0  0  0  0  0  0  0  0  0  0  0  0
    1.8892  -10.3985   17.7511 N   0  0  0  0  0  0  0  0  0  0  0  0
    9.6210   -0.6952   24.0976 C   0  0  0  0  0  0  0  0  0  0  0  0
    7.0792   -9.0217   17.1429 C   0  0  0  0  0  0  0  0  0  0  0  0
    3.1713  -10.1816   17.6634 C   0  0  0  0  0  0  0  0  0  0  0  0
    2.7878   -8.3822   16.2137 C   0  0  0  0  0  0  0  0  0  0  0  0
    9.4601   -2.6590   25.6528 C   0  0  0  0  0  0  0  0  0  0  0  0
   10.1182   -1.5672   23.1165 C   0  0  0  0  0  0  0  0  0  0  0  0
    1.0552   -9.6360   17.0650 C   0  0  0  0  0  0  0  0  0  0  0  0
    3.6519   -9.1783   16.9039 C   0  0  0  0  0  0  0  0  0  0  0  0
    7.8675   -7.0096   15.9415 C   0  0  0  0  0  0  0  0  0  0  0  0
    5.9733   -9.6553   17.3832 N   0  0  0  0  0  0  0  0  0  0  0  0
   10.2411   -2.9363   23.4301 C   0  0  0  0  0  0  0  0  0  0  0  0
   10.7288   -3.8197   19.9525 C   0  0  0  0  0  0  0  0  0  0  0  0
   10.1189   -5.0054   19.6987 C   0  0  0  0  0  0  0  0  0  0  0  0
  1  3  4  0
  1  7  4  0
  2 21  4  0
  2 27  4  0
  3  9  4  0
  3 10  4  0
  4  8  4  0
  4 18  4  0
  4 25  1  0
  5  9  4  0
  5 12  4  0
  6 13  1  0
  6 27  1  0
  7 28  4  0
  8 11  4  0
  9 29  4  0
 10 12  4  0
 11 24  1  0
 11 26  4  0
 12 25  1  0
 13 28  1  0
 14 20  4  0
 14 23  4  0
 15 17  4  0
 15 21  4  0
 16 19  4  0
 16 23  4  0
 17 22  4  0
 18 26  4  0
 19 24  4  0
 20 24  4  0
 22 27  4  0
 28 29  4  0
M  END
$$$$

 Created by Python create_sdf_string function

 29 33  0  0  0  0  0  0  0  0999 V2000
   10.7215   -3.3326   17.6437 C   0  0  0  0  0  0  0  0  0  0  0  0
    9.9489   -3.4675   24.6487 N   0  0  0  0  0  0  0  0  0  0  0  0
   10.0172   -4.4740   17.4101 C   0  0  0  0  0  0  0  0  0  0  0  0
    6.9051   -7.9575   16.4222 C   0  0  0  0  0  0  0  0  0  0  0  0
    8.9969   -6.3552   17.9668 N   0  0  0  0  0  0  0  0  0  0  0  0
   10.6702   -3.9051   22.4070 C   0  0  0  0  0  0  0  0  0  0  0  0
   11.0625   -3.0028   18.8894 C   0  0  0  0  0  0  0  0  0  0  0  0
    5.6180   -7.9194   16.1754 O   0  0  0  0  0  0  0  0  0  0  0  0
    9.7259   -5.3080   18.4485 C   0  0  0  0  0  0  0  0  0  0  0  0
    9.4578   -5.0200   16.3036 N   0  0  0  0  0  0  0  0  0  0  0  0
    5.0287   -8.9365   16.8223 C   0  0  0  0  0  0  0  0  0  0  0  0
    8.7742   -6.1498   16.6764 C   0  0  0  0  0  0  0  0  0  0  0  0
   10.9418   -3.4032   21.2053 O   0  0  0  0  0  0  0  0  0  0  0  0
    1.4797   -8.6258   16.2950 C   0  0  0  0  0  0  0  0  0  0  0  0
    9.2861   -1.2743   25.3585 C   0  0  0  0  0  0  0  0  0  0  0  0
    1.8892  -10.3985   17.7511 N   0  0  0  0  0  0  0  0  0  0  0  0
    9.6210   -0.6952   24.0976 C   0  0  0  0  0  0  0  0  0  0  0  0
    7.0792   -9.0217   17.1429 C   0  0  0  0  0  0  0  0  0  0  0  0
    3.1713  -10.1816   17.6634 C   0  0  0  0  0  0  0  0  0  0  0  0
    2.7878   -8.3822   16.2137 C   0  0  0  0  0  0  0  0  0  0  0  0
    9.4601   -2.6590   25.6528 C   0  0  0  0  0  0  0  0  0  0  0  0
   10.1182   -1.5672   23.1165 C   0  0  0  0  0  0  0  0  0  0  0  0
    1.0552   -9.6360   17.0650 C   0  0  0  0  0  0  0  0  0  0  0  0
    3.6519   -9.1783   16.9039 C   0  0  0  0  0  0  0  0  0  0  0  0
    7.8675   -7.0096   15.9415 C   0  0  0  0  0  0  0  0  0  0  0  0
    5.9733   -9.6553   17.3832 N   0  0  0  0  0  0  0  0  0  0  0  0
   10.2411   -2.9363   23.4301 C   0  0  0  0  0  0  0  0  0  0  0  0
   10.7288   -3.8197   19.9525 C   0  0  0  0  0  0  0  0  0  0  0  0
   10.1189   -5.0054   19.6987 C   0  0  0  0  0  0  0  0  0  0  0  0
  1  3  4  0
  1  7  4  0
  2 21  4  0
  2 27  4  0
  3  9  4  0
  3 10  4  0
  4  8  4  0
  4 18  4  0
  4 25  1  0
  5  9  4  0
  5 12  4  0
  6 13  1  0
  6 27  1  0
  7 28  4  0
  8 11  4  0
  9 29  4  0
 10 12  4  0
 11 24  1  0
 11 26  4  0
 12 25  1  0
 13 28  1  0
 14 20  4  0
 14 23  4  0
 15 17  4  0
 15 21  4  0
 16 19  4  0
 16 23  4  0
 17 22  4  0
 18 26  4  0
 19 24  4  0
 20 24  4  0
 22 27  4  0
 28 29  4  0
M  END
$$$$

 Created by Python create_sdf_string function

 29 33  0  0  0  0  0  0  0  0999 V2000
   10.7215   -3.3326   17.6437 C   0  0  0  0  0  0  0  0  0  0  0  0
    9.9489   -3.4675   24.6487 N   0  0  0  0  0  0  0  0  0  0  0  0
   10.0172   -4.4740   17.4101 C   0  0  0  0  0  0  0  0  0  0  0  0
    6.9051   -7.9575   16.4222 C   0  0  0  0  0  0  0  0  0  0  0  0
    8.9969   -6.3552   17.9668 N   0  0  0  0  0  0  0  0  0  0  0  0
   10.6702   -3.9051   22.4070 C   0  0  0  0  0  0  0  0  0  0  0  0
   11.0625   -3.0028   18.8894 C   0  0  0  0  0  0  0  0  0  0  0  0
    5.6180   -7.9194   16.1754 O   0  0  0  0  0  0  0  0  0  0  0  0
    9.7259   -5.3080   18.4485 C   0  0  0  0  0  0  0  0  0  0  0  0
    9.4578   -5.0200   16.3036 N   0  0  0  0  0  0  0  0  0  0  0  0
    5.0287   -8.9365   16.8223 C   0  0  0  0  0  0  0  0  0  0  0  0
    8.7742   -6.1498   16.6764 C   0  0  0  0  0  0  0  0  0  0  0  0
   10.9418   -3.4032   21.2053 O   0  0  0  0  0  0  0  0  0  0  0  0
    1.4797   -8.6258   16.2950 C   0  0  0  0  0  0  0  0  0  0  0  0
    9.2861   -1.2743   25.3585 C   0  0  0  0  0  0  0  0  0  0  0  0
    1.8892  -10.3985   17.7511 N   0  0  0  0  0  0  0  0  0  0  0  0
    9.6210   -0.6952   24.0976 C   0  0  0  0  0  0  0  0  0  0  0  0
    7.0792   -9.0217   17.1429 C   0  0  0  0  0  0  0  0  0  0  0  0
    3.1713  -10.1816   17.6634 C   0  0  0  0  0  0  0  0  0  0  0  0
    2.7878   -8.3822   16.2137 C   0  0  0  0  0  0  0  0  0  0  0  0
    9.4601   -2.6590   25.6528 C   0  0  0  0  0  0  0  0  0  0  0  0
   10.1182   -1.5672   23.1165 C   0  0  0  0  0  0  0  0  0  0  0  0
    1.0552   -9.6360   17.0650 C   0  0  0  0  0  0  0  0  0  0  0  0
    3.6519   -9.1783   16.9039 C   0  0  0  0  0  0  0  0  0  0  0  0
    7.8675   -7.0096   15.9415 C   0  0  0  0  0  0  0  0  0  0  0  0
    5.9733   -9.6553   17.3832 N   0  0  0  0  0  0  0  0  0  0  0  0
   10.2411   -2.9363   23.4301 C   0  0  0  0  0  0  0  0  0  0  0  0
   10.7288   -3.8197   19.9525 C   0  0  0  0  0  0  0  0  0  0  0  0
   10.1189   -5.0054   19.6987 C   0  0  0  0  0  0  0  0  0  0  0  0
  1  3  4  0
  1  7  4  0
  2 21  4  0
  2 27  4  0
  3  9  4  0
  3 10  4  0
  4  8  4  0
  4 18  4  0
  4 25  1  0
  5  9  4  0
  5 12  4  0
  6 13  1  0
  6 27  1  0
  7 28  4  0
  8 11  4  0
  9 29  4  0
 10 12  4  0
 11 24  1  0
 11 26  4  0
 12 25  1  0
 13 28  1  0
 14 20  4  0
 14 23  4  0
 15 17  4  0
 15 21  4  0
 16 19  4  0
 16 23  4  0
 17 22  4  0
 18 26  4  0
 19 24  4  0
 20 24  4  0
 22 27  4  0
 28 29  4  0
M  END
$$$$

 Created by Python create_sdf_string function

 29 33  0  0  0  0  0  0  0  0999 V2000
   10.7215   -3.3326   17.6437 C   0  0  0  0  0  0  0  0  0  0  0  0
    9.9489   -3.4675   24.6487 N   0  0  0  0  0  0  0  0  0  0  0  0
   10.0172   -4.4740   17.4101 C   0  0  0  0  0  0  0  0  0  0  0  0
    6.9051   -7.9575   16.4222 C   0  0  0  0  0  0  0  0  0  0  0  0
    8.9969   -6.3552   17.9668 N   0  0  0  0  0  0  0  0  0  0  0  0
   10.6702   -3.9051   22.4070 C   0  0  0  0  0  0  0  0  0  0  0  0
   11.0625   -3.0028   18.8894 C   0  0  0  0  0  0  0  0  0  0  0  0
    5.6180   -7.9194   16.1754 O   0  0  0  0  0  0  0  0  0  0  0  0
    9.7259   -5.3080   18.4485 C   0  0  0  0  0  0  0  0  0  0  0  0
    9.4578   -5.0200   16.3036 N   0  0  0  0  0  0  0  0  0  0  0  0
    5.0287   -8.9365   16.8223 C   0  0  0  0  0  0  0  0  0  0  0  0
    8.7742   -6.1498   16.6764 C   0  0  0  0  0  0  0  0  0  0  0  0
   10.9418   -3.4032   21.2053 O   0  0  0  0  0  0  0  0  0  0  0  0
    1.4797   -8.6258   16.2950 C   0  0  0  0  0  0  0  0  0  0  0  0
    9.2861   -1.2743   25.3585 C   0  0  0  0  0  0  0  0  0  0  0  0
    1.8892  -10.3985   17.7511 N   0  0  0  0  0  0  0  0  0  0  0  0
    9.6210   -0.6952   24.0976 C   0  0  0  0  0  0  0  0  0  0  0  0
    7.0792   -9.0217   17.1429 C   0  0  0  0  0  0  0  0  0  0  0  0
    3.1713  -10.1816   17.6634 C   0  0  0  0  0  0  0  0  0  0  0  0
    2.7878   -8.3822   16.2137 C   0  0  0  0  0  0  0  0  0  0  0  0
    9.4601   -2.6590   25.6528 C   0  0  0  0  0  0  0  0  0  0  0  0
   10.1182   -1.5672   23.1165 C   0  0  0  0  0  0  0  0  0  0  0  0
    1.0552   -9.6360   17.0650 C   0  0  0  0  0  0  0  0  0  0  0  0
    3.6519   -9.1783   16.9039 C   0  0  0  0  0  0  0  0  0  0  0  0
    7.8675   -7.0096   15.9415 C   0  0  0  0  0  0  0  0  0  0  0  0
    5.9733   -9.6553   17.3832 N   0  0  0  0  0  0  0  0  0  0  0  0
   10.2411   -2.9363   23.4301 C   0  0  0  0  0  0  0  0  0  0  0  0
   10.7288   -3.8197   19.9525 C   0  0  0  0  0  0  0  0  0  0  0  0
   10.1189   -5.0054   19.6987 C   0  0  0  0  0  0  0  0  0  0  0  0
  1  3  4  0
  1  7  4  0
  2 21  4  0
  2 27  4  0
  3  9  4  0
  3 10  4  0
  4  8  4  0
  4 18  4  0
  4 25  1  0
  5  9  4  0
  5 12  4  0
  6 13  1  0
  6 27  1  0
  7 28  4  0
  8 11  4  0
  9 29  4  0
 10 12  4  0
 11 24  1  0
 11 26  4  0
 12 25  1  0
 13 28  1  0
 14 20  4  0
 14 23  4  0
 15 17  4  0
 15 21  4  0
 16 19  4  0
 16 23  4  0
 17 22  4  0
 18 26  4  0
 19 24  4  0
 20 24  4  0
 22 27  4  0
 28 29  4  0
M  END
$$$$

 Created by Python create_sdf_string function

 29 33  0  0  0  0  0  0  0  0999 V2000
   10.7215   -3.3326   17.6437 C   0  0  0  0  0  0  0  0  0  0  0  0
    9.9489   -3.4675   24.6487 N   0  0  0  0  0  0  0  0  0  0  0  0
   10.0172   -4.4740   17.4101 C   0  0  0  0  0  0  0  0  0  0  0  0
    6.9051   -7.9575   16.4222 C   0  0  0  0  0  0  0  0  0  0  0  0
    8.9969   -6.3552   17.9668 N   0  0  0  0  0  0  0  0  0  0  0  0
   10.6702   -3.9051   22.4070 C   0  0  0  0  0  0  0  0  0  0  0  0
   11.0625   -3.0028   18.8894 C   0  0  0  0  0  0  0  0  0  0  0  0
    5.6180   -7.9194   16.1754 O   0  0  0  0  0  0  0  0  0  0  0  0
    9.7259   -5.3080   18.4485 C   0  0  0  0  0  0  0  0  0  0  0  0
    9.4578   -5.0200   16.3036 N   0  0  0  0  0  0  0  0  0  0  0  0
    5.0287   -8.9365   16.8223 C   0  0  0  0  0  0  0  0  0  0  0  0
    8.7742   -6.1498   16.6764 C   0  0  0  0  0  0  0  0  0  0  0  0
   10.9418   -3.4032   21.2053 O   0  0  0  0  0  0  0  0  0  0  0  0
    1.4797   -8.6258   16.2950 C   0  0  0  0  0  0  0  0  0  0  0  0
    9.2861   -1.2743   25.3585 C   0  0  0  0  0  0  0  0  0  0  0  0
    1.8892  -10.3985   17.7511 N   0  0  0  0  0  0  0  0  0  0  0  0
    9.6210   -0.6952   24.0976 C   0  0  0  0  0  0  0  0  0  0  0  0
    7.0792   -9.0217   17.1429 C   0  0  0  0  0  0  0  0  0  0  0  0
    3.1713  -10.1816   17.6634 C   0  0  0  0  0  0  0  0  0  0  0  0
    2.7878   -8.3822   16.2137 C   0  0  0  0  0  0  0  0  0  0  0  0
    9.4601   -2.6590   25.6528 C   0  0  0  0  0  0  0  0  0  0  0  0
   10.1182   -1.5672   23.1165 C   0  0  0  0  0  0  0  0  0  0  0  0
    1.0552   -9.6360   17.0650 C   0  0  0  0  0  0  0  0  0  0  0  0
    3.6519   -9.1783   16.9039 C   0  0  0  0  0  0  0  0  0  0  0  0
    7.8675   -7.0096   15.9415 C   0  0  0  0  0  0  0  0  0  0  0  0
    5.9733   -9.6553   17.3832 N   0  0  0  0  0  0  0  0  0  0  0  0
   10.2411   -2.9363   23.4301 C   0  0  0  0  0  0  0  0  0  0  0  0
   10.7288   -3.8197   19.9525 C   0  0  0  0  0  0  0  0  0  0  0  0
   10.1189   -5.0054   19.6987 C   0  0  0  0  0  0  0  0  0  0  0  0
  1  3  4  0
  1  7  4  0
  2 21  4  0
  2 27  4  0
  3  9  4  0
  3 10  4  0
  4  8  4  0
  4 18  4  0
  4 25  1  0
  5  9  4  0
  5 12  4  0
  6 13  1  0
  6 27  1  0
  7 28  4  0
  8 11  4  0
  9 29  4  0
 10 12  4  0
 11 24  1  0
 11 26  4  0
 12 25  1  0
 13 28  1  0
 14 20  4  0
 14 23  4  0
 15 17  4  0
 15 21  4  0
 16 19  4  0
 16 23  4  0
 17 22  4  0
 18 26  4  0
 19 24  4  0
 20 24  4  0
 22 27  4  0
 28 29  4  0
M  END
$$$$

 Created by Python create_sdf_string function

 29 33  0  0  0  0  0  0  0  0999 V2000
   10.7215   -3.3326   17.6437 C   0  0  0  0  0  0  0  0  0  0  0  0
    9.9489   -3.4675   24.6487 N   0  0  0  0  0  0  0  0  0  0  0  0
   10.0172   -4.4740   17.4101 C   0  0  0  0  0  0  0  0  0  0  0  0
    6.9051   -7.9575   16.4222 C   0  0  0  0  0  0  0  0  0  0  0  0
    8.9969   -6.3552   17.9668 N   0  0  0  0  0  0  0  0  0  0  0  0
   10.6702   -3.9051   22.4070 C   0  0  0  0  0  0  0  0  0  0  0  0
   11.0625   -3.0028   18.8894 C   0  0  0  0  0  0  0  0  0  0  0  0
    5.6180   -7.9194   16.1754 O   0  0  0  0  0  0  0  0  0  0  0  0
    9.7259   -5.3080   18.4485 C   0  0  0  0  0  0  0  0  0  0  0  0
    9.4578   -5.0200   16.3036 N   0  0  0  0  0  0  0  0  0  0  0  0
    5.0287   -8.9365   16.8223 C   0  0  0  0  0  0  0  0  0  0  0  0
    8.7742   -6.1498   16.6764 C   0  0  0  0  0  0  0  0  0  0  0  0
   10.9418   -3.4032   21.2053 O   0  0  0  0  0  0  0  0  0  0  0  0
    1.4797   -8.6258   16.2950 C   0  0  0  0  0  0  0  0  0  0  0  0
    9.2861   -1.2743   25.3585 C   0  0  0  0  0  0  0  0  0  0  0  0
    1.8892  -10.3985   17.7511 N   0  0  0  0  0  0  0  0  0  0  0  0
    9.6210   -0.6952   24.0976 C   0  0  0  0  0  0  0  0  0  0  0  0
    7.0792   -9.0217   17.1429 C   0  0  0  0  0  0  0  0  0  0  0  0
    3.1713  -10.1816   17.6634 C   0  0  0  0  0  0  0  0  0  0  0  0
    2.7878   -8.3822   16.2137 C   0  0  0  0  0  0  0  0  0  0  0  0
    9.4601   -2.6590   25.6528 C   0  0  0  0  0  0  0  0  0  0  0  0
   10.1182   -1.5672   23.1165 C   0  0  0  0  0  0  0  0  0  0  0  0
    1.0552   -9.6360   17.0650 C   0  0  0  0  0  0  0  0  0  0  0  0
    3.6519   -9.1783   16.9039 C   0  0  0  0  0  0  0  0  0  0  0  0
    7.8675   -7.0096   15.9415 C   0  0  0  0  0  0  0  0  0  0  0  0
    5.9733   -9.6553   17.3832 N   0  0  0  0  0  0  0  0  0  0  0  0
   10.2411   -2.9363   23.4301 C   0  0  0  0  0  0  0  0  0  0  0  0
   10.7288   -3.8197   19.9525 C   0  0  0  0  0  0  0  0  0  0  0  0
   10.1189   -5.0054   19.6987 C   0  0  0  0  0  0  0  0  0  0  0  0
  1  3  4  0
  1  7  4  0
  2 21  4  0
  2 27  4  0
  3  9  4  0
  3 10  4  0
  4  8  4  0
  4 18  4  0
  4 25  1  0
  5  9  4  0
  5 12  4  0
  6 13  1  0
  6 27  1  0
  7 28  4  0
  8 11  4  0
  9 29  4  0
 10 12  4  0
 11 24  1  0
 11 26  4  0
 12 25  1  0
 13 28  1  0
 14 20  4  0
 14 23  4  0
 15 17  4  0
 15 21  4  0
 16 19  4  0
 16 23  4  0
 17 22  4  0
 18 26  4  0
 19 24  4  0
 20 24  4  0
 22 27  4  0
 28 29  4  0
M  END
$$$$

 Created by Python create_sdf_string function

 29 33  0  0  0  0  0  0  0  0999 V2000
   10.7215   -3.3326   17.6437 C   0  0  0  0  0  0  0  0  0  0  0  0
    9.9489   -3.4675   24.6487 N   0  0  0  0  0  0  0  0  0  0  0  0
   10.0172   -4.4740   17.4101 C   0  0  0  0  0  0  0  0  0  0  0  0
    6.9051   -7.9575   16.4222 C   0  0  0  0  0  0  0  0  0  0  0  0
    8.9969   -6.3552   17.9668 N   0  0  0  0  0  0  0  0  0  0  0  0
   10.6702   -3.9051   22.4070 C   0  0  0  0  0  0  0  0  0  0  0  0
   11.0625   -3.0028   18.8894 C   0  0  0  0  0  0  0  0  0  0  0  0
    5.6180   -7.9194   16.1754 O   0  0  0  0  0  0  0  0  0  0  0  0
    9.7259   -5.3080   18.4485 C   0  0  0  0  0  0  0  0  0  0  0  0
    9.4578   -5.0200   16.3036 N   0  0  0  0  0  0  0  0  0  0  0  0
    5.0287   -8.9365   16.8223 C   0  0  0  0  0  0  0  0  0  0  0  0
    8.7742   -6.1498   16.6764 C   0  0  0  0  0  0  0  0  0  0  0  0
   10.9418   -3.4032   21.2053 O   0  0  0  0  0  0  0  0  0  0  0  0
    1.4797   -8.6258   16.2950 C   0  0  0  0  0  0  0  0  0  0  0  0
    9.2861   -1.2743   25.3585 C   0  0  0  0  0  0  0  0  0  0  0  0
    1.8892  -10.3985   17.7511 N   0  0  0  0  0  0  0  0  0  0  0  0
    9.6210   -0.6952   24.0976 C   0  0  0  0  0  0  0  0  0  0  0  0
    7.0792   -9.0217   17.1429 C   0  0  0  0  0  0  0  0  0  0  0  0
    3.1713  -10.1816   17.6634 C   0  0  0  0  0  0  0  0  0  0  0  0
    2.7878   -8.3822   16.2137 C   0  0  0  0  0  0  0  0  0  0  0  0
    9.4601   -2.6590   25.6528 C   0  0  0  0  0  0  0  0  0  0  0  0
   10.1182   -1.5672   23.1165 C   0  0  0  0  0  0  0  0  0  0  0  0
    1.0552   -9.6360   17.0650 C   0  0  0  0  0  0  0  0  0  0  0  0
    3.6519   -9.1783   16.9039 C   0  0  0  0  0  0  0  0  0  0  0  0
    7.8675   -7.0096   15.9415 C   0  0  0  0  0  0  0  0  0  0  0  0
    5.9733   -9.6553   17.3832 N   0  0  0  0  0  0  0  0  0  0  0  0
   10.2411   -2.9363   23.4301 C   0  0  0  0  0  0  0  0  0  0  0  0
   10.7288   -3.8197   19.9525 C   0  0  0  0  0  0  0  0  0  0  0  0
   10.1189   -5.0054   19.6987 C   0  0  0  0  0  0  0  0  0  0  0  0
  1  3  4  0
  1  7  4  0
  2 21  4  0
  2 27  4  0
  3  9  4  0
  3 10  4  0
  4  8  4  0
  4 18  4  0
  4 25  1  0
  5  9  4  0
  5 12  4  0
  6 13  1  0
  6 27  1  0
  7 28  4  0
  8 11  4  0
  9 29  4  0
 10 12  4  0
 11 24  1  0
 11 26  4  0
 12 25  1  0
 13 28  1  0
 14 20  4  0
 14 23  4  0
 15 17  4  0
 15 21  4  0
 16 19  4  0
 16 23  4  0
 17 22  4  0
 18 26  4  0
 19 24  4  0
 20 24  4  0
 22 27  4  0
 28 29  4  0
M  END
$$$$

 Created by Python create_sdf_string function

 29 33  0  0  0  0  0  0  0  0999 V2000
   10.7215   -3.3326   17.6437 C   0  0  0  0  0  0  0  0  0  0  0  0
    9.9489   -3.4675   24.6487 N   0  0  0  0  0  0  0  0  0  0  0  0
   10.0172   -4.4740   17.4101 C   0  0  0  0  0  0  0  0  0  0  0  0
    6.9051   -7.9575   16.4222 C   0  0  0  0  0  0  0  0  0  0  0  0
    8.9969   -6.3552   17.9668 N   0  0  0  0  0  0  0  0  0  0  0  0
   10.6702   -3.9051   22.4070 C   0  0  0  0  0  0  0  0  0  0  0  0
   11.0625   -3.0028   18.8894 C   0  0  0  0  0  0  0  0  0  0  0  0
    5.6180   -7.9194   16.1754 O   0  0  0  0  0  0  0  0  0  0  0  0
    9.7259   -5.3080   18.4485 C   0  0  0  0  0  0  0  0  0  0  0  0
    9.4578   -5.0200   16.3036 N   0  0  0  0  0  0  0  0  0  0  0  0
    5.0287   -8.9365   16.8223 C   0  0  0  0  0  0  0  0  0  0  0  0
    8.7742   -6.1498   16.6764 C   0  0  0  0  0  0  0  0  0  0  0  0
   10.9418   -3.4032   21.2053 O   0  0  0  0  0  0  0  0  0  0  0  0
    1.4797   -8.6258   16.2950 C   0  0  0  0  0  0  0  0  0  0  0  0
    9.2861   -1.2743   25.3585 C   0  0  0  0  0  0  0  0  0  0  0  0
    1.8892  -10.3985   17.7511 N   0  0  0  0  0  0  0  0  0  0  0  0
    9.6210   -0.6952   24.0976 C   0  0  0  0  0  0  0  0  0  0  0  0
    7.0792   -9.0217   17.1429 C   0  0  0  0  0  0  0  0  0  0  0  0
    3.1713  -10.1816   17.6634 C   0  0  0  0  0  0  0  0  0  0  0  0
    2.7878   -8.3822   16.2137 C   0  0  0  0  0  0  0  0  0  0  0  0
    9.4601   -2.6590   25.6528 C   0  0  0  0  0  0  0  0  0  0  0  0
   10.1182   -1.5672   23.1165 C   0  0  0  0  0  0  0  0  0  0  0  0
    1.0552   -9.6360   17.0650 C   0  0  0  0  0  0  0  0  0  0  0  0
    3.6519   -9.1783   16.9039 C   0  0  0  0  0  0  0  0  0  0  0  0
    7.8675   -7.0096   15.9415 C   0  0  0  0  0  0  0  0  0  0  0  0
    5.9733   -9.6553   17.3832 N   0  0  0  0  0  0  0  0  0  0  0  0
   10.2411   -2.9363   23.4301 C   0  0  0  0  0  0  0  0  0  0  0  0
   10.7288   -3.8197   19.9525 C   0  0  0  0  0  0  0  0  0  0  0  0
   10.1189   -5.0054   19.6987 C   0  0  0  0  0  0  0  0  0  0  0  0
  1  3  4  0
  1  7  4  0
  2 21  4  0
  2 27  4  0
  3  9  4  0
  3 10  4  0
  4  8  4  0
  4 18  4  0
  4 25  1  0
  5  9  4  0
  5 12  4  0
  6 13  1  0
  6 27  1  0
  7 28  4  0
  8 11  4  0
  9 29  4  0
 10 12  4  0
 11 24  1  0
 11 26  4  0
 12 25  1  0
 13 28  1  0
 14 20  4  0
 14 23  4  0
 15 17  4  0
 15 21  4  0
 16 19  4  0
 16 23  4  0
 17 22  4  0
 18 26  4  0
 19 24  4  0
 20 24  4  0
 22 27  4  0
 28 29  4  0
M  END
$$$$

 Created by Python create_sdf_string function

 29 33  0  0  0  0  0  0  0  0999 V2000
   10.7215   -3.3326   17.6437 C   0  0  0  0  0  0  0  0  0  0  0  0
    9.9489   -3.4675   24.6487 N   0  0  0  0  0  0  0  0  0  0  0  0
   10.0172   -4.4740   17.4101 C   0  0  0  0  0  0  0  0  0  0  0  0
    6.9051   -7.9575   16.4222 C   0  0  0  0  0  0  0  0  0  0  0  0
    8.9969   -6.3552   17.9668 N   0  0  0  0  0  0  0  0  0  0  0  0
   10.6702   -3.9051   22.4070 C   0  0  0  0  0  0  0  0  0  0  0  0
   11.0625   -3.0028   18.8894 C   0  0  0  0  0  0  0  0  0  0  0  0
    5.6180   -7.9194   16.1754 O   0  0  0  0  0  0  0  0  0  0  0  0
    9.7259   -5.3080   18.4485 C   0  0  0  0  0  0  0  0  0  0  0  0
    9.4578   -5.0200   16.3036 N   0  0  0  0  0  0  0  0  0  0  0  0
    5.0287   -8.9365   16.8223 C   0  0  0  0  0  0  0  0  0  0  0  0
    8.7742   -6.1498   16.6764 C   0  0  0  0  0  0  0  0  0  0  0  0
   10.9418   -3.4032   21.2053 O   0  0  0  0  0  0  0  0  0  0  0  0
    1.4797   -8.6258   16.2950 C   0  0  0  0  0  0  0  0  0  0  0  0
    9.2861   -1.2743   25.3585 C   0  0  0  0  0  0  0  0  0  0  0  0
    1.8892  -10.3985   17.7511 N   0  0  0  0  0  0  0  0  0  0  0  0
    9.6210   -0.6952   24.0976 C   0  0  0  0  0  0  0  0  0  0  0  0
    7.0792   -9.0217   17.1429 C   0  0  0  0  0  0  0  0  0  0  0  0
    3.1713  -10.1816   17.6634 C   0  0  0  0  0  0  0  0  0  0  0  0
    2.7878   -8.3822   16.2137 C   0  0  0  0  0  0  0  0  0  0  0  0
    9.4601   -2.6590   25.6528 C   0  0  0  0  0  0  0  0  0  0  0  0
   10.1182   -1.5672   23.1165 C   0  0  0  0  0  0  0  0  0  0  0  0
    1.0552   -9.6360   17.0650 C   0  0  0  0  0  0  0  0  0  0  0  0
    3.6519   -9.1783   16.9039 C   0  0  0  0  0  0  0  0  0  0  0  0
    7.8675   -7.0096   15.9415 C   0  0  0  0  0  0  0  0  0  0  0  0
    5.9733   -9.6553   17.3832 N   0  0  0  0  0  0  0  0  0  0  0  0
   10.2411   -2.9363   23.4301 C   0  0  0  0  0  0  0  0  0  0  0  0
   10.7288   -3.8197   19.9525 C   0  0  0  0  0  0  0  0  0  0  0  0
   10.1189   -5.0054   19.6987 C   0  0  0  0  0  0  0  0  0  0  0  0
  1  3  4  0
  1  7  4  0
  2 21  4  0
  2 27  4  0
  3  9  4  0
  3 10  4  0
  4  8  4  0
  4 18  4  0
  4 25  1  0
  5  9  4  0
  5 12  4  0
  6 13  1  0
  6 27  1  0
  7 28  4  0
  8 11  4  0
  9 29  4  0
 10 12  4  0
 11 24  1  0
 11 26  4  0
 12 25  1  0
 13 28  1  0
 14 20  4  0
 14 23  4  0
 15 17  4  0
 15 21  4  0
 16 19  4  0
 16 23  4  0
 17 22  4  0
 18 26  4  0
 19 24  4  0
 20 24  4  0
 22 27  4  0
 28 29  4  0
M  END
$$$$

 Created by Python create_sdf_string function

 29 33  0  0  0  0  0  0  0  0999 V2000
   10.7215   -3.3326   17.6437 C   0  0  0  0  0  0  0  0  0  0  0  0
    9.9489   -3.4675   24.6487 N   0  0  0  0  0  0  0  0  0  0  0  0
   10.0172   -4.4740   17.4101 C   0  0  0  0  0  0  0  0  0  0  0  0
    6.9051   -7.9575   16.4222 C   0  0  0  0  0  0  0  0  0  0  0  0
    8.9969   -6.3552   17.9668 N   0  0  0  0  0  0  0  0  0  0  0  0
   10.6702   -3.9051   22.4070 C   0  0  0  0  0  0  0  0  0  0  0  0
   11.0625   -3.0028   18.8894 C   0  0  0  0  0  0  0  0  0  0  0  0
    5.6180   -7.9194   16.1754 O   0  0  0  0  0  0  0  0  0  0  0  0
    9.7259   -5.3080   18.4485 C   0  0  0  0  0  0  0  0  0  0  0  0
    9.4578   -5.0200   16.3036 N   0  0  0  0  0  0  0  0  0  0  0  0
    5.0287   -8.9365   16.8223 C   0  0  0  0  0  0  0  0  0  0  0  0
    8.7742   -6.1498   16.6764 C   0  0  0  0  0  0  0  0  0  0  0  0
   10.9418   -3.4032   21.2053 O   0  0  0  0  0  0  0  0  0  0  0  0
    1.4797   -8.6258   16.2950 C   0  0  0  0  0  0  0  0  0  0  0  0
    9.2861   -1.2743   25.3585 C   0  0  0  0  0  0  0  0  0  0  0  0
    1.8892  -10.3985   17.7511 N   0  0  0  0  0  0  0  0  0  0  0  0
    9.6210   -0.6952   24.0976 C   0  0  0  0  0  0  0  0  0  0  0  0
    7.0792   -9.0217   17.1429 C   0  0  0  0  0  0  0  0  0  0  0  0
    3.1713  -10.1816   17.6634 C   0  0  0  0  0  0  0  0  0  0  0  0
    2.7878   -8.3822   16.2137 C   0  0  0  0  0  0  0  0  0  0  0  0
    9.4601   -2.6590   25.6528 C   0  0  0  0  0  0  0  0  0  0  0  0
   10.1182   -1.5672   23.1165 C   0  0  0  0  0  0  0  0  0  0  0  0
    1.0552   -9.6360   17.0650 C   0  0  0  0  0  0  0  0  0  0  0  0
    3.6519   -9.1783   16.9039 C   0  0  0  0  0  0  0  0  0  0  0  0
    7.8675   -7.0096   15.9415 C   0  0  0  0  0  0  0  0  0  0  0  0
    5.9733   -9.6553   17.3832 N   0  0  0  0  0  0  0  0  0  0  0  0
   10.2411   -2.9363   23.4301 C   0  0  0  0  0  0  0  0  0  0  0  0
   10.7288   -3.8197   19.9525 C   0  0  0  0  0  0  0  0  0  0  0  0
   10.1189   -5.0054   19.6987 C   0  0  0  0  0  0  0  0  0  0  0  0
  1  3  4  0
  1  7  4  0
  2 21  4  0
  2 27  4  0
  3  9  4  0
  3 10  4  0
  4  8  4  0
  4 18  4  0
  4 25  1  0
  5  9  4  0
  5 12  4  0
  6 13  1  0
  6 27  1  0
  7 28  4  0
  8 11  4  0
  9 29  4  0
 10 12  4  0
 11 24  1  0
 11 26  4  0
 12 25  1  0
 13 28  1  0
 14 20  4  0
 14 23  4  0
 15 17  4  0
 15 21  4  0
 16 19  4  0
 16 23  4  0
 17 22  4  0
 18 26  4  0
 19 24  4  0
 20 24  4  0
 22 27  4  0
 28 29  4  0
M  END
$$$$

 Created by Python create_sdf_string function

 29 33  0  0  0  0  0  0  0  0999 V2000
   10.7215   -3.3326   17.6437 C   0  0  0  0  0  0  0  0  0  0  0  0
    9.9489   -3.4675   24.6487 N   0  0  0  0  0  0  0  0  0  0  0  0
   10.0172   -4.4740   17.4101 C   0  0  0  0  0  0  0  0  0  0  0  0
    6.9051   -7.9575   16.4222 C   0  0  0  0  0  0  0  0  0  0  0  0
    8.9969   -6.3552   17.9668 N   0  0  0  0  0  0  0  0  0  0  0  0
   10.6702   -3.9051   22.4070 C   0  0  0  0  0  0  0  0  0  0  0  0
   11.0625   -3.0028   18.8894 C   0  0  0  0  0  0  0  0  0  0  0  0
    5.6180   -7.9194   16.1754 O   0  0  0  0  0  0  0  0  0  0  0  0
    9.7259   -5.3080   18.4485 C   0  0  0  0  0  0  0  0  0  0  0  0
    9.4578   -5.0200   16.3036 N   0  0  0  0  0  0  0  0  0  0  0  0
    5.0287   -8.9365   16.8223 C   0  0  0  0  0  0  0  0  0  0  0  0
    8.7742   -6.1498   16.6764 C   0  0  0  0  0  0  0  0  0  0  0  0
   10.9418   -3.4032   21.2053 O   0  0  0  0  0  0  0  0  0  0  0  0
    1.4797   -8.6258   16.2950 C   0  0  0  0  0  0  0  0  0  0  0  0
    9.2861   -1.2743   25.3585 C   0  0  0  0  0  0  0  0  0  0  0  0
    1.8892  -10.3985   17.7511 N   0  0  0  0  0  0  0  0  0  0  0  0
    9.6210   -0.6952   24.0976 C   0  0  0  0  0  0  0  0  0  0  0  0
    7.0792   -9.0217   17.1429 C   0  0  0  0  0  0  0  0  0  0  0  0
    3.1713  -10.1816   17.6634 C   0  0  0  0  0  0  0  0  0  0  0  0
    2.7878   -8.3822   16.2137 C   0  0  0  0  0  0  0  0  0  0  0  0
    9.4601   -2.6590   25.6528 C   0  0  0  0  0  0  0  0  0  0  0  0
   10.1182   -1.5672   23.1165 C   0  0  0  0  0  0  0  0  0  0  0  0
    1.0552   -9.6360   17.0650 C   0  0  0  0  0  0  0  0  0  0  0  0
    3.6519   -9.1783   16.9039 C   0  0  0  0  0  0  0  0  0  0  0  0
    7.8675   -7.0096   15.9415 C   0  0  0  0  0  0  0  0  0  0  0  0
    5.9733   -9.6553   17.3832 N   0  0  0  0  0  0  0  0  0  0  0  0
   10.2411   -2.9363   23.4301 C   0  0  0  0  0  0  0  0  0  0  0  0
   10.7288   -3.8197   19.9525 C   0  0  0  0  0  0  0  0  0  0  0  0
   10.1189   -5.0054   19.6987 C   0  0  0  0  0  0  0  0  0  0  0  0
  1  3  4  0
  1  7  4  0
  2 21  4  0
  2 27  4  0
  3  9  4  0
  3 10  4  0
  4  8  4  0
  4 18  4  0
  4 25  1  0
  5  9  4  0
  5 12  4  0
  6 13  1  0
  6 27  1  0
  7 28  4  0
  8 11  4  0
  9 29  4  0
 10 12  4  0
 11 24  1  0
 11 26  4  0
 12 25  1  0
 13 28  1  0
 14 20  4  0
 14 23  4  0
 15 17  4  0
 15 21  4  0
 16 19  4  0
 16 23  4  0
 17 22  4  0
 18 26  4  0
 19 24  4  0
 20 24  4  0
 22 27  4  0
 28 29  4  0
M  END
$$$$

 Created by Python create_sdf_string function

 29 33  0  0  0  0  0  0  0  0999 V2000
   10.7215   -3.3326   17.6437 C   0  0  0  0  0  0  0  0  0  0  0  0
    9.9489   -3.4675   24.6487 N   0  0  0  0  0  0  0  0  0  0  0  0
   10.0172   -4.4740   17.4101 C   0  0  0  0  0  0  0  0  0  0  0  0
    6.9051   -7.9575   16.4222 C   0  0  0  0  0  0  0  0  0  0  0  0
    8.9969   -6.3552   17.9668 N   0  0  0  0  0  0  0  0  0  0  0  0
   10.6702   -3.9051   22.4070 C   0  0  0  0  0  0  0  0  0  0  0  0
   11.0625   -3.0028   18.8894 C   0  0  0  0  0  0  0  0  0  0  0  0
    5.6180   -7.9194   16.1754 O   0  0  0  0  0  0  0  0  0  0  0  0
    9.7259   -5.3080   18.4485 C   0  0  0  0  0  0  0  0  0  0  0  0
    9.4578   -5.0200   16.3036 N   0  0  0  0  0  0  0  0  0  0  0  0
    5.0287   -8.9365   16.8223 C   0  0  0  0  0  0  0  0  0  0  0  0
    8.7742   -6.1498   16.6764 C   0  0  0  0  0  0  0  0  0  0  0  0
   10.9418   -3.4032   21.2053 O   0  0  0  0  0  0  0  0  0  0  0  0
    1.4797   -8.6258   16.2950 C   0  0  0  0  0  0  0  0  0  0  0  0
    9.2861   -1.2743   25.3585 C   0  0  0  0  0  0  0  0  0  0  0  0
    1.8892  -10.3985   17.7511 N   0  0  0  0  0  0  0  0  0  0  0  0
    9.6210   -0.6952   24.0976 C   0  0  0  0  0  0  0  0  0  0  0  0
    7.0792   -9.0217   17.1429 C   0  0  0  0  0  0  0  0  0  0  0  0
    3.1713  -10.1816   17.6634 C   0  0  0  0  0  0  0  0  0  0  0  0
    2.7878   -8.3822   16.2137 C   0  0  0  0  0  0  0  0  0  0  0  0
    9.4601   -2.6590   25.6528 C   0  0  0  0  0  0  0  0  0  0  0  0
   10.1182   -1.5672   23.1165 C   0  0  0  0  0  0  0  0  0  0  0  0
    1.0552   -9.6360   17.0650 C   0  0  0  0  0  0  0  0  0  0  0  0
    3.6519   -9.1783   16.9039 C   0  0  0  0  0  0  0  0  0  0  0  0
    7.8675   -7.0096   15.9415 C   0  0  0  0  0  0  0  0  0  0  0  0
    5.9733   -9.6553   17.3832 N   0  0  0  0  0  0  0  0  0  0  0  0
   10.2411   -2.9363   23.4301 C   0  0  0  0  0  0  0  0  0  0  0  0
   10.7288   -3.8197   19.9525 C   0  0  0  0  0  0  0  0  0  0  0  0
   10.1189   -5.0054   19.6987 C   0  0  0  0  0  0  0  0  0  0  0  0
  1  3  4  0
  1  7  4  0
  2 21  4  0
  2 27  4  0
  3  9  4  0
  3 10  4  0
  4  8  4  0
  4 18  4  0
  4 25  1  0
  5  9  4  0
  5 12  4  0
  6 13  1  0
  6 27  1  0
  7 28  4  0
  8 11  4  0
  9 29  4  0
 10 12  4  0
 11 24  1  0
 11 26  4  0
 12 25  1  0
 13 28  1  0
 14 20  4  0
 14 23  4  0
 15 17  4  0
 15 21  4  0
 16 19  4  0
 16 23  4  0
 17 22  4  0
 18 26  4  0
 19 24  4  0
 20 24  4  0
 22 27  4  0
 28 29  4  0
M  END
$$$$

 Created by Python create_sdf_string function

 29 33  0  0  0  0  0  0  0  0999 V2000
   10.7215   -3.3326   17.6437 C   0  0  0  0  0  0  0  0  0  0  0  0
    9.9489   -3.4675   24.6487 N   0  0  0  0  0  0  0  0  0  0  0  0
   10.0172   -4.4740   17.4101 C   0  0  0  0  0  0  0  0  0  0  0  0
    6.9051   -7.9575   16.4222 C   0  0  0  0  0  0  0  0  0  0  0  0
    8.9969   -6.3552   17.9668 N   0  0  0  0  0  0  0  0  0  0  0  0
   10.6702   -3.9051   22.4070 C   0  0  0  0  0  0  0  0  0  0  0  0
   11.0625   -3.0028   18.8894 C   0  0  0  0  0  0  0  0  0  0  0  0
    5.6180   -7.9194   16.1754 O   0  0  0  0  0  0  0  0  0  0  0  0
    9.7259   -5.3080   18.4485 C   0  0  0  0  0  0  0  0  0  0  0  0
    9.4578   -5.0200   16.3036 N   0  0  0  0  0  0  0  0  0  0  0  0
    5.0287   -8.9365   16.8223 C   0  0  0  0  0  0  0  0  0  0  0  0
    8.7742   -6.1498   16.6764 C   0  0  0  0  0  0  0  0  0  0  0  0
   10.9418   -3.4032   21.2053 O   0  0  0  0  0  0  0  0  0  0  0  0
    1.4797   -8.6258   16.2950 C   0  0  0  0  0  0  0  0  0  0  0  0
    9.2861   -1.2743   25.3585 C   0  0  0  0  0  0  0  0  0  0  0  0
    1.8892  -10.3985   17.7511 N   0  0  0  0  0  0  0  0  0  0  0  0
    9.6210   -0.6952   24.0976 C   0  0  0  0  0  0  0  0  0  0  0  0
    7.0792   -9.0217   17.1429 C   0  0  0  0  0  0  0  0  0  0  0  0
    3.1713  -10.1816   17.6634 C   0  0  0  0  0  0  0  0  0  0  0  0
    2.7878   -8.3822   16.2137 C   0  0  0  0  0  0  0  0  0  0  0  0
    9.4601   -2.6590   25.6528 C   0  0  0  0  0  0  0  0  0  0  0  0
   10.1182   -1.5672   23.1165 C   0  0  0  0  0  0  0  0  0  0  0  0
    1.0552   -9.6360   17.0650 C   0  0  0  0  0  0  0  0  0  0  0  0
    3.6519   -9.1783   16.9039 C   0  0  0  0  0  0  0  0  0  0  0  0
    7.8675   -7.0096   15.9415 C   0  0  0  0  0  0  0  0  0  0  0  0
    5.9733   -9.6553   17.3832 N   0  0  0  0  0  0  0  0  0  0  0  0
   10.2411   -2.9363   23.4301 C   0  0  0  0  0  0  0  0  0  0  0  0
   10.7288   -3.8197   19.9525 C   0  0  0  0  0  0  0  0  0  0  0  0
   10.1189   -5.0054   19.6987 C   0  0  0  0  0  0  0  0  0  0  0  0
  1  3  4  0
  1  7  4  0
  2 21  4  0
  2 27  4  0
  3  9  4  0
  3 10  4  0
  4  8  4  0
  4 18  4  0
  4 25  1  0
  5  9  4  0
  5 12  4  0
  6 13  1  0
  6 27  1  0
  7 28  4  0
  8 11  4  0
  9 29  4  0
 10 12  4  0
 11 24  1  0
 11 26  4  0
 12 25  1  0
 13 28  1  0
 14 20  4  0
 14 23  4  0
 15 17  4  0
 15 21  4  0
 16 19  4  0
 16 23  4  0
 17 22  4  0
 18 26  4  0
 19 24  4  0
 20 24  4  0
 22 27  4  0
 28 29  4  0
M  END
$$$$

 Created by Python create_sdf_string function

 29 33  0  0  0  0  0  0  0  0999 V2000
   10.7215   -3.3326   17.6437 C   0  0  0  0  0  0  0  0  0  0  0  0
    9.9489   -3.4675   24.6487 N   0  0  0  0  0  0  0  0  0  0  0  0
   10.0172   -4.4740   17.4101 C   0  0  0  0  0  0  0  0  0  0  0  0
    6.9051   -7.9575   16.4222 C   0  0  0  0  0  0  0  0  0  0  0  0
    8.9969   -6.3552   17.9668 N   0  0  0  0  0  0  0  0  0  0  0  0
   10.6702   -3.9051   22.4070 C   0  0  0  0  0  0  0  0  0  0  0  0
   11.0625   -3.0028   18.8894 C   0  0  0  0  0  0  0  0  0  0  0  0
    5.6180   -7.9194   16.1754 O   0  0  0  0  0  0  0  0  0  0  0  0
    9.7259   -5.3080   18.4485 C   0  0  0  0  0  0  0  0  0  0  0  0
    9.4578   -5.0200   16.3036 N   0  0  0  0  0  0  0  0  0  0  0  0
    5.0287   -8.9365   16.8223 C   0  0  0  0  0  0  0  0  0  0  0  0
    8.7742   -6.1498   16.6764 C   0  0  0  0  0  0  0  0  0  0  0  0
   10.9418   -3.4032   21.2053 O   0  0  0  0  0  0  0  0  0  0  0  0
    1.4797   -8.6258   16.2950 C   0  0  0  0  0  0  0  0  0  0  0  0
    9.2861   -1.2743   25.3585 C   0  0  0  0  0  0  0  0  0  0  0  0
    1.8892  -10.3985   17.7511 N   0  0  0  0  0  0  0  0  0  0  0  0
    9.6210   -0.6952   24.0976 C   0  0  0  0  0  0  0  0  0  0  0  0
    7.0792   -9.0217   17.1429 C   0  0  0  0  0  0  0  0  0  0  0  0
    3.1713  -10.1816   17.6634 C   0  0  0  0  0  0  0  0  0  0  0  0
    2.7878   -8.3822   16.2137 C   0  0  0  0  0  0  0  0  0  0  0  0
    9.4601   -2.6590   25.6528 C   0  0  0  0  0  0  0  0  0  0  0  0
   10.1182   -1.5672   23.1165 C   0  0  0  0  0  0  0  0  0  0  0  0
    1.0552   -9.6360   17.0650 C   0  0  0  0  0  0  0  0  0  0  0  0
    3.6519   -9.1783   16.9039 C   0  0  0  0  0  0  0  0  0  0  0  0
    7.8675   -7.0096   15.9415 C   0  0  0  0  0  0  0  0  0  0  0  0
    5.9733   -9.6553   17.3832 N   0  0  0  0  0  0  0  0  0  0  0  0
   10.2411   -2.9363   23.4301 C   0  0  0  0  0  0  0  0  0  0  0  0
   10.7288   -3.8197   19.9525 C   0  0  0  0  0  0  0  0  0  0  0  0
   10.1189   -5.0054   19.6987 C   0  0  0  0  0  0  0  0  0  0  0  0
  1  3  4  0
  1  7  4  0
  2 21  4  0
  2 27  4  0
  3  9  4  0
  3 10  4  0
  4  8  4  0
  4 18  4  0
  4 25  1  0
  5  9  4  0
  5 12  4  0
  6 13  1  0
  6 27  1  0
  7 28  4  0
  8 11  4  0
  9 29  4  0
 10 12  4  0
 11 24  1  0
 11 26  4  0
 12 25  1  0
 13 28  1  0
 14 20  4  0
 14 23  4  0
 15 17  4  0
 15 21  4  0
 16 19  4  0
 16 23  4  0
 17 22  4  0
 18 26  4  0
 19 24  4  0
 20 24  4  0
 22 27  4  0
 28 29  4  0
M  END
$$$$

 Created by Python create_sdf_string function

 29 33  0  0  0  0  0  0  0  0999 V2000
   10.7215   -3.3326   17.6437 C   0  0  0  0  0  0  0  0  0  0  0  0
    9.9489   -3.4675   24.6487 N   0  0  0  0  0  0  0  0  0  0  0  0
   10.0172   -4.4740   17.4101 C   0  0  0  0  0  0  0  0  0  0  0  0
    6.9051   -7.9575   16.4222 C   0  0  0  0  0  0  0  0  0  0  0  0
    8.9969   -6.3552   17.9668 N   0  0  0  0  0  0  0  0  0  0  0  0
   10.6702   -3.9051   22.4070 C   0  0  0  0  0  0  0  0  0  0  0  0
   11.0625   -3.0028   18.8894 C   0  0  0  0  0  0  0  0  0  0  0  0
    5.6180   -7.9194   16.1754 O   0  0  0  0  0  0  0  0  0  0  0  0
    9.7259   -5.3080   18.4485 C   0  0  0  0  0  0  0  0  0  0  0  0
    9.4578   -5.0200   16.3036 N   0  0  0  0  0  0  0  0  0  0  0  0
    5.0287   -8.9365   16.8223 C   0  0  0  0  0  0  0  0  0  0  0  0
    8.7742   -6.1498   16.6764 C   0  0  0  0  0  0  0  0  0  0  0  0
   10.9418   -3.4032   21.2053 O   0  0  0  0  0  0  0  0  0  0  0  0
    1.4797   -8.6258   16.2950 C   0  0  0  0  0  0  0  0  0  0  0  0
    9.2861   -1.2743   25.3585 C   0  0  0  0  0  0  0  0  0  0  0  0
    1.8892  -10.3985   17.7511 N   0  0  0  0  0  0  0  0  0  0  0  0
    9.6210   -0.6952   24.0976 C   0  0  0  0  0  0  0  0  0  0  0  0
    7.0792   -9.0217   17.1429 C   0  0  0  0  0  0  0  0  0  0  0  0
    3.1713  -10.1816   17.6634 C   0  0  0  0  0  0  0  0  0  0  0  0
    2.7878   -8.3822   16.2137 C   0  0  0  0  0  0  0  0  0  0  0  0
    9.4601   -2.6590   25.6528 C   0  0  0  0  0  0  0  0  0  0  0  0
   10.1182   -1.5672   23.1165 C   0  0  0  0  0  0  0  0  0  0  0  0
    1.0552   -9.6360   17.0650 C   0  0  0  0  0  0  0  0  0  0  0  0
    3.6519   -9.1783   16.9039 C   0  0  0  0  0  0  0  0  0  0  0  0
    7.8675   -7.0096   15.9415 C   0  0  0  0  0  0  0  0  0  0  0  0
    5.9733   -9.6553   17.3832 N   0  0  0  0  0  0  0  0  0  0  0  0
   10.2411   -2.9363   23.4301 C   0  0  0  0  0  0  0  0  0  0  0  0
   10.7288   -3.8197   19.9525 C   0  0  0  0  0  0  0  0  0  0  0  0
   10.1189   -5.0054   19.6987 C   0  0  0  0  0  0  0  0  0  0  0  0
  1  3  4  0
  1  7  4  0
  2 21  4  0
  2 27  4  0
  3  9  4  0
  3 10  4  0
  4  8  4  0
  4 18  4  0
  4 25  1  0
  5  9  4  0
  5 12  4  0
  6 13  1  0
  6 27  1  0
  7 28  4  0
  8 11  4  0
  9 29  4  0
 10 12  4  0
 11 24  1  0
 11 26  4  0
 12 25  1  0
 13 28  1  0
 14 20  4  0
 14 23  4  0
 15 17  4  0
 15 21  4  0
 16 19  4  0
 16 23  4  0
 17 22  4  0
 18 26  4  0
 19 24  4  0
 20 24  4  0
 22 27  4  0
 28 29  4  0
M  END
$$$$

 Created by Python create_sdf_string function

 29 33  0  0  0  0  0  0  0  0999 V2000
   10.7215   -3.3326   17.6437 C   0  0  0  0  0  0  0  0  0  0  0  0
    9.9489   -3.4675   24.6487 N   0  0  0  0  0  0  0  0  0  0  0  0
   10.0172   -4.4740   17.4101 C   0  0  0  0  0  0  0  0  0  0  0  0
    6.9051   -7.9575   16.4222 C   0  0  0  0  0  0  0  0  0  0  0  0
    8.9969   -6.3552   17.9668 N   0  0  0  0  0  0  0  0  0  0  0  0
   10.6702   -3.9051   22.4070 C   0  0  0  0  0  0  0  0  0  0  0  0
   11.0625   -3.0028   18.8894 C   0  0  0  0  0  0  0  0  0  0  0  0
    5.6180   -7.9194   16.1754 O   0  0  0  0  0  0  0  0  0  0  0  0
    9.7259   -5.3080   18.4485 C   0  0  0  0  0  0  0  0  0  0  0  0
    9.4578   -5.0200   16.3036 N   0  0  0  0  0  0  0  0  0  0  0  0
    5.0287   -8.9365   16.8223 C   0  0  0  0  0  0  0  0  0  0  0  0
    8.7742   -6.1498   16.6764 C   0  0  0  0  0  0  0  0  0  0  0  0
   10.9418   -3.4032   21.2053 O   0  0  0  0  0  0  0  0  0  0  0  0
    1.4797   -8.6258   16.2950 C   0  0  0  0  0  0  0  0  0  0  0  0
    9.2861   -1.2743   25.3585 C   0  0  0  0  0  0  0  0  0  0  0  0
    1.8892  -10.3985   17.7511 N   0  0  0  0  0  0  0  0  0  0  0  0
    9.6210   -0.6952   24.0976 C   0  0  0  0  0  0  0  0  0  0  0  0
    7.0792   -9.0217   17.1429 C   0  0  0  0  0  0  0  0  0  0  0  0
    3.1713  -10.1816   17.6634 C   0  0  0  0  0  0  0  0  0  0  0  0
    2.7878   -8.3822   16.2137 C   0  0  0  0  0  0  0  0  0  0  0  0
    9.4601   -2.6590   25.6528 C   0  0  0  0  0  0  0  0  0  0  0  0
   10.1182   -1.5672   23.1165 C   0  0  0  0  0  0  0  0  0  0  0  0
    1.0552   -9.6360   17.0650 C   0  0  0  0  0  0  0  0  0  0  0  0
    3.6519   -9.1783   16.9039 C   0  0  0  0  0  0  0  0  0  0  0  0
    7.8675   -7.0096   15.9415 C   0  0  0  0  0  0  0  0  0  0  0  0
    5.9733   -9.6553   17.3832 N   0  0  0  0  0  0  0  0  0  0  0  0
   10.2411   -2.9363   23.4301 C   0  0  0  0  0  0  0  0  0  0  0  0
   10.7288   -3.8197   19.9525 C   0  0  0  0  0  0  0  0  0  0  0  0
   10.1189   -5.0054   19.6987 C   0  0  0  0  0  0  0  0  0  0  0  0
  1  3  4  0
  1  7  4  0
  2 21  4  0
  2 27  4  0
  3  9  4  0
  3 10  4  0
  4  8  4  0
  4 18  4  0
  4 25  1  0
  5  9  4  0
  5 12  4  0
  6 13  1  0
  6 27  1  0
  7 28  4  0
  8 11  4  0
  9 29  4  0
 10 12  4  0
 11 24  1  0
 11 26  4  0
 12 25  1  0
 13 28  1  0
 14 20  4  0
 14 23  4  0
 15 17  4  0
 15 21  4  0
 16 19  4  0
 16 23  4  0
 17 22  4  0
 18 26  4  0
 19 24  4  0
 20 24  4  0
 22 27  4  0
 28 29  4  0
M  END
$$$$

 Created by Python create_sdf_string function

 29 33  0  0  0  0  0  0  0  0999 V2000
   10.7215   -3.3326   17.6437 C   0  0  0  0  0  0  0  0  0  0  0  0
    9.9489   -3.4675   24.6487 N   0  0  0  0  0  0  0  0  0  0  0  0
   10.0172   -4.4740   17.4101 C   0  0  0  0  0  0  0  0  0  0  0  0
    6.9051   -7.9575   16.4222 C   0  0  0  0  0  0  0  0  0  0  0  0
    8.9969   -6.3552   17.9668 N   0  0  0  0  0  0  0  0  0  0  0  0
   10.6702   -3.9051   22.4070 C   0  0  0  0  0  0  0  0  0  0  0  0
   11.0625   -3.0028   18.8894 C   0  0  0  0  0  0  0  0  0  0  0  0
    5.6180   -7.9194   16.1754 O   0  0  0  0  0  0  0  0  0  0  0  0
    9.7259   -5.3080   18.4485 C   0  0  0  0  0  0  0  0  0  0  0  0
    9.4578   -5.0200   16.3036 N   0  0  0  0  0  0  0  0  0  0  0  0
    5.0287   -8.9365   16.8223 C   0  0  0  0  0  0  0  0  0  0  0  0
    8.7742   -6.1498   16.6764 C   0  0  0  0  0  0  0  0  0  0  0  0
   10.9418   -3.4032   21.2053 O   0  0  0  0  0  0  0  0  0  0  0  0
    1.4797   -8.6258   16.2950 C   0  0  0  0  0  0  0  0  0  0  0  0
    9.2861   -1.2743   25.3585 C   0  0  0  0  0  0  0  0  0  0  0  0
    1.8892  -10.3985   17.7511 N   0  0  0  0  0  0  0  0  0  0  0  0
    9.6210   -0.6952   24.0976 C   0  0  0  0  0  0  0  0  0  0  0  0
    7.0792   -9.0217   17.1429 C   0  0  0  0  0  0  0  0  0  0  0  0
    3.1713  -10.1816   17.6634 C   0  0  0  0  0  0  0  0  0  0  0  0
    2.7878   -8.3822   16.2137 C   0  0  0  0  0  0  0  0  0  0  0  0
    9.4601   -2.6590   25.6528 C   0  0  0  0  0  0  0  0  0  0  0  0
   10.1182   -1.5672   23.1165 C   0  0  0  0  0  0  0  0  0  0  0  0
    1.0552   -9.6360   17.0650 C   0  0  0  0  0  0  0  0  0  0  0  0
    3.6519   -9.1783   16.9039 C   0  0  0  0  0  0  0  0  0  0  0  0
    7.8675   -7.0096   15.9415 C   0  0  0  0  0  0  0  0  0  0  0  0
    5.9733   -9.6553   17.3832 N   0  0  0  0  0  0  0  0  0  0  0  0
   10.2411   -2.9363   23.4301 C   0  0  0  0  0  0  0  0  0  0  0  0
   10.7288   -3.8197   19.9525 C   0  0  0  0  0  0  0  0  0  0  0  0
   10.1189   -5.0054   19.6987 C   0  0  0  0  0  0  0  0  0  0  0  0
  1  3  4  0
  1  7  4  0
  2 21  4  0
  2 27  4  0
  3  9  4  0
  3 10  4  0
  4  8  4  0
  4 18  4  0
  4 25  1  0
  5  9  4  0
  5 12  4  0
  6 13  1  0
  6 27  1  0
  7 28  4  0
  8 11  4  0
  9 29  4  0
 10 12  4  0
 11 24  1  0
 11 26  4  0
 12 25  1  0
 13 28  1  0
 14 20  4  0
 14 23  4  0
 15 17  4  0
 15 21  4  0
 16 19  4  0
 16 23  4  0
 17 22  4  0
 18 26  4  0
 19 24  4  0
 20 24  4  0
 22 27  4  0
 28 29  4  0
M  END
$$$$

 Created by Python create_sdf_string function

 29 33  0  0  0  0  0  0  0  0999 V2000
   10.7215   -3.3326   17.6437 C   0  0  0  0  0  0  0  0  0  0  0  0
    9.9489   -3.4675   24.6487 N   0  0  0  0  0  0  0  0  0  0  0  0
   10.0172   -4.4740   17.4101 C   0  0  0  0  0  0  0  0  0  0  0  0
    6.9051   -7.9575   16.4222 C   0  0  0  0  0  0  0  0  0  0  0  0
    8.9969   -6.3552   17.9668 N   0  0  0  0  0  0  0  0  0  0  0  0
   10.6702   -3.9051   22.4070 C   0  0  0  0  0  0  0  0  0  0  0  0
   11.0625   -3.0028   18.8894 C   0  0  0  0  0  0  0  0  0  0  0  0
    5.6180   -7.9194   16.1754 O   0  0  0  0  0  0  0  0  0  0  0  0
    9.7259   -5.3080   18.4485 C   0  0  0  0  0  0  0  0  0  0  0  0
    9.4578   -5.0200   16.3036 N   0  0  0  0  0  0  0  0  0  0  0  0
    5.0287   -8.9365   16.8223 C   0  0  0  0  0  0  0  0  0  0  0  0
    8.7742   -6.1498   16.6764 C   0  0  0  0  0  0  0  0  0  0  0  0
   10.9418   -3.4032   21.2053 O   0  0  0  0  0  0  0  0  0  0  0  0
    1.4797   -8.6258   16.2950 C   0  0  0  0  0  0  0  0  0  0  0  0
    9.2861   -1.2743   25.3585 C   0  0  0  0  0  0  0  0  0  0  0  0
    1.8892  -10.3985   17.7511 N   0  0  0  0  0  0  0  0  0  0  0  0
    9.6210   -0.6952   24.0976 C   0  0  0  0  0  0  0  0  0  0  0  0
    7.0792   -9.0217   17.1429 C   0  0  0  0  0  0  0  0  0  0  0  0
    3.1713  -10.1816   17.6634 C   0  0  0  0  0  0  0  0  0  0  0  0
    2.7878   -8.3822   16.2137 C   0  0  0  0  0  0  0  0  0  0  0  0
    9.4601   -2.6590   25.6528 C   0  0  0  0  0  0  0  0  0  0  0  0
   10.1182   -1.5672   23.1165 C   0  0  0  0  0  0  0  0  0  0  0  0
    1.0552   -9.6360   17.0650 C   0  0  0  0  0  0  0  0  0  0  0  0
    3.6519   -9.1783   16.9039 C   0  0  0  0  0  0  0  0  0  0  0  0
    7.8675   -7.0096   15.9415 C   0  0  0  0  0  0  0  0  0  0  0  0
    5.9733   -9.6553   17.3832 N   0  0  0  0  0  0  0  0  0  0  0  0
   10.2411   -2.9363   23.4301 C   0  0  0  0  0  0  0  0  0  0  0  0
   10.7288   -3.8197   19.9525 C   0  0  0  0  0  0  0  0  0  0  0  0
   10.1189   -5.0054   19.6987 C   0  0  0  0  0  0  0  0  0  0  0  0
  1  3  4  0
  1  7  4  0
  2 21  4  0
  2 27  4  0
  3  9  4  0
  3 10  4  0
  4  8  4  0
  4 18  4  0
  4 25  1  0
  5  9  4  0
  5 12  4  0
  6 13  1  0
  6 27  1  0
  7 28  4  0
  8 11  4  0
  9 29  4  0
 10 12  4  0
 11 24  1  0
 11 26  4  0
 12 25  1  0
 13 28  1  0
 14 20  4  0
 14 23  4  0
 15 17  4  0
 15 21  4  0
 16 19  4  0
 16 23  4  0
 17 22  4  0
 18 26  4  0
 19 24  4  0
 20 24  4  0
 22 27  4  0
 28 29  4  0
M  END
$$$$

 Created by Python create_sdf_string function

 29 33  0  0  0  0  0  0  0  0999 V2000
   10.7215   -3.3326   17.6437 C   0  0  0  0  0  0  0  0  0  0  0  0
    9.9489   -3.4675   24.6487 N   0  0  0  0  0  0  0  0  0  0  0  0
   10.0172   -4.4740   17.4101 C   0  0  0  0  0  0  0  0  0  0  0  0
    6.9051   -7.9575   16.4222 C   0  0  0  0  0  0  0  0  0  0  0  0
    8.9969   -6.3552   17.9668 N   0  0  0  0  0  0  0  0  0  0  0  0
   10.6702   -3.9051   22.4070 C   0  0  0  0  0  0  0  0  0  0  0  0
   11.0625   -3.0028   18.8894 C   0  0  0  0  0  0  0  0  0  0  0  0
    5.6180   -7.9194   16.1754 O   0  0  0  0  0  0  0  0  0  0  0  0
    9.7259   -5.3080   18.4485 C   0  0  0  0  0  0  0  0  0  0  0  0
    9.4578   -5.0200   16.3036 N   0  0  0  0  0  0  0  0  0  0  0  0
    5.0287   -8.9365   16.8223 C   0  0  0  0  0  0  0  0  0  0  0  0
    8.7742   -6.1498   16.6764 C   0  0  0  0  0  0  0  0  0  0  0  0
   10.9418   -3.4032   21.2053 O   0  0  0  0  0  0  0  0  0  0  0  0
    1.4797   -8.6258   16.2950 C   0  0  0  0  0  0  0  0  0  0  0  0
    9.2861   -1.2743   25.3585 C   0  0  0  0  0  0  0  0  0  0  0  0
    1.8892  -10.3985   17.7511 N   0  0  0  0  0  0  0  0  0  0  0  0
    9.6210   -0.6952   24.0976 C   0  0  0  0  0  0  0  0  0  0  0  0
    7.0792   -9.0217   17.1429 C   0  0  0  0  0  0  0  0  0  0  0  0
    3.1713  -10.1816   17.6634 C   0  0  0  0  0  0  0  0  0  0  0  0
    2.7878   -8.3822   16.2137 C   0  0  0  0  0  0  0  0  0  0  0  0
    9.4601   -2.6590   25.6528 C   0  0  0  0  0  0  0  0  0  0  0  0
   10.1182   -1.5672   23.1165 C   0  0  0  0  0  0  0  0  0  0  0  0
    1.0552   -9.6360   17.0650 C   0  0  0  0  0  0  0  0  0  0  0  0
    3.6519   -9.1783   16.9039 C   0  0  0  0  0  0  0  0  0  0  0  0
    7.8675   -7.0096   15.9415 C   0  0  0  0  0  0  0  0  0  0  0  0
    5.9733   -9.6553   17.3832 N   0  0  0  0  0  0  0  0  0  0  0  0
   10.2411   -2.9363   23.4301 C   0  0  0  0  0  0  0  0  0  0  0  0
   10.7288   -3.8197   19.9525 C   0  0  0  0  0  0  0  0  0  0  0  0
   10.1189   -5.0054   19.6987 C   0  0  0  0  0  0  0  0  0  0  0  0
  1  3  4  0
  1  7  4  0
  2 21  4  0
  2 27  4  0
  3  9  4  0
  3 10  4  0
  4  8  4  0
  4 18  4  0
  4 25  1  0
  5  9  4  0
  5 12  4  0
  6 13  1  0
  6 27  1  0
  7 28  4  0
  8 11  4  0
  9 29  4  0
 10 12  4  0
 11 24  1  0
 11 26  4  0
 12 25  1  0
 13 28  1  0
 14 20  4  0
 14 23  4  0
 15 17  4  0
 15 21  4  0
 16 19  4  0
 16 23  4  0
 17 22  4  0
 18 26  4  0
 19 24  4  0
 20 24  4  0
 22 27  4  0
 28 29  4  0
M  END
$$$$

 Created by Python create_sdf_string function

 29 33  0  0  0  0  0  0  0  0999 V2000
   10.7215   -3.3326   17.6437 C   0  0  0  0  0  0  0  0  0  0  0  0
    9.9489   -3.4675   24.6487 N   0  0  0  0  0  0  0  0  0  0  0  0
   10.0172   -4.4740   17.4101 C   0  0  0  0  0  0  0  0  0  0  0  0
    6.9051   -7.9575   16.4222 C   0  0  0  0  0  0  0  0  0  0  0  0
    8.9969   -6.3552   17.9668 N   0  0  0  0  0  0  0  0  0  0  0  0
   10.6702   -3.9051   22.4070 C   0  0  0  0  0  0  0  0  0  0  0  0
   11.0625   -3.0028   18.8894 C   0  0  0  0  0  0  0  0  0  0  0  0
    5.6180   -7.9194   16.1754 O   0  0  0  0  0  0  0  0  0  0  0  0
    9.7259   -5.3080   18.4485 C   0  0  0  0  0  0  0  0  0  0  0  0
    9.4578   -5.0200   16.3036 N   0  0  0  0  0  0  0  0  0  0  0  0
    5.0287   -8.9365   16.8223 C   0  0  0  0  0  0  0  0  0  0  0  0
    8.7742   -6.1498   16.6764 C   0  0  0  0  0  0  0  0  0  0  0  0
   10.9418   -3.4032   21.2053 O   0  0  0  0  0  0  0  0  0  0  0  0
    1.4797   -8.6258   16.2950 C   0  0  0  0  0  0  0  0  0  0  0  0
    9.2861   -1.2743   25.3585 C   0  0  0  0  0  0  0  0  0  0  0  0
    1.8892  -10.3985   17.7511 N   0  0  0  0  0  0  0  0  0  0  0  0
    9.6210   -0.6952   24.0976 C   0  0  0  0  0  0  0  0  0  0  0  0
    7.0792   -9.0217   17.1429 C   0  0  0  0  0  0  0  0  0  0  0  0
    3.1713  -10.1816   17.6634 C   0  0  0  0  0  0  0  0  0  0  0  0
    2.7878   -8.3822   16.2137 C   0  0  0  0  0  0  0  0  0  0  0  0
    9.4601   -2.6590   25.6528 C   0  0  0  0  0  0  0  0  0  0  0  0
   10.1182   -1.5672   23.1165 C   0  0  0  0  0  0  0  0  0  0  0  0
    1.0552   -9.6360   17.0650 C   0  0  0  0  0  0  0  0  0  0  0  0
    3.6519   -9.1783   16.9039 C   0  0  0  0  0  0  0  0  0  0  0  0
    7.8675   -7.0096   15.9415 C   0  0  0  0  0  0  0  0  0  0  0  0
    5.9733   -9.6553   17.3832 N   0  0  0  0  0  0  0  0  0  0  0  0
   10.2411   -2.9363   23.4301 C   0  0  0  0  0  0  0  0  0  0  0  0
   10.7288   -3.8197   19.9525 C   0  0  0  0  0  0  0  0  0  0  0  0
   10.1189   -5.0054   19.6987 C   0  0  0  0  0  0  0  0  0  0  0  0
  1  3  4  0
  1  7  4  0
  2 21  4  0
  2 27  4  0
  3  9  4  0
  3 10  4  0
  4  8  4  0
  4 18  4  0
  4 25  1  0
  5  9  4  0
  5 12  4  0
  6 13  1  0
  6 27  1  0
  7 28  4  0
  8 11  4  0
  9 29  4  0
 10 12  4  0
 11 24  1  0
 11 26  4  0
 12 25  1  0
 13 28  1  0
 14 20  4  0
 14 23  4  0
 15 17  4  0
 15 21  4  0
 16 19  4  0
 16 23  4  0
 17 22  4  0
 18 26  4  0
 19 24  4  0
 20 24  4  0
 22 27  4  0
 28 29  4  0
M  END
$$$$

 Created by Python create_sdf_string function

 29 33  0  0  0  0  0  0  0  0999 V2000
   10.7215   -3.3326   17.6437 C   0  0  0  0  0  0  0  0  0  0  0  0
    9.9489   -3.4675   24.6487 N   0  0  0  0  0  0  0  0  0  0  0  0
   10.0172   -4.4740   17.4101 C   0  0  0  0  0  0  0  0  0  0  0  0
    6.9051   -7.9575   16.4222 C   0  0  0  0  0  0  0  0  0  0  0  0
    8.9969   -6.3552   17.9668 N   0  0  0  0  0  0  0  0  0  0  0  0
   10.6702   -3.9051   22.4070 C   0  0  0  0  0  0  0  0  0  0  0  0
   11.0625   -3.0028   18.8894 C   0  0  0  0  0  0  0  0  0  0  0  0
    5.6180   -7.9194   16.1754 O   0  0  0  0  0  0  0  0  0  0  0  0
    9.7259   -5.3080   18.4485 C   0  0  0  0  0  0  0  0  0  0  0  0
    9.4578   -5.0200   16.3036 N   0  0  0  0  0  0  0  0  0  0  0  0
    5.0287   -8.9365   16.8223 C   0  0  0  0  0  0  0  0  0  0  0  0
    8.7742   -6.1498   16.6764 C   0  0  0  0  0  0  0  0  0  0  0  0
   10.9418   -3.4032   21.2053 O   0  0  0  0  0  0  0  0  0  0  0  0
    1.4797   -8.6258   16.2950 C   0  0  0  0  0  0  0  0  0  0  0  0
    9.2861   -1.2743   25.3585 C   0  0  0  0  0  0  0  0  0  0  0  0
    1.8892  -10.3985   17.7511 N   0  0  0  0  0  0  0  0  0  0  0  0
    9.6210   -0.6952   24.0976 C   0  0  0  0  0  0  0  0  0  0  0  0
    7.0792   -9.0217   17.1429 C   0  0  0  0  0  0  0  0  0  0  0  0
    3.1713  -10.1816   17.6634 C   0  0  0  0  0  0  0  0  0  0  0  0
    2.7878   -8.3822   16.2137 C   0  0  0  0  0  0  0  0  0  0  0  0
    9.4601   -2.6590   25.6528 C   0  0  0  0  0  0  0  0  0  0  0  0
   10.1182   -1.5672   23.1165 C   0  0  0  0  0  0  0  0  0  0  0  0
    1.0552   -9.6360   17.0650 C   0  0  0  0  0  0  0  0  0  0  0  0
    3.6519   -9.1783   16.9039 C   0  0  0  0  0  0  0  0  0  0  0  0
    7.8675   -7.0096   15.9415 C   0  0  0  0  0  0  0  0  0  0  0  0
    5.9733   -9.6553   17.3832 N   0  0  0  0  0  0  0  0  0  0  0  0
   10.2411   -2.9363   23.4301 C   0  0  0  0  0  0  0  0  0  0  0  0
   10.7288   -3.8197   19.9525 C   0  0  0  0  0  0  0  0  0  0  0  0
   10.1189   -5.0054   19.6987 C   0  0  0  0  0  0  0  0  0  0  0  0
  1  3  4  0
  1  7  4  0
  2 21  4  0
  2 27  4  0
  3  9  4  0
  3 10  4  0
  4  8  4  0
  4 18  4  0
  4 25  1  0
  5  9  4  0
  5 12  4  0
  6 13  1  0
  6 27  1  0
  7 28  4  0
  8 11  4  0
  9 29  4  0
 10 12  4  0
 11 24  1  0
 11 26  4  0
 12 25  1  0
 13 28  1  0
 14 20  4  0
 14 23  4  0
 15 17  4  0
 15 21  4  0
 16 19  4  0
 16 23  4  0
 17 22  4  0
 18 26  4  0
 19 24  4  0
 20 24  4  0
 22 27  4  0
 28 29  4  0
M  END
$$$$

 Created by Python create_sdf_string function

 29 33  0  0  0  0  0  0  0  0999 V2000
   10.7215   -3.3326   17.6437 C   0  0  0  0  0  0  0  0  0  0  0  0
    9.9489   -3.4675   24.6487 N   0  0  0  0  0  0  0  0  0  0  0  0
   10.0172   -4.4740   17.4101 C   0  0  0  0  0  0  0  0  0  0  0  0
    6.9051   -7.9575   16.4222 C   0  0  0  0  0  0  0  0  0  0  0  0
    8.9969   -6.3552   17.9668 N   0  0  0  0  0  0  0  0  0  0  0  0
   10.6702   -3.9051   22.4070 C   0  0  0  0  0  0  0  0  0  0  0  0
   11.0625   -3.0028   18.8894 C   0  0  0  0  0  0  0  0  0  0  0  0
    5.6180   -7.9194   16.1754 O   0  0  0  0  0  0  0  0  0  0  0  0
    9.7259   -5.3080   18.4485 C   0  0  0  0  0  0  0  0  0  0  0  0
    9.4578   -5.0200   16.3036 N   0  0  0  0  0  0  0  0  0  0  0  0
    5.0287   -8.9365   16.8223 C   0  0  0  0  0  0  0  0  0  0  0  0
    8.7742   -6.1498   16.6764 C   0  0  0  0  0  0  0  0  0  0  0  0
   10.9418   -3.4032   21.2053 O   0  0  0  0  0  0  0  0  0  0  0  0
    1.4797   -8.6258   16.2950 C   0  0  0  0  0  0  0  0  0  0  0  0
    9.2861   -1.2743   25.3585 C   0  0  0  0  0  0  0  0  0  0  0  0
    1.8892  -10.3985   17.7511 N   0  0  0  0  0  0  0  0  0  0  0  0
    9.6210   -0.6952   24.0976 C   0  0  0  0  0  0  0  0  0  0  0  0
    7.0792   -9.0217   17.1429 C   0  0  0  0  0  0  0  0  0  0  0  0
    3.1713  -10.1816   17.6634 C   0  0  0  0  0  0  0  0  0  0  0  0
    2.7878   -8.3822   16.2137 C   0  0  0  0  0  0  0  0  0  0  0  0
    9.4601   -2.6590   25.6528 C   0  0  0  0  0  0  0  0  0  0  0  0
   10.1182   -1.5672   23.1165 C   0  0  0  0  0  0  0  0  0  0  0  0
    1.0552   -9.6360   17.0650 C   0  0  0  0  0  0  0  0  0  0  0  0
    3.6519   -9.1783   16.9039 C   0  0  0  0  0  0  0  0  0  0  0  0
    7.8675   -7.0096   15.9415 C   0  0  0  0  0  0  0  0  0  0  0  0
    5.9733   -9.6553   17.3832 N   0  0  0  0  0  0  0  0  0  0  0  0
   10.2411   -2.9363   23.4301 C   0  0  0  0  0  0  0  0  0  0  0  0
   10.7288   -3.8197   19.9525 C   0  0  0  0  0  0  0  0  0  0  0  0
   10.1189   -5.0054   19.6987 C   0  0  0  0  0  0  0  0  0  0  0  0
  1  3  4  0
  1  7  4  0
  2 21  4  0
  2 27  4  0
  3  9  4  0
  3 10  4  0
  4  8  4  0
  4 18  4  0
  4 25  1  0
  5  9  4  0
  5 12  4  0
  6 13  1  0
  6 27  1  0
  7 28  4  0
  8 11  4  0
  9 29  4  0
 10 12  4  0
 11 24  1  0
 11 26  4  0
 12 25  1  0
 13 28  1  0
 14 20  4  0
 14 23  4  0
 15 17  4  0
 15 21  4  0
 16 19  4  0
 16 23  4  0
 17 22  4  0
 18 26  4  0
 19 24  4  0
 20 24  4  0
 22 27  4  0
 28 29  4  0
M  END
$$$$

 Created by Python create_sdf_string function

 29 33  0  0  0  0  0  0  0  0999 V2000
   10.7215   -3.3326   17.6437 C   0  0  0  0  0  0  0  0  0  0  0  0
    9.9489   -3.4675   24.6487 N   0  0  0  0  0  0  0  0  0  0  0  0
   10.0172   -4.4740   17.4101 C   0  0  0  0  0  0  0  0  0  0  0  0
    6.9051   -7.9575   16.4222 C   0  0  0  0  0  0  0  0  0  0  0  0
    8.9969   -6.3552   17.9668 N   0  0  0  0  0  0  0  0  0  0  0  0
   10.6702   -3.9051   22.4070 C   0  0  0  0  0  0  0  0  0  0  0  0
   11.0625   -3.0028   18.8894 C   0  0  0  0  0  0  0  0  0  0  0  0
    5.6180   -7.9194   16.1754 O   0  0  0  0  0  0  0  0  0  0  0  0
    9.7259   -5.3080   18.4485 C   0  0  0  0  0  0  0  0  0  0  0  0
    9.4578   -5.0200   16.3036 N   0  0  0  0  0  0  0  0  0  0  0  0
    5.0287   -8.9365   16.8223 C   0  0  0  0  0  0  0  0  0  0  0  0
    8.7742   -6.1498   16.6764 C   0  0  0  0  0  0  0  0  0  0  0  0
   10.9418   -3.4032   21.2053 O   0  0  0  0  0  0  0  0  0  0  0  0
    1.4797   -8.6258   16.2950 C   0  0  0  0  0  0  0  0  0  0  0  0
    9.2861   -1.2743   25.3585 C   0  0  0  0  0  0  0  0  0  0  0  0
    1.8892  -10.3985   17.7511 N   0  0  0  0  0  0  0  0  0  0  0  0
    9.6210   -0.6952   24.0976 C   0  0  0  0  0  0  0  0  0  0  0  0
    7.0792   -9.0217   17.1429 C   0  0  0  0  0  0  0  0  0  0  0  0
    3.1713  -10.1816   17.6634 C   0  0  0  0  0  0  0  0  0  0  0  0
    2.7878   -8.3822   16.2137 C   0  0  0  0  0  0  0  0  0  0  0  0
    9.4601   -2.6590   25.6528 C   0  0  0  0  0  0  0  0  0  0  0  0
   10.1182   -1.5672   23.1165 C   0  0  0  0  0  0  0  0  0  0  0  0
    1.0552   -9.6360   17.0650 C   0  0  0  0  0  0  0  0  0  0  0  0
    3.6519   -9.1783   16.9039 C   0  0  0  0  0  0  0  0  0  0  0  0
    7.8675   -7.0096   15.9415 C   0  0  0  0  0  0  0  0  0  0  0  0
    5.9733   -9.6553   17.3832 N   0  0  0  0  0  0  0  0  0  0  0  0
   10.2411   -2.9363   23.4301 C   0  0  0  0  0  0  0  0  0  0  0  0
   10.7288   -3.8197   19.9525 C   0  0  0  0  0  0  0  0  0  0  0  0
   10.1189   -5.0054   19.6987 C   0  0  0  0  0  0  0  0  0  0  0  0
  1  3  4  0
  1  7  4  0
  2 21  4  0
  2 27  4  0
  3  9  4  0
  3 10  4  0
  4  8  4  0
  4 18  4  0
  4 25  1  0
  5  9  4  0
  5 12  4  0
  6 13  1  0
  6 27  1  0
  7 28  4  0
  8 11  4  0
  9 29  4  0
 10 12  4  0
 11 24  1  0
 11 26  4  0
 12 25  1  0
 13 28  1  0
 14 20  4  0
 14 23  4  0
 15 17  4  0
 15 21  4  0
 16 19  4  0
 16 23  4  0
 17 22  4  0
 18 26  4  0
 19 24  4  0
 20 24  4  0
 22 27  4  0
 28 29  4  0
M  END
$$$$

 Created by Python create_sdf_string function

 29 33  0  0  0  0  0  0  0  0999 V2000
   10.7215   -3.3326   17.6437 C   0  0  0  0  0  0  0  0  0  0  0  0
    9.9489   -3.4675   24.6487 N   0  0  0  0  0  0  0  0  0  0  0  0
   10.0172   -4.4740   17.4101 C   0  0  0  0  0  0  0  0  0  0  0  0
    6.9051   -7.9575   16.4222 C   0  0  0  0  0  0  0  0  0  0  0  0
    8.9969   -6.3552   17.9668 N   0  0  0  0  0  0  0  0  0  0  0  0
   10.6702   -3.9051   22.4070 C   0  0  0  0  0  0  0  0  0  0  0  0
   11.0625   -3.0028   18.8894 C   0  0  0  0  0  0  0  0  0  0  0  0
    5.6180   -7.9194   16.1754 O   0  0  0  0  0  0  0  0  0  0  0  0
    9.7259   -5.3080   18.4485 C   0  0  0  0  0  0  0  0  0  0  0  0
    9.4578   -5.0200   16.3036 N   0  0  0  0  0  0  0  0  0  0  0  0
    5.0287   -8.9365   16.8223 C   0  0  0  0  0  0  0  0  0  0  0  0
    8.7742   -6.1498   16.6764 C   0  0  0  0  0  0  0  0  0  0  0  0
   10.9418   -3.4032   21.2053 O   0  0  0  0  0  0  0  0  0  0  0  0
    1.4797   -8.6258   16.2950 C   0  0  0  0  0  0  0  0  0  0  0  0
    9.2861   -1.2743   25.3585 C   0  0  0  0  0  0  0  0  0  0  0  0
    1.8892  -10.3985   17.7511 N   0  0  0  0  0  0  0  0  0  0  0  0
    9.6210   -0.6952   24.0976 C   0  0  0  0  0  0  0  0  0  0  0  0
    7.0792   -9.0217   17.1429 C   0  0  0  0  0  0  0  0  0  0  0  0
    3.1713  -10.1816   17.6634 C   0  0  0  0  0  0  0  0  0  0  0  0
    2.7878   -8.3822   16.2137 C   0  0  0  0  0  0  0  0  0  0  0  0
    9.4601   -2.6590   25.6528 C   0  0  0  0  0  0  0  0  0  0  0  0
   10.1182   -1.5672   23.1165 C   0  0  0  0  0  0  0  0  0  0  0  0
    1.0552   -9.6360   17.0650 C   0  0  0  0  0  0  0  0  0  0  0  0
    3.6519   -9.1783   16.9039 C   0  0  0  0  0  0  0  0  0  0  0  0
    7.8675   -7.0096   15.9415 C   0  0  0  0  0  0  0  0  0  0  0  0
    5.9733   -9.6553   17.3832 N   0  0  0  0  0  0  0  0  0  0  0  0
   10.2411   -2.9363   23.4301 C   0  0  0  0  0  0  0  0  0  0  0  0
   10.7288   -3.8197   19.9525 C   0  0  0  0  0  0  0  0  0  0  0  0
   10.1189   -5.0054   19.6987 C   0  0  0  0  0  0  0  0  0  0  0  0
  1  3  4  0
  1  7  4  0
  2 21  4  0
  2 27  4  0
  3  9  4  0
  3 10  4  0
  4  8  4  0
  4 18  4  0
  4 25  1  0
  5  9  4  0
  5 12  4  0
  6 13  1  0
  6 27  1  0
  7 28  4  0
  8 11  4  0
  9 29  4  0
 10 12  4  0
 11 24  1  0
 11 26  4  0
 12 25  1  0
 13 28  1  0
 14 20  4  0
 14 23  4  0
 15 17  4  0
 15 21  4  0
 16 19  4  0
 16 23  4  0
 17 22  4  0
 18 26  4  0
 19 24  4  0
 20 24  4  0
 22 27  4  0
 28 29  4  0
M  END
$$$$

 Created by Python create_sdf_string function

 29 33  0  0  0  0  0  0  0  0999 V2000
   10.7215   -3.3326   17.6437 C   0  0  0  0  0  0  0  0  0  0  0  0
    9.9489   -3.4675   24.6487 N   0  0  0  0  0  0  0  0  0  0  0  0
   10.0172   -4.4740   17.4101 C   0  0  0  0  0  0  0  0  0  0  0  0
    6.9051   -7.9575   16.4222 C   0  0  0  0  0  0  0  0  0  0  0  0
    8.9969   -6.3552   17.9668 N   0  0  0  0  0  0  0  0  0  0  0  0
   10.6702   -3.9051   22.4070 C   0  0  0  0  0  0  0  0  0  0  0  0
   11.0625   -3.0028   18.8894 C   0  0  0  0  0  0  0  0  0  0  0  0
    5.6180   -7.9194   16.1754 O   0  0  0  0  0  0  0  0  0  0  0  0
    9.7259   -5.3080   18.4485 C   0  0  0  0  0  0  0  0  0  0  0  0
    9.4578   -5.0200   16.3036 N   0  0  0  0  0  0  0  0  0  0  0  0
    5.0287   -8.9365   16.8223 C   0  0  0  0  0  0  0  0  0  0  0  0
    8.7742   -6.1498   16.6764 C   0  0  0  0  0  0  0  0  0  0  0  0
   10.9418   -3.4032   21.2053 O   0  0  0  0  0  0  0  0  0  0  0  0
    1.4797   -8.6258   16.2950 C   0  0  0  0  0  0  0  0  0  0  0  0
    9.2861   -1.2743   25.3585 C   0  0  0  0  0  0  0  0  0  0  0  0
    1.8892  -10.3985   17.7511 N   0  0  0  0  0  0  0  0  0  0  0  0
    9.6210   -0.6952   24.0976 C   0  0  0  0  0  0  0  0  0  0  0  0
    7.0792   -9.0217   17.1429 C   0  0  0  0  0  0  0  0  0  0  0  0
    3.1713  -10.1816   17.6634 C   0  0  0  0  0  0  0  0  0  0  0  0
    2.7878   -8.3822   16.2137 C   0  0  0  0  0  0  0  0  0  0  0  0
    9.4601   -2.6590   25.6528 C   0  0  0  0  0  0  0  0  0  0  0  0
   10.1182   -1.5672   23.1165 C   0  0  0  0  0  0  0  0  0  0  0  0
    1.0552   -9.6360   17.0650 C   0  0  0  0  0  0  0  0  0  0  0  0
    3.6519   -9.1783   16.9039 C   0  0  0  0  0  0  0  0  0  0  0  0
    7.8675   -7.0096   15.9415 C   0  0  0  0  0  0  0  0  0  0  0  0
    5.9733   -9.6553   17.3832 N   0  0  0  0  0  0  0  0  0  0  0  0
   10.2411   -2.9363   23.4301 C   0  0  0  0  0  0  0  0  0  0  0  0
   10.7288   -3.8197   19.9525 C   0  0  0  0  0  0  0  0  0  0  0  0
   10.1189   -5.0054   19.6987 C   0  0  0  0  0  0  0  0  0  0  0  0
  1  3  4  0
  1  7  4  0
  2 21  4  0
  2 27  4  0
  3  9  4  0
  3 10  4  0
  4  8  4  0
  4 18  4  0
  4 25  1  0
  5  9  4  0
  5 12  4  0
  6 13  1  0
  6 27  1  0
  7 28  4  0
  8 11  4  0
  9 29  4  0
 10 12  4  0
 11 24  1  0
 11 26  4  0
 12 25  1  0
 13 28  1  0
 14 20  4  0
 14 23  4  0
 15 17  4  0
 15 21  4  0
 16 19  4  0
 16 23  4  0
 17 22  4  0
 18 26  4  0
 19 24  4  0
 20 24  4  0
 22 27  4  0
 28 29  4  0
M  END
$$$$

 Created by Python create_sdf_string function

 29 33  0  0  0  0  0  0  0  0999 V2000
   10.7215   -3.3326   17.6437 C   0  0  0  0  0  0  0  0  0  0  0  0
    9.9489   -3.4675   24.6487 N   0  0  0  0  0  0  0  0  0  0  0  0
   10.0172   -4.4740   17.4101 C   0  0  0  0  0  0  0  0  0  0  0  0
    6.9051   -7.9575   16.4222 C   0  0  0  0  0  0  0  0  0  0  0  0
    8.9969   -6.3552   17.9668 N   0  0  0  0  0  0  0  0  0  0  0  0
   10.6702   -3.9051   22.4070 C   0  0  0  0  0  0  0  0  0  0  0  0
   11.0625   -3.0028   18.8894 C   0  0  0  0  0  0  0  0  0  0  0  0
    5.6180   -7.9194   16.1754 O   0  0  0  0  0  0  0  0  0  0  0  0
    9.7259   -5.3080   18.4485 C   0  0  0  0  0  0  0  0  0  0  0  0
    9.4578   -5.0200   16.3036 N   0  0  0  0  0  0  0  0  0  0  0  0
    5.0287   -8.9365   16.8223 C   0  0  0  0  0  0  0  0  0  0  0  0
    8.7742   -6.1498   16.6764 C   0  0  0  0  0  0  0  0  0  0  0  0
   10.9418   -3.4032   21.2053 O   0  0  0  0  0  0  0  0  0  0  0  0
    1.4797   -8.6258   16.2950 C   0  0  0  0  0  0  0  0  0  0  0  0
    9.2861   -1.2743   25.3585 C   0  0  0  0  0  0  0  0  0  0  0  0
    1.8892  -10.3985   17.7511 N   0  0  0  0  0  0  0  0  0  0  0  0
    9.6210   -0.6952   24.0976 C   0  0  0  0  0  0  0  0  0  0  0  0
    7.0792   -9.0217   17.1429 C   0  0  0  0  0  0  0  0  0  0  0  0
    3.1713  -10.1816   17.6634 C   0  0  0  0  0  0  0  0  0  0  0  0
    2.7878   -8.3822   16.2137 C   0  0  0  0  0  0  0  0  0  0  0  0
    9.4601   -2.6590   25.6528 C   0  0  0  0  0  0  0  0  0  0  0  0
   10.1182   -1.5672   23.1165 C   0  0  0  0  0  0  0  0  0  0  0  0
    1.0552   -9.6360   17.0650 C   0  0  0  0  0  0  0  0  0  0  0  0
    3.6519   -9.1783   16.9039 C   0  0  0  0  0  0  0  0  0  0  0  0
    7.8675   -7.0096   15.9415 C   0  0  0  0  0  0  0  0  0  0  0  0
    5.9733   -9.6553   17.3832 N   0  0  0  0  0  0  0  0  0  0  0  0
   10.2411   -2.9363   23.4301 C   0  0  0  0  0  0  0  0  0  0  0  0
   10.7288   -3.8197   19.9525 C   0  0  0  0  0  0  0  0  0  0  0  0
   10.1189   -5.0054   19.6987 C   0  0  0  0  0  0  0  0  0  0  0  0
  1  3  4  0
  1  7  4  0
  2 21  4  0
  2 27  4  0
  3  9  4  0
  3 10  4  0
  4  8  4  0
  4 18  4  0
  4 25  1  0
  5  9  4  0
  5 12  4  0
  6 13  1  0
  6 27  1  0
  7 28  4  0
  8 11  4  0
  9 29  4  0
 10 12  4  0
 11 24  1  0
 11 26  4  0
 12 25  1  0
 13 28  1  0
 14 20  4  0
 14 23  4  0
 15 17  4  0
 15 21  4  0
 16 19  4  0
 16 23  4  0
 17 22  4  0
 18 26  4  0
 19 24  4  0
 20 24  4  0
 22 27  4  0
 28 29  4  0
M  END
$$$$

 Created by Python create_sdf_string function

 29 33  0  0  0  0  0  0  0  0999 V2000
   10.7215   -3.3326   17.6437 C   0  0  0  0  0  0  0  0  0  0  0  0
    9.9489   -3.4675   24.6487 N   0  0  0  0  0  0  0  0  0  0  0  0
   10.0172   -4.4740   17.4101 C   0  0  0  0  0  0  0  0  0  0  0  0
    6.9051   -7.9575   16.4222 C   0  0  0  0  0  0  0  0  0  0  0  0
    8.9969   -6.3552   17.9668 N   0  0  0  0  0  0  0  0  0  0  0  0
   10.6702   -3.9051   22.4070 C   0  0  0  0  0  0  0  0  0  0  0  0
   11.0625   -3.0028   18.8894 C   0  0  0  0  0  0  0  0  0  0  0  0
    5.6180   -7.9194   16.1754 O   0  0  0  0  0  0  0  0  0  0  0  0
    9.7259   -5.3080   18.4485 C   0  0  0  0  0  0  0  0  0  0  0  0
    9.4578   -5.0200   16.3036 N   0  0  0  0  0  0  0  0  0  0  0  0
    5.0287   -8.9365   16.8223 C   0  0  0  0  0  0  0  0  0  0  0  0
    8.7742   -6.1498   16.6764 C   0  0  0  0  0  0  0  0  0  0  0  0
   10.9418   -3.4032   21.2053 O   0  0  0  0  0  0  0  0  0  0  0  0
    1.4797   -8.6258   16.2950 C   0  0  0  0  0  0  0  0  0  0  0  0
    9.2861   -1.2743   25.3585 C   0  0  0  0  0  0  0  0  0  0  0  0
    1.8892  -10.3985   17.7511 N   0  0  0  0  0  0  0  0  0  0  0  0
    9.6210   -0.6952   24.0976 C   0  0  0  0  0  0  0  0  0  0  0  0
    7.0792   -9.0217   17.1429 C   0  0  0  0  0  0  0  0  0  0  0  0
    3.1713  -10.1816   17.6634 C   0  0  0  0  0  0  0  0  0  0  0  0
    2.7878   -8.3822   16.2137 C   0  0  0  0  0  0  0  0  0  0  0  0
    9.4601   -2.6590   25.6528 C   0  0  0  0  0  0  0  0  0  0  0  0
   10.1182   -1.5672   23.1165 C   0  0  0  0  0  0  0  0  0  0  0  0
    1.0552   -9.6360   17.0650 C   0  0  0  0  0  0  0  0  0  0  0  0
    3.6519   -9.1783   16.9039 C   0  0  0  0  0  0  0  0  0  0  0  0
    7.8675   -7.0096   15.9415 C   0  0  0  0  0  0  0  0  0  0  0  0
    5.9733   -9.6553   17.3832 N   0  0  0  0  0  0  0  0  0  0  0  0
   10.2411   -2.9363   23.4301 C   0  0  0  0  0  0  0  0  0  0  0  0
   10.7288   -3.8197   19.9525 C   0  0  0  0  0  0  0  0  0  0  0  0
   10.1189   -5.0054   19.6987 C   0  0  0  0  0  0  0  0  0  0  0  0
  1  3  4  0
  1  7  4  0
  2 21  4  0
  2 27  4  0
  3  9  4  0
  3 10  4  0
  4  8  4  0
  4 18  4  0
  4 25  1  0
  5  9  4  0
  5 12  4  0
  6 13  1  0
  6 27  1  0
  7 28  4  0
  8 11  4  0
  9 29  4  0
 10 12  4  0
 11 24  1  0
 11 26  4  0
 12 25  1  0
 13 28  1  0
 14 20  4  0
 14 23  4  0
 15 17  4  0
 15 21  4  0
 16 19  4  0
 16 23  4  0
 17 22  4  0
 18 26  4  0
 19 24  4  0
 20 24  4  0
 22 27  4  0
 28 29  4  0
M  END
$$$$

 Created by Python create_sdf_string function

 29 33  0  0  0  0  0  0  0  0999 V2000
   10.7215   -3.3326   17.6437 C   0  0  0  0  0  0  0  0  0  0  0  0
    9.9489   -3.4675   24.6487 N   0  0  0  0  0  0  0  0  0  0  0  0
   10.0172   -4.4740   17.4101 C   0  0  0  0  0  0  0  0  0  0  0  0
    6.9051   -7.9575   16.4222 C   0  0  0  0  0  0  0  0  0  0  0  0
    8.9969   -6.3552   17.9668 N   0  0  0  0  0  0  0  0  0  0  0  0
   10.6702   -3.9051   22.4070 C   0  0  0  0  0  0  0  0  0  0  0  0
   11.0625   -3.0028   18.8894 C   0  0  0  0  0  0  0  0  0  0  0  0
    5.6180   -7.9194   16.1754 O   0  0  0  0  0  0  0  0  0  0  0  0
    9.7259   -5.3080   18.4485 C   0  0  0  0  0  0  0  0  0  0  0  0
    9.4578   -5.0200   16.3036 N   0  0  0  0  0  0  0  0  0  0  0  0
    5.0287   -8.9365   16.8223 C   0  0  0  0  0  0  0  0  0  0  0  0
    8.7742   -6.1498   16.6764 C   0  0  0  0  0  0  0  0  0  0  0  0
   10.9418   -3.4032   21.2053 O   0  0  0  0  0  0  0  0  0  0  0  0
    1.4797   -8.6258   16.2950 C   0  0  0  0  0  0  0  0  0  0  0  0
    9.2861   -1.2743   25.3585 C   0  0  0  0  0  0  0  0  0  0  0  0
    1.8892  -10.3985   17.7511 N   0  0  0  0  0  0  0  0  0  0  0  0
    9.6210   -0.6952   24.0976 C   0  0  0  0  0  0  0  0  0  0  0  0
    7.0792   -9.0217   17.1429 C   0  0  0  0  0  0  0  0  0  0  0  0
    3.1713  -10.1816   17.6634 C   0  0  0  0  0  0  0  0  0  0  0  0
    2.7878   -8.3822   16.2137 C   0  0  0  0  0  0  0  0  0  0  0  0
    9.4601   -2.6590   25.6528 C   0  0  0  0  0  0  0  0  0  0  0  0
   10.1182   -1.5672   23.1165 C   0  0  0  0  0  0  0  0  0  0  0  0
    1.0552   -9.6360   17.0650 C   0  0  0  0  0  0  0  0  0  0  0  0
    3.6519   -9.1783   16.9039 C   0  0  0  0  0  0  0  0  0  0  0  0
    7.8675   -7.0096   15.9415 C   0  0  0  0  0  0  0  0  0  0  0  0
    5.9733   -9.6553   17.3832 N   0  0  0  0  0  0  0  0  0  0  0  0
   10.2411   -2.9363   23.4301 C   0  0  0  0  0  0  0  0  0  0  0  0
   10.7288   -3.8197   19.9525 C   0  0  0  0  0  0  0  0  0  0  0  0
   10.1189   -5.0054   19.6987 C   0  0  0  0  0  0  0  0  0  0  0  0
  1  3  4  0
  1  7  4  0
  2 21  4  0
  2 27  4  0
  3  9  4  0
  3 10  4  0
  4  8  4  0
  4 18  4  0
  4 25  1  0
  5  9  4  0
  5 12  4  0
  6 13  1  0
  6 27  1  0
  7 28  4  0
  8 11  4  0
  9 29  4  0
 10 12  4  0
 11 24  1  0
 11 26  4  0
 12 25  1  0
 13 28  1  0
 14 20  4  0
 14 23  4  0
 15 17  4  0
 15 21  4  0
 16 19  4  0
 16 23  4  0
 17 22  4  0
 18 26  4  0
 19 24  4  0
 20 24  4  0
 22 27  4  0
 28 29  4  0
M  END
$$$$

 Created by Python create_sdf_string function

 29 33  0  0  0  0  0  0  0  0999 V2000
   10.7215   -3.3326   17.6437 C   0  0  0  0  0  0  0  0  0  0  0  0
    9.9489   -3.4675   24.6487 N   0  0  0  0  0  0  0  0  0  0  0  0
   10.0172   -4.4740   17.4101 C   0  0  0  0  0  0  0  0  0  0  0  0
    6.9051   -7.9575   16.4222 C   0  0  0  0  0  0  0  0  0  0  0  0
    8.9969   -6.3552   17.9668 N   0  0  0  0  0  0  0  0  0  0  0  0
   10.6702   -3.9051   22.4070 C   0  0  0  0  0  0  0  0  0  0  0  0
   11.0625   -3.0028   18.8894 C   0  0  0  0  0  0  0  0  0  0  0  0
    5.6180   -7.9194   16.1754 O   0  0  0  0  0  0  0  0  0  0  0  0
    9.7259   -5.3080   18.4485 C   0  0  0  0  0  0  0  0  0  0  0  0
    9.4578   -5.0200   16.3036 N   0  0  0  0  0  0  0  0  0  0  0  0
    5.0287   -8.9365   16.8223 C   0  0  0  0  0  0  0  0  0  0  0  0
    8.7742   -6.1498   16.6764 C   0  0  0  0  0  0  0  0  0  0  0  0
   10.9418   -3.4032   21.2053 O   0  0  0  0  0  0  0  0  0  0  0  0
    1.4797   -8.6258   16.2950 C   0  0  0  0  0  0  0  0  0  0  0  0
    9.2861   -1.2743   25.3585 C   0  0  0  0  0  0  0  0  0  0  0  0
    1.8892  -10.3985   17.7511 N   0  0  0  0  0  0  0  0  0  0  0  0
    9.6210   -0.6952   24.0976 C   0  0  0  0  0  0  0  0  0  0  0  0
    7.0792   -9.0217   17.1429 C   0  0  0  0  0  0  0  0  0  0  0  0
    3.1713  -10.1816   17.6634 C   0  0  0  0  0  0  0  0  0  0  0  0
    2.7878   -8.3822   16.2137 C   0  0  0  0  0  0  0  0  0  0  0  0
    9.4601   -2.6590   25.6528 C   0  0  0  0  0  0  0  0  0  0  0  0
   10.1182   -1.5672   23.1165 C   0  0  0  0  0  0  0  0  0  0  0  0
    1.0552   -9.6360   17.0650 C   0  0  0  0  0  0  0  0  0  0  0  0
    3.6519   -9.1783   16.9039 C   0  0  0  0  0  0  0  0  0  0  0  0
    7.8675   -7.0096   15.9415 C   0  0  0  0  0  0  0  0  0  0  0  0
    5.9733   -9.6553   17.3832 N   0  0  0  0  0  0  0  0  0  0  0  0
   10.2411   -2.9363   23.4301 C   0  0  0  0  0  0  0  0  0  0  0  0
   10.7288   -3.8197   19.9525 C   0  0  0  0  0  0  0  0  0  0  0  0
   10.1189   -5.0054   19.6987 C   0  0  0  0  0  0  0  0  0  0  0  0
  1  3  4  0
  1  7  4  0
  2 21  4  0
  2 27  4  0
  3  9  4  0
  3 10  4  0
  4  8  4  0
  4 18  4  0
  4 25  1  0
  5  9  4  0
  5 12  4  0
  6 13  1  0
  6 27  1  0
  7 28  4  0
  8 11  4  0
  9 29  4  0
 10 12  4  0
 11 24  1  0
 11 26  4  0
 12 25  1  0
 13 28  1  0
 14 20  4  0
 14 23  4  0
 15 17  4  0
 15 21  4  0
 16 19  4  0
 16 23  4  0
 17 22  4  0
 18 26  4  0
 19 24  4  0
 20 24  4  0
 22 27  4  0
 28 29  4  0
M  END
$$$$

 Created by Python create_sdf_string function

 29 33  0  0  0  0  0  0  0  0999 V2000
   10.7215   -3.3326   17.6437 C   0  0  0  0  0  0  0  0  0  0  0  0
    9.9489   -3.4675   24.6487 N   0  0  0  0  0  0  0  0  0  0  0  0
   10.0172   -4.4740   17.4101 C   0  0  0  0  0  0  0  0  0  0  0  0
    6.9051   -7.9575   16.4222 C   0  0  0  0  0  0  0  0  0  0  0  0
    8.9969   -6.3552   17.9668 N   0  0  0  0  0  0  0  0  0  0  0  0
   10.6702   -3.9051   22.4070 C   0  0  0  0  0  0  0  0  0  0  0  0
   11.0625   -3.0028   18.8894 C   0  0  0  0  0  0  0  0  0  0  0  0
    5.6180   -7.9194   16.1754 O   0  0  0  0  0  0  0  0  0  0  0  0
    9.7259   -5.3080   18.4485 C   0  0  0  0  0  0  0  0  0  0  0  0
    9.4578   -5.0200   16.3036 N   0  0  0  0  0  0  0  0  0  0  0  0
    5.0287   -8.9365   16.8223 C   0  0  0  0  0  0  0  0  0  0  0  0
    8.7742   -6.1498   16.6764 C   0  0  0  0  0  0  0  0  0  0  0  0
   10.9418   -3.4032   21.2053 O   0  0  0  0  0  0  0  0  0  0  0  0
    1.4797   -8.6258   16.2950 C   0  0  0  0  0  0  0  0  0  0  0  0
    9.2861   -1.2743   25.3585 C   0  0  0  0  0  0  0  0  0  0  0  0
    1.8892  -10.3985   17.7511 N   0  0  0  0  0  0  0  0  0  0  0  0
    9.6210   -0.6952   24.0976 C   0  0  0  0  0  0  0  0  0  0  0  0
    7.0792   -9.0217   17.1429 C   0  0  0  0  0  0  0  0  0  0  0  0
    3.1713  -10.1816   17.6634 C   0  0  0  0  0  0  0  0  0  0  0  0
    2.7878   -8.3822   16.2137 C   0  0  0  0  0  0  0  0  0  0  0  0
    9.4601   -2.6590   25.6528 C   0  0  0  0  0  0  0  0  0  0  0  0
   10.1182   -1.5672   23.1165 C   0  0  0  0  0  0  0  0  0  0  0  0
    1.0552   -9.6360   17.0650 C   0  0  0  0  0  0  0  0  0  0  0  0
    3.6519   -9.1783   16.9039 C   0  0  0  0  0  0  0  0  0  0  0  0
    7.8675   -7.0096   15.9415 C   0  0  0  0  0  0  0  0  0  0  0  0
    5.9733   -9.6553   17.3832 N   0  0  0  0  0  0  0  0  0  0  0  0
   10.2411   -2.9363   23.4301 C   0  0  0  0  0  0  0  0  0  0  0  0
   10.7288   -3.8197   19.9525 C   0  0  0  0  0  0  0  0  0  0  0  0
   10.1189   -5.0054   19.6987 C   0  0  0  0  0  0  0  0  0  0  0  0
  1  3  4  0
  1  7  4  0
  2 21  4  0
  2 27  4  0
  3  9  4  0
  3 10  4  0
  4  8  4  0
  4 18  4  0
  4 25  1  0
  5  9  4  0
  5 12  4  0
  6 13  1  0
  6 27  1  0
  7 28  4  0
  8 11  4  0
  9 29  4  0
 10 12  4  0
 11 24  1  0
 11 26  4  0
 12 25  1  0
 13 28  1  0
 14 20  4  0
 14 23  4  0
 15 17  4  0
 15 21  4  0
 16 19  4  0
 16 23  4  0
 17 22  4  0
 18 26  4  0
 19 24  4  0
 20 24  4  0
 22 27  4  0
 28 29  4  0
M  END
$$$$

 Created by Python create_sdf_string function

 29 33  0  0  0  0  0  0  0  0999 V2000
   10.7215   -3.3326   17.6437 C   0  0  0  0  0  0  0  0  0  0  0  0
    9.9489   -3.4675   24.6487 N   0  0  0  0  0  0  0  0  0  0  0  0
   10.0172   -4.4740   17.4101 C   0  0  0  0  0  0  0  0  0  0  0  0
    6.9051   -7.9575   16.4222 C   0  0  0  0  0  0  0  0  0  0  0  0
    8.9969   -6.3552   17.9668 N   0  0  0  0  0  0  0  0  0  0  0  0
   10.6702   -3.9051   22.4070 C   0  0  0  0  0  0  0  0  0  0  0  0
   11.0625   -3.0028   18.8894 C   0  0  0  0  0  0  0  0  0  0  0  0
    5.6180   -7.9194   16.1754 O   0  0  0  0  0  0  0  0  0  0  0  0
    9.7259   -5.3080   18.4485 C   0  0  0  0  0  0  0  0  0  0  0  0
    9.4578   -5.0200   16.3036 N   0  0  0  0  0  0  0  0  0  0  0  0
    5.0287   -8.9365   16.8223 C   0  0  0  0  0  0  0  0  0  0  0  0
    8.7742   -6.1498   16.6764 C   0  0  0  0  0  0  0  0  0  0  0  0
   10.9418   -3.4032   21.2053 O   0  0  0  0  0  0  0  0  0  0  0  0
    1.4797   -8.6258   16.2950 C   0  0  0  0  0  0  0  0  0  0  0  0
    9.2861   -1.2743   25.3585 C   0  0  0  0  0  0  0  0  0  0  0  0
    1.8892  -10.3985   17.7511 N   0  0  0  0  0  0  0  0  0  0  0  0
    9.6210   -0.6952   24.0976 C   0  0  0  0  0  0  0  0  0  0  0  0
    7.0792   -9.0217   17.1429 C   0  0  0  0  0  0  0  0  0  0  0  0
    3.1713  -10.1816   17.6634 C   0  0  0  0  0  0  0  0  0  0  0  0
    2.7878   -8.3822   16.2137 C   0  0  0  0  0  0  0  0  0  0  0  0
    9.4601   -2.6590   25.6528 C   0  0  0  0  0  0  0  0  0  0  0  0
   10.1182   -1.5672   23.1165 C   0  0  0  0  0  0  0  0  0  0  0  0
    1.0552   -9.6360   17.0650 C   0  0  0  0  0  0  0  0  0  0  0  0
    3.6519   -9.1783   16.9039 C   0  0  0  0  0  0  0  0  0  0  0  0
    7.8675   -7.0096   15.9415 C   0  0  0  0  0  0  0  0  0  0  0  0
    5.9733   -9.6553   17.3832 N   0  0  0  0  0  0  0  0  0  0  0  0
   10.2411   -2.9363   23.4301 C   0  0  0  0  0  0  0  0  0  0  0  0
   10.7288   -3.8197   19.9525 C   0  0  0  0  0  0  0  0  0  0  0  0
   10.1189   -5.0054   19.6987 C   0  0  0  0  0  0  0  0  0  0  0  0
  1  3  4  0
  1  7  4  0
  2 21  4  0
  2 27  4  0
  3  9  4  0
  3 10  4  0
  4  8  4  0
  4 18  4  0
  4 25  1  0
  5  9  4  0
  5 12  4  0
  6 13  1  0
  6 27  1  0
  7 28  4  0
  8 11  4  0
  9 29  4  0
 10 12  4  0
 11 24  1  0
 11 26  4  0
 12 25  1  0
 13 28  1  0
 14 20  4  0
 14 23  4  0
 15 17  4  0
 15 21  4  0
 16 19  4  0
 16 23  4  0
 17 22  4  0
 18 26  4  0
 19 24  4  0
 20 24  4  0
 22 27  4  0
 28 29  4  0
M  END
$$$$

 Created by Python create_sdf_string function

 29 33  0  0  0  0  0  0  0  0999 V2000
   10.7215   -3.3326   17.6437 C   0  0  0  0  0  0  0  0  0  0  0  0
    9.9489   -3.4675   24.6487 N   0  0  0  0  0  0  0  0  0  0  0  0
   10.0172   -4.4740   17.4101 C   0  0  0  0  0  0  0  0  0  0  0  0
    6.9051   -7.9575   16.4222 C   0  0  0  0  0  0  0  0  0  0  0  0
    8.9969   -6.3552   17.9668 N   0  0  0  0  0  0  0  0  0  0  0  0
   10.6702   -3.9051   22.4070 C   0  0  0  0  0  0  0  0  0  0  0  0
   11.0625   -3.0028   18.8894 C   0  0  0  0  0  0  0  0  0  0  0  0
    5.6180   -7.9194   16.1754 O   0  0  0  0  0  0  0  0  0  0  0  0
    9.7259   -5.3080   18.4485 C   0  0  0  0  0  0  0  0  0  0  0  0
    9.4578   -5.0200   16.3036 N   0  0  0  0  0  0  0  0  0  0  0  0
    5.0287   -8.9365   16.8223 C   0  0  0  0  0  0  0  0  0  0  0  0
    8.7742   -6.1498   16.6764 C   0  0  0  0  0  0  0  0  0  0  0  0
   10.9418   -3.4032   21.2053 O   0  0  0  0  0  0  0  0  0  0  0  0
    1.4797   -8.6258   16.2950 C   0  0  0  0  0  0  0  0  0  0  0  0
    9.2861   -1.2743   25.3585 C   0  0  0  0  0  0  0  0  0  0  0  0
    1.8892  -10.3985   17.7511 N   0  0  0  0  0  0  0  0  0  0  0  0
    9.6210   -0.6952   24.0976 C   0  0  0  0  0  0  0  0  0  0  0  0
    7.0792   -9.0217   17.1429 C   0  0  0  0  0  0  0  0  0  0  0  0
    3.1713  -10.1816   17.6634 C   0  0  0  0  0  0  0  0  0  0  0  0
    2.7878   -8.3822   16.2137 C   0  0  0  0  0  0  0  0  0  0  0  0
    9.4601   -2.6590   25.6528 C   0  0  0  0  0  0  0  0  0  0  0  0
   10.1182   -1.5672   23.1165 C   0  0  0  0  0  0  0  0  0  0  0  0
    1.0552   -9.6360   17.0650 C   0  0  0  0  0  0  0  0  0  0  0  0
    3.6519   -9.1783   16.9039 C   0  0  0  0  0  0  0  0  0  0  0  0
    7.8675   -7.0096   15.9415 C   0  0  0  0  0  0  0  0  0  0  0  0
    5.9733   -9.6553   17.3832 N   0  0  0  0  0  0  0  0  0  0  0  0
   10.2411   -2.9363   23.4301 C   0  0  0  0  0  0  0  0  0  0  0  0
   10.7288   -3.8197   19.9525 C   0  0  0  0  0  0  0  0  0  0  0  0
   10.1189   -5.0054   19.6987 C   0  0  0  0  0  0  0  0  0  0  0  0
  1  3  4  0
  1  7  4  0
  2 21  4  0
  2 27  4  0
  3  9  4  0
  3 10  4  0
  4  8  4  0
  4 18  4  0
  4 25  1  0
  5  9  4  0
  5 12  4  0
  6 13  1  0
  6 27  1  0
  7 28  4  0
  8 11  4  0
  9 29  4  0
 10 12  4  0
 11 24  1  0
 11 26  4  0
 12 25  1  0
 13 28  1  0
 14 20  4  0
 14 23  4  0
 15 17  4  0
 15 21  4  0
 16 19  4  0
 16 23  4  0
 17 22  4  0
 18 26  4  0
 19 24  4  0
 20 24  4  0
 22 27  4  0
 28 29  4  0
M  END
$$$$

 Created by Python create_sdf_string function

 29 33  0  0  0  0  0  0  0  0999 V2000
   10.7215   -3.3326   17.6437 C   0  0  0  0  0  0  0  0  0  0  0  0
    9.9489   -3.4675   24.6487 N   0  0  0  0  0  0  0  0  0  0  0  0
   10.0172   -4.4740   17.4101 C   0  0  0  0  0  0  0  0  0  0  0  0
    6.9051   -7.9575   16.4222 C   0  0  0  0  0  0  0  0  0  0  0  0
    8.9969   -6.3552   17.9668 N   0  0  0  0  0  0  0  0  0  0  0  0
   10.6702   -3.9051   22.4070 C   0  0  0  0  0  0  0  0  0  0  0  0
   11.0625   -3.0028   18.8894 C   0  0  0  0  0  0  0  0  0  0  0  0
    5.6180   -7.9194   16.1754 O   0  0  0  0  0  0  0  0  0  0  0  0
    9.7259   -5.3080   18.4485 C   0  0  0  0  0  0  0  0  0  0  0  0
    9.4578   -5.0200   16.3036 N   0  0  0  0  0  0  0  0  0  0  0  0
    5.0287   -8.9365   16.8223 C   0  0  0  0  0  0  0  0  0  0  0  0
    8.7742   -6.1498   16.6764 C   0  0  0  0  0  0  0  0  0  0  0  0
   10.9418   -3.4032   21.2053 O   0  0  0  0  0  0  0  0  0  0  0  0
    1.4797   -8.6258   16.2950 C   0  0  0  0  0  0  0  0  0  0  0  0
    9.2861   -1.2743   25.3585 C   0  0  0  0  0  0  0  0  0  0  0  0
    1.8892  -10.3985   17.7511 N   0  0  0  0  0  0  0  0  0  0  0  0
    9.6210   -0.6952   24.0976 C   0  0  0  0  0  0  0  0  0  0  0  0
    7.0792   -9.0217   17.1429 C   0  0  0  0  0  0  0  0  0  0  0  0
    3.1713  -10.1816   17.6634 C   0  0  0  0  0  0  0  0  0  0  0  0
    2.7878   -8.3822   16.2137 C   0  0  0  0  0  0  0  0  0  0  0  0
    9.4601   -2.6590   25.6528 C   0  0  0  0  0  0  0  0  0  0  0  0
   10.1182   -1.5672   23.1165 C   0  0  0  0  0  0  0  0  0  0  0  0
    1.0552   -9.6360   17.0650 C   0  0  0  0  0  0  0  0  0  0  0  0
    3.6519   -9.1783   16.9039 C   0  0  0  0  0  0  0  0  0  0  0  0
    7.8675   -7.0096   15.9415 C   0  0  0  0  0  0  0  0  0  0  0  0
    5.9733   -9.6553   17.3832 N   0  0  0  0  0  0  0  0  0  0  0  0
   10.2411   -2.9363   23.4301 C   0  0  0  0  0  0  0  0  0  0  0  0
   10.7288   -3.8197   19.9525 C   0  0  0  0  0  0  0  0  0  0  0  0
   10.1189   -5.0054   19.6987 C   0  0  0  0  0  0  0  0  0  0  0  0
  1  3  4  0
  1  7  4  0
  2 21  4  0
  2 27  4  0
  3  9  4  0
  3 10  4  0
  4  8  4  0
  4 18  4  0
  4 25  1  0
  5  9  4  0
  5 12  4  0
  6 13  1  0
  6 27  1  0
  7 28  4  0
  8 11  4  0
  9 29  4  0
 10 12  4  0
 11 24  1  0
 11 26  4  0
 12 25  1  0
 13 28  1  0
 14 20  4  0
 14 23  4  0
 15 17  4  0
 15 21  4  0
 16 19  4  0
 16 23  4  0
 17 22  4  0
 18 26  4  0
 19 24  4  0
 20 24  4  0
 22 27  4  0
 28 29  4  0
M  END
$$$$

 Created by Python create_sdf_string function

 29 33  0  0  0  0  0  0  0  0999 V2000
   10.7215   -3.3326   17.6437 C   0  0  0  0  0  0  0  0  0  0  0  0
    9.9489   -3.4675   24.6487 N   0  0  0  0  0  0  0  0  0  0  0  0
   10.0172   -4.4740   17.4101 C   0  0  0  0  0  0  0  0  0  0  0  0
    6.9051   -7.9575   16.4222 C   0  0  0  0  0  0  0  0  0  0  0  0
    8.9969   -6.3552   17.9668 N   0  0  0  0  0  0  0  0  0  0  0  0
   10.6702   -3.9051   22.4070 C   0  0  0  0  0  0  0  0  0  0  0  0
   11.0625   -3.0028   18.8894 C   0  0  0  0  0  0  0  0  0  0  0  0
    5.6180   -7.9194   16.1754 O   0  0  0  0  0  0  0  0  0  0  0  0
    9.7259   -5.3080   18.4485 C   0  0  0  0  0  0  0  0  0  0  0  0
    9.4578   -5.0200   16.3036 N   0  0  0  0  0  0  0  0  0  0  0  0
    5.0287   -8.9365   16.8223 C   0  0  0  0  0  0  0  0  0  0  0  0
    8.7742   -6.1498   16.6764 C   0  0  0  0  0  0  0  0  0  0  0  0
   10.9418   -3.4032   21.2053 O   0  0  0  0  0  0  0  0  0  0  0  0
    1.4797   -8.6258   16.2950 C   0  0  0  0  0  0  0  0  0  0  0  0
    9.2861   -1.2743   25.3585 C   0  0  0  0  0  0  0  0  0  0  0  0
    1.8892  -10.3985   17.7511 N   0  0  0  0  0  0  0  0  0  0  0  0
    9.6210   -0.6952   24.0976 C   0  0  0  0  0  0  0  0  0  0  0  0
    7.0792   -9.0217   17.1429 C   0  0  0  0  0  0  0  0  0  0  0  0
    3.1713  -10.1816   17.6634 C   0  0  0  0  0  0  0  0  0  0  0  0
    2.7878   -8.3822   16.2137 C   0  0  0  0  0  0  0  0  0  0  0  0
    9.4601   -2.6590   25.6528 C   0  0  0  0  0  0  0  0  0  0  0  0
   10.1182   -1.5672   23.1165 C   0  0  0  0  0  0  0  0  0  0  0  0
    1.0552   -9.6360   17.0650 C   0  0  0  0  0  0  0  0  0  0  0  0
    3.6519   -9.1783   16.9039 C   0  0  0  0  0  0  0  0  0  0  0  0
    7.8675   -7.0096   15.9415 C   0  0  0  0  0  0  0  0  0  0  0  0
    5.9733   -9.6553   17.3832 N   0  0  0  0  0  0  0  0  0  0  0  0
   10.2411   -2.9363   23.4301 C   0  0  0  0  0  0  0  0  0  0  0  0
   10.7288   -3.8197   19.9525 C   0  0  0  0  0  0  0  0  0  0  0  0
   10.1189   -5.0054   19.6987 C   0  0  0  0  0  0  0  0  0  0  0  0
  1  3  4  0
  1  7  4  0
  2 21  4  0
  2 27  4  0
  3  9  4  0
  3 10  4  0
  4  8  4  0
  4 18  4  0
  4 25  1  0
  5  9  4  0
  5 12  4  0
  6 13  1  0
  6 27  1  0
  7 28  4  0
  8 11  4  0
  9 29  4  0
 10 12  4  0
 11 24  1  0
 11 26  4  0
 12 25  1  0
 13 28  1  0
 14 20  4  0
 14 23  4  0
 15 17  4  0
 15 21  4  0
 16 19  4  0
 16 23  4  0
 17 22  4  0
 18 26  4  0
 19 24  4  0
 20 24  4  0
 22 27  4  0
 28 29  4  0
M  END
$$$$

 Created by Python create_sdf_string function

 29 33  0  0  0  0  0  0  0  0999 V2000
   10.7215   -3.3326   17.6437 C   0  0  0  0  0  0  0  0  0  0  0  0
    9.9489   -3.4675   24.6487 N   0  0  0  0  0  0  0  0  0  0  0  0
   10.0172   -4.4740   17.4101 C   0  0  0  0  0  0  0  0  0  0  0  0
    6.9051   -7.9575   16.4222 C   0  0  0  0  0  0  0  0  0  0  0  0
    8.9969   -6.3552   17.9668 N   0  0  0  0  0  0  0  0  0  0  0  0
   10.6702   -3.9051   22.4070 C   0  0  0  0  0  0  0  0  0  0  0  0
   11.0625   -3.0028   18.8894 C   0  0  0  0  0  0  0  0  0  0  0  0
    5.6180   -7.9194   16.1754 O   0  0  0  0  0  0  0  0  0  0  0  0
    9.7259   -5.3080   18.4485 C   0  0  0  0  0  0  0  0  0  0  0  0
    9.4578   -5.0200   16.3036 N   0  0  0  0  0  0  0  0  0  0  0  0
    5.0287   -8.9365   16.8223 C   0  0  0  0  0  0  0  0  0  0  0  0
    8.7742   -6.1498   16.6764 C   0  0  0  0  0  0  0  0  0  0  0  0
   10.9418   -3.4032   21.2053 O   0  0  0  0  0  0  0  0  0  0  0  0
    1.4797   -8.6258   16.2950 C   0  0  0  0  0  0  0  0  0  0  0  0
    9.2861   -1.2743   25.3585 C   0  0  0  0  0  0  0  0  0  0  0  0
    1.8892  -10.3985   17.7511 N   0  0  0  0  0  0  0  0  0  0  0  0
    9.6210   -0.6952   24.0976 C   0  0  0  0  0  0  0  0  0  0  0  0
    7.0792   -9.0217   17.1429 C   0  0  0  0  0  0  0  0  0  0  0  0
    3.1713  -10.1816   17.6634 C   0  0  0  0  0  0  0  0  0  0  0  0
    2.7878   -8.3822   16.2137 C   0  0  0  0  0  0  0  0  0  0  0  0
    9.4601   -2.6590   25.6528 C   0  0  0  0  0  0  0  0  0  0  0  0
   10.1182   -1.5672   23.1165 C   0  0  0  0  0  0  0  0  0  0  0  0
    1.0552   -9.6360   17.0650 C   0  0  0  0  0  0  0  0  0  0  0  0
    3.6519   -9.1783   16.9039 C   0  0  0  0  0  0  0  0  0  0  0  0
    7.8675   -7.0096   15.9415 C   0  0  0  0  0  0  0  0  0  0  0  0
    5.9733   -9.6553   17.3832 N   0  0  0  0  0  0  0  0  0  0  0  0
   10.2411   -2.9363   23.4301 C   0  0  0  0  0  0  0  0  0  0  0  0
   10.7288   -3.8197   19.9525 C   0  0  0  0  0  0  0  0  0  0  0  0
   10.1189   -5.0054   19.6987 C   0  0  0  0  0  0  0  0  0  0  0  0
  1  3  4  0
  1  7  4  0
  2 21  4  0
  2 27  4  0
  3  9  4  0
  3 10  4  0
  4  8  4  0
  4 18  4  0
  4 25  1  0
  5  9  4  0
  5 12  4  0
  6 13  1  0
  6 27  1  0
  7 28  4  0
  8 11  4  0
  9 29  4  0
 10 12  4  0
 11 24  1  0
 11 26  4  0
 12 25  1  0
 13 28  1  0
 14 20  4  0
 14 23  4  0
 15 17  4  0
 15 21  4  0
 16 19  4  0
 16 23  4  0
 17 22  4  0
 18 26  4  0
 19 24  4  0
 20 24  4  0
 22 27  4  0
 28 29  4  0
M  END
$$$$

 Created by Python create_sdf_string function

 29 33  0  0  0  0  0  0  0  0999 V2000
   10.7215   -3.3326   17.6437 C   0  0  0  0  0  0  0  0  0  0  0  0
    9.9489   -3.4675   24.6487 N   0  0  0  0  0  0  0  0  0  0  0  0
   10.0172   -4.4740   17.4101 C   0  0  0  0  0  0  0  0  0  0  0  0
    6.9051   -7.9575   16.4222 C   0  0  0  0  0  0  0  0  0  0  0  0
    8.9969   -6.3552   17.9668 N   0  0  0  0  0  0  0  0  0  0  0  0
   10.6702   -3.9051   22.4070 C   0  0  0  0  0  0  0  0  0  0  0  0
   11.0625   -3.0028   18.8894 C   0  0  0  0  0  0  0  0  0  0  0  0
    5.6180   -7.9194   16.1754 O   0  0  0  0  0  0  0  0  0  0  0  0
    9.7259   -5.3080   18.4485 C   0  0  0  0  0  0  0  0  0  0  0  0
    9.4578   -5.0200   16.3036 N   0  0  0  0  0  0  0  0  0  0  0  0
    5.0287   -8.9365   16.8223 C   0  0  0  0  0  0  0  0  0  0  0  0
    8.7742   -6.1498   16.6764 C   0  0  0  0  0  0  0  0  0  0  0  0
   10.9418   -3.4032   21.2053 O   0  0  0  0  0  0  0  0  0  0  0  0
    1.4797   -8.6258   16.2950 C   0  0  0  0  0  0  0  0  0  0  0  0
    9.2861   -1.2743   25.3585 C   0  0  0  0  0  0  0  0  0  0  0  0
    1.8892  -10.3985   17.7511 N   0  0  0  0  0  0  0  0  0  0  0  0
    9.6210   -0.6952   24.0976 C   0  0  0  0  0  0  0  0  0  0  0  0
    7.0792   -9.0217   17.1429 C   0  0  0  0  0  0  0  0  0  0  0  0
    3.1713  -10.1816   17.6634 C   0  0  0  0  0  0  0  0  0  0  0  0
    2.7878   -8.3822   16.2137 C   0  0  0  0  0  0  0  0  0  0  0  0
    9.4601   -2.6590   25.6528 C   0  0  0  0  0  0  0  0  0  0  0  0
   10.1182   -1.5672   23.1165 C   0  0  0  0  0  0  0  0  0  0  0  0
    1.0552   -9.6360   17.0650 C   0  0  0  0  0  0  0  0  0  0  0  0
    3.6519   -9.1783   16.9039 C   0  0  0  0  0  0  0  0  0  0  0  0
    7.8675   -7.0096   15.9415 C   0  0  0  0  0  0  0  0  0  0  0  0
    5.9733   -9.6553   17.3832 N   0  0  0  0  0  0  0  0  0  0  0  0
   10.2411   -2.9363   23.4301 C   0  0  0  0  0  0  0  0  0  0  0  0
   10.7288   -3.8197   19.9525 C   0  0  0  0  0  0  0  0  0  0  0  0
   10.1189   -5.0054   19.6987 C   0  0  0  0  0  0  0  0  0  0  0  0
  1  3  4  0
  1  7  4  0
  2 21  4  0
  2 27  4  0
  3  9  4  0
  3 10  4  0
  4  8  4  0
  4 18  4  0
  4 25  1  0
  5  9  4  0
  5 12  4  0
  6 13  1  0
  6 27  1  0
  7 28  4  0
  8 11  4  0
  9 29  4  0
 10 12  4  0
 11 24  1  0
 11 26  4  0
 12 25  1  0
 13 28  1  0
 14 20  4  0
 14 23  4  0
 15 17  4  0
 15 21  4  0
 16 19  4  0
 16 23  4  0
 17 22  4  0
 18 26  4  0
 19 24  4  0
 20 24  4  0
 22 27  4  0
 28 29  4  0
M  END
$$$$

 Created by Python create_sdf_string function

 29 33  0  0  0  0  0  0  0  0999 V2000
   10.7215   -3.3326   17.6437 C   0  0  0  0  0  0  0  0  0  0  0  0
    9.9489   -3.4675   24.6487 N   0  0  0  0  0  0  0  0  0  0  0  0
   10.0172   -4.4740   17.4101 C   0  0  0  0  0  0  0  0  0  0  0  0
    6.9051   -7.9575   16.4222 C   0  0  0  0  0  0  0  0  0  0  0  0
    8.9969   -6.3552   17.9668 N   0  0  0  0  0  0  0  0  0  0  0  0
   10.6702   -3.9051   22.4070 C   0  0  0  0  0  0  0  0  0  0  0  0
   11.0625   -3.0028   18.8894 C   0  0  0  0  0  0  0  0  0  0  0  0
    5.6180   -7.9194   16.1754 O   0  0  0  0  0  0  0  0  0  0  0  0
    9.7259   -5.3080   18.4485 C   0  0  0  0  0  0  0  0  0  0  0  0
    9.4578   -5.0200   16.3036 N   0  0  0  0  0  0  0  0  0  0  0  0
    5.0287   -8.9365   16.8223 C   0  0  0  0  0  0  0  0  0  0  0  0
    8.7742   -6.1498   16.6764 C   0  0  0  0  0  0  0  0  0  0  0  0
   10.9418   -3.4032   21.2053 O   0  0  0  0  0  0  0  0  0  0  0  0
    1.4797   -8.6258   16.2950 C   0  0  0  0  0  0  0  0  0  0  0  0
    9.2861   -1.2743   25.3585 C   0  0  0  0  0  0  0  0  0  0  0  0
    1.8892  -10.3985   17.7511 N   0  0  0  0  0  0  0  0  0  0  0  0
    9.6210   -0.6952   24.0976 C   0  0  0  0  0  0  0  0  0  0  0  0
    7.0792   -9.0217   17.1429 C   0  0  0  0  0  0  0  0  0  0  0  0
    3.1713  -10.1816   17.6634 C   0  0  0  0  0  0  0  0  0  0  0  0
    2.7878   -8.3822   16.2137 C   0  0  0  0  0  0  0  0  0  0  0  0
    9.4601   -2.6590   25.6528 C   0  0  0  0  0  0  0  0  0  0  0  0
   10.1182   -1.5672   23.1165 C   0  0  0  0  0  0  0  0  0  0  0  0
    1.0552   -9.6360   17.0650 C   0  0  0  0  0  0  0  0  0  0  0  0
    3.6519   -9.1783   16.9039 C   0  0  0  0  0  0  0  0  0  0  0  0
    7.8675   -7.0096   15.9415 C   0  0  0  0  0  0  0  0  0  0  0  0
    5.9733   -9.6553   17.3832 N   0  0  0  0  0  0  0  0  0  0  0  0
   10.2411   -2.9363   23.4301 C   0  0  0  0  0  0  0  0  0  0  0  0
   10.7288   -3.8197   19.9525 C   0  0  0  0  0  0  0  0  0  0  0  0
   10.1189   -5.0054   19.6987 C   0  0  0  0  0  0  0  0  0  0  0  0
  1  3  4  0
  1  7  4  0
  2 21  4  0
  2 27  4  0
  3  9  4  0
  3 10  4  0
  4  8  4  0
  4 18  4  0
  4 25  1  0
  5  9  4  0
  5 12  4  0
  6 13  1  0
  6 27  1  0
  7 28  4  0
  8 11  4  0
  9 29  4  0
 10 12  4  0
 11 24  1  0
 11 26  4  0
 12 25  1  0
 13 28  1  0
 14 20  4  0
 14 23  4  0
 15 17  4  0
 15 21  4  0
 16 19  4  0
 16 23  4  0
 17 22  4  0
 18 26  4  0
 19 24  4  0
 20 24  4  0
 22 27  4  0
 28 29  4  0
M  END
$$$$

 Created by Python create_sdf_string function

 29 33  0  0  0  0  0  0  0  0999 V2000
   10.7215   -3.3326   17.6437 C   0  0  0  0  0  0  0  0  0  0  0  0
    9.9489   -3.4675   24.6487 N   0  0  0  0  0  0  0  0  0  0  0  0
   10.0172   -4.4740   17.4101 C   0  0  0  0  0  0  0  0  0  0  0  0
    6.9051   -7.9575   16.4222 C   0  0  0  0  0  0  0  0  0  0  0  0
    8.9969   -6.3552   17.9668 N   0  0  0  0  0  0  0  0  0  0  0  0
   10.6702   -3.9051   22.4070 C   0  0  0  0  0  0  0  0  0  0  0  0
   11.0625   -3.0028   18.8894 C   0  0  0  0  0  0  0  0  0  0  0  0
    5.6180   -7.9194   16.1754 O   0  0  0  0  0  0  0  0  0  0  0  0
    9.7259   -5.3080   18.4485 C   0  0  0  0  0  0  0  0  0  0  0  0
    9.4578   -5.0200   16.3036 N   0  0  0  0  0  0  0  0  0  0  0  0
    5.0287   -8.9365   16.8223 C   0  0  0  0  0  0  0  0  0  0  0  0
    8.7742   -6.1498   16.6764 C   0  0  0  0  0  0  0  0  0  0  0  0
   10.9418   -3.4032   21.2053 O   0  0  0  0  0  0  0  0  0  0  0  0
    1.4797   -8.6258   16.2950 C   0  0  0  0  0  0  0  0  0  0  0  0
    9.2861   -1.2743   25.3585 C   0  0  0  0  0  0  0  0  0  0  0  0
    1.8892  -10.3985   17.7511 N   0  0  0  0  0  0  0  0  0  0  0  0
    9.6210   -0.6952   24.0976 C   0  0  0  0  0  0  0  0  0  0  0  0
    7.0792   -9.0217   17.1429 C   0  0  0  0  0  0  0  0  0  0  0  0
    3.1713  -10.1816   17.6634 C   0  0  0  0  0  0  0  0  0  0  0  0
    2.7878   -8.3822   16.2137 C   0  0  0  0  0  0  0  0  0  0  0  0
    9.4601   -2.6590   25.6528 C   0  0  0  0  0  0  0  0  0  0  0  0
   10.1182   -1.5672   23.1165 C   0  0  0  0  0  0  0  0  0  0  0  0
    1.0552   -9.6360   17.0650 C   0  0  0  0  0  0  0  0  0  0  0  0
    3.6519   -9.1783   16.9039 C   0  0  0  0  0  0  0  0  0  0  0  0
    7.8675   -7.0096   15.9415 C   0  0  0  0  0  0  0  0  0  0  0  0
    5.9733   -9.6553   17.3832 N   0  0  0  0  0  0  0  0  0  0  0  0
   10.2411   -2.9363   23.4301 C   0  0  0  0  0  0  0  0  0  0  0  0
   10.7288   -3.8197   19.9525 C   0  0  0  0  0  0  0  0  0  0  0  0
   10.1189   -5.0054   19.6987 C   0  0  0  0  0  0  0  0  0  0  0  0
  1  3  4  0
  1  7  4  0
  2 21  4  0
  2 27  4  0
  3  9  4  0
  3 10  4  0
  4  8  4  0
  4 18  4  0
  4 25  1  0
  5  9  4  0
  5 12  4  0
  6 13  1  0
  6 27  1  0
  7 28  4  0
  8 11  4  0
  9 29  4  0
 10 12  4  0
 11 24  1  0
 11 26  4  0
 12 25  1  0
 13 28  1  0
 14 20  4  0
 14 23  4  0
 15 17  4  0
 15 21  4  0
 16 19  4  0
 16 23  4  0
 17 22  4  0
 18 26  4  0
 19 24  4  0
 20 24  4  0
 22 27  4  0
 28 29  4  0
M  END
$$$$

 Created by Python create_sdf_string function

 29 33  0  0  0  0  0  0  0  0999 V2000
   10.7215   -3.3326   17.6437 C   0  0  0  0  0  0  0  0  0  0  0  0
    9.9489   -3.4675   24.6487 N   0  0  0  0  0  0  0  0  0  0  0  0
   10.0172   -4.4740   17.4101 C   0  0  0  0  0  0  0  0  0  0  0  0
    6.9051   -7.9575   16.4222 C   0  0  0  0  0  0  0  0  0  0  0  0
    8.9969   -6.3552   17.9668 N   0  0  0  0  0  0  0  0  0  0  0  0
   10.6702   -3.9051   22.4070 C   0  0  0  0  0  0  0  0  0  0  0  0
   11.0625   -3.0028   18.8894 C   0  0  0  0  0  0  0  0  0  0  0  0
    5.6180   -7.9194   16.1754 O   0  0  0  0  0  0  0  0  0  0  0  0
    9.7259   -5.3080   18.4485 C   0  0  0  0  0  0  0  0  0  0  0  0
    9.4578   -5.0200   16.3036 N   0  0  0  0  0  0  0  0  0  0  0  0
    5.0287   -8.9365   16.8223 C   0  0  0  0  0  0  0  0  0  0  0  0
    8.7742   -6.1498   16.6764 C   0  0  0  0  0  0  0  0  0  0  0  0
   10.9418   -3.4032   21.2053 O   0  0  0  0  0  0  0  0  0  0  0  0
    1.4797   -8.6258   16.2950 C   0  0  0  0  0  0  0  0  0  0  0  0
    9.2861   -1.2743   25.3585 C   0  0  0  0  0  0  0  0  0  0  0  0
    1.8892  -10.3985   17.7511 N   0  0  0  0  0  0  0  0  0  0  0  0
    9.6210   -0.6952   24.0976 C   0  0  0  0  0  0  0  0  0  0  0  0
    7.0792   -9.0217   17.1429 C   0  0  0  0  0  0  0  0  0  0  0  0
    3.1713  -10.1816   17.6634 C   0  0  0  0  0  0  0  0  0  0  0  0
    2.7878   -8.3822   16.2137 C   0  0  0  0  0  0  0  0  0  0  0  0
    9.4601   -2.6590   25.6528 C   0  0  0  0  0  0  0  0  0  0  0  0
   10.1182   -1.5672   23.1165 C   0  0  0  0  0  0  0  0  0  0  0  0
    1.0552   -9.6360   17.0650 C   0  0  0  0  0  0  0  0  0  0  0  0
    3.6519   -9.1783   16.9039 C   0  0  0  0  0  0  0  0  0  0  0  0
    7.8675   -7.0096   15.9415 C   0  0  0  0  0  0  0  0  0  0  0  0
    5.9733   -9.6553   17.3832 N   0  0  0  0  0  0  0  0  0  0  0  0
   10.2411   -2.9363   23.4301 C   0  0  0  0  0  0  0  0  0  0  0  0
   10.7288   -3.8197   19.9525 C   0  0  0  0  0  0  0  0  0  0  0  0
   10.1189   -5.0054   19.6987 C   0  0  0  0  0  0  0  0  0  0  0  0
  1  3  4  0
  1  7  4  0
  2 21  4  0
  2 27  4  0
  3  9  4  0
  3 10  4  0
  4  8  4  0
  4 18  4  0
  4 25  1  0
  5  9  4  0
  5 12  4  0
  6 13  1  0
  6 27  1  0
  7 28  4  0
  8 11  4  0
  9 29  4  0
 10 12  4  0
 11 24  1  0
 11 26  4  0
 12 25  1  0
 13 28  1  0
 14 20  4  0
 14 23  4  0
 15 17  4  0
 15 21  4  0
 16 19  4  0
 16 23  4  0
 17 22  4  0
 18 26  4  0
 19 24  4  0
 20 24  4  0
 22 27  4  0
 28 29  4  0
M  END
$$$$

 Created by Python create_sdf_string function

 29 33  0  0  0  0  0  0  0  0999 V2000
   10.7215   -3.3326   17.6437 C   0  0  0  0  0  0  0  0  0  0  0  0
    9.9489   -3.4675   24.6487 N   0  0  0  0  0  0  0  0  0  0  0  0
   10.0172   -4.4740   17.4101 C   0  0  0  0  0  0  0  0  0  0  0  0
    6.9051   -7.9575   16.4222 C   0  0  0  0  0  0  0  0  0  0  0  0
    8.9969   -6.3552   17.9668 N   0  0  0  0  0  0  0  0  0  0  0  0
   10.6702   -3.9051   22.4070 C   0  0  0  0  0  0  0  0  0  0  0  0
   11.0625   -3.0028   18.8894 C   0  0  0  0  0  0  0  0  0  0  0  0
    5.6180   -7.9194   16.1754 O   0  0  0  0  0  0  0  0  0  0  0  0
    9.7259   -5.3080   18.4485 C   0  0  0  0  0  0  0  0  0  0  0  0
    9.4578   -5.0200   16.3036 N   0  0  0  0  0  0  0  0  0  0  0  0
    5.0287   -8.9365   16.8223 C   0  0  0  0  0  0  0  0  0  0  0  0
    8.7742   -6.1498   16.6764 C   0  0  0  0  0  0  0  0  0  0  0  0
   10.9418   -3.4032   21.2053 O   0  0  0  0  0  0  0  0  0  0  0  0
    1.4797   -8.6258   16.2950 C   0  0  0  0  0  0  0  0  0  0  0  0
    9.2861   -1.2743   25.3585 C   0  0  0  0  0  0  0  0  0  0  0  0
    1.8892  -10.3985   17.7511 N   0  0  0  0  0  0  0  0  0  0  0  0
    9.6210   -0.6952   24.0976 C   0  0  0  0  0  0  0  0  0  0  0  0
    7.0792   -9.0217   17.1429 C   0  0  0  0  0  0  0  0  0  0  0  0
    3.1713  -10.1816   17.6634 C   0  0  0  0  0  0  0  0  0  0  0  0
    2.7878   -8.3822   16.2137 C   0  0  0  0  0  0  0  0  0  0  0  0
    9.4601   -2.6590   25.6528 C   0  0  0  0  0  0  0  0  0  0  0  0
   10.1182   -1.5672   23.1165 C   0  0  0  0  0  0  0  0  0  0  0  0
    1.0552   -9.6360   17.0650 C   0  0  0  0  0  0  0  0  0  0  0  0
    3.6519   -9.1783   16.9039 C   0  0  0  0  0  0  0  0  0  0  0  0
    7.8675   -7.0096   15.9415 C   0  0  0  0  0  0  0  0  0  0  0  0
    5.9733   -9.6553   17.3832 N   0  0  0  0  0  0  0  0  0  0  0  0
   10.2411   -2.9363   23.4301 C   0  0  0  0  0  0  0  0  0  0  0  0
   10.7288   -3.8197   19.9525 C   0  0  0  0  0  0  0  0  0  0  0  0
   10.1189   -5.0054   19.6987 C   0  0  0  0  0  0  0  0  0  0  0  0
  1  3  4  0
  1  7  4  0
  2 21  4  0
  2 27  4  0
  3  9  4  0
  3 10  4  0
  4  8  4  0
  4 18  4  0
  4 25  1  0
  5  9  4  0
  5 12  4  0
  6 13  1  0
  6 27  1  0
  7 28  4  0
  8 11  4  0
  9 29  4  0
 10 12  4  0
 11 24  1  0
 11 26  4  0
 12 25  1  0
 13 28  1  0
 14 20  4  0
 14 23  4  0
 15 17  4  0
 15 21  4  0
 16 19  4  0
 16 23  4  0
 17 22  4  0
 18 26  4  0
 19 24  4  0
 20 24  4  0
 22 27  4  0
 28 29  4  0
M  END
$$$$

 Created by Python create_sdf_string function

 29 33  0  0  0  0  0  0  0  0999 V2000
   10.7215   -3.3326   17.6437 C   0  0  0  0  0  0  0  0  0  0  0  0
    9.9489   -3.4675   24.6487 N   0  0  0  0  0  0  0  0  0  0  0  0
   10.0172   -4.4740   17.4101 C   0  0  0  0  0  0  0  0  0  0  0  0
    6.9051   -7.9575   16.4222 C   0  0  0  0  0  0  0  0  0  0  0  0
    8.9969   -6.3552   17.9668 N   0  0  0  0  0  0  0  0  0  0  0  0
   10.6702   -3.9051   22.4070 C   0  0  0  0  0  0  0  0  0  0  0  0
   11.0625   -3.0028   18.8894 C   0  0  0  0  0  0  0  0  0  0  0  0
    5.6180   -7.9194   16.1754 O   0  0  0  0  0  0  0  0  0  0  0  0
    9.7259   -5.3080   18.4485 C   0  0  0  0  0  0  0  0  0  0  0  0
    9.4578   -5.0200   16.3036 N   0  0  0  0  0  0  0  0  0  0  0  0
    5.0287   -8.9365   16.8223 C   0  0  0  0  0  0  0  0  0  0  0  0
    8.7742   -6.1498   16.6764 C   0  0  0  0  0  0  0  0  0  0  0  0
   10.9418   -3.4032   21.2053 O   0  0  0  0  0  0  0  0  0  0  0  0
    1.4797   -8.6258   16.2950 C   0  0  0  0  0  0  0  0  0  0  0  0
    9.2861   -1.2743   25.3585 C   0  0  0  0  0  0  0  0  0  0  0  0
    1.8892  -10.3985   17.7511 N   0  0  0  0  0  0  0  0  0  0  0  0
    9.6210   -0.6952   24.0976 C   0  0  0  0  0  0  0  0  0  0  0  0
    7.0792   -9.0217   17.1429 C   0  0  0  0  0  0  0  0  0  0  0  0
    3.1713  -10.1816   17.6634 C   0  0  0  0  0  0  0  0  0  0  0  0
    2.7878   -8.3822   16.2137 C   0  0  0  0  0  0  0  0  0  0  0  0
    9.4601   -2.6590   25.6528 C   0  0  0  0  0  0  0  0  0  0  0  0
   10.1182   -1.5672   23.1165 C   0  0  0  0  0  0  0  0  0  0  0  0
    1.0552   -9.6360   17.0650 C   0  0  0  0  0  0  0  0  0  0  0  0
    3.6519   -9.1783   16.9039 C   0  0  0  0  0  0  0  0  0  0  0  0
    7.8675   -7.0096   15.9415 C   0  0  0  0  0  0  0  0  0  0  0  0
    5.9733   -9.6553   17.3832 N   0  0  0  0  0  0  0  0  0  0  0  0
   10.2411   -2.9363   23.4301 C   0  0  0  0  0  0  0  0  0  0  0  0
   10.7288   -3.8197   19.9525 C   0  0  0  0  0  0  0  0  0  0  0  0
   10.1189   -5.0054   19.6987 C   0  0  0  0  0  0  0  0  0  0  0  0
  1  3  4  0
  1  7  4  0
  2 21  4  0
  2 27  4  0
  3  9  4  0
  3 10  4  0
  4  8  4  0
  4 18  4  0
  4 25  1  0
  5  9  4  0
  5 12  4  0
  6 13  1  0
  6 27  1  0
  7 28  4  0
  8 11  4  0
  9 29  4  0
 10 12  4  0
 11 24  1  0
 11 26  4  0
 12 25  1  0
 13 28  1  0
 14 20  4  0
 14 23  4  0
 15 17  4  0
 15 21  4  0
 16 19  4  0
 16 23  4  0
 17 22  4  0
 18 26  4  0
 19 24  4  0
 20 24  4  0
 22 27  4  0
 28 29  4  0
M  END
$$$$

 Created by Python create_sdf_string function

 29 33  0  0  0  0  0  0  0  0999 V2000
   10.7215   -3.3326   17.6437 C   0  0  0  0  0  0  0  0  0  0  0  0
    9.9489   -3.4675   24.6487 N   0  0  0  0  0  0  0  0  0  0  0  0
   10.0172   -4.4740   17.4101 C   0  0  0  0  0  0  0  0  0  0  0  0
    6.9051   -7.9575   16.4222 C   0  0  0  0  0  0  0  0  0  0  0  0
    8.9969   -6.3552   17.9668 N   0  0  0  0  0  0  0  0  0  0  0  0
   10.6702   -3.9051   22.4070 C   0  0  0  0  0  0  0  0  0  0  0  0
   11.0625   -3.0028   18.8894 C   0  0  0  0  0  0  0  0  0  0  0  0
    5.6180   -7.9194   16.1754 O   0  0  0  0  0  0  0  0  0  0  0  0
    9.7259   -5.3080   18.4485 C   0  0  0  0  0  0  0  0  0  0  0  0
    9.4578   -5.0200   16.3036 N   0  0  0  0  0  0  0  0  0  0  0  0
    5.0287   -8.9365   16.8223 C   0  0  0  0  0  0  0  0  0  0  0  0
    8.7742   -6.1498   16.6764 C   0  0  0  0  0  0  0  0  0  0  0  0
   10.9418   -3.4032   21.2053 O   0  0  0  0  0  0  0  0  0  0  0  0
    1.4797   -8.6258   16.2950 C   0  0  0  0  0  0  0  0  0  0  0  0
    9.2861   -1.2743   25.3585 C   0  0  0  0  0  0  0  0  0  0  0  0
    1.8892  -10.3985   17.7511 N   0  0  0  0  0  0  0  0  0  0  0  0
    9.6210   -0.6952   24.0976 C   0  0  0  0  0  0  0  0  0  0  0  0
    7.0792   -9.0217   17.1429 C   0  0  0  0  0  0  0  0  0  0  0  0
    3.1713  -10.1816   17.6634 C   0  0  0  0  0  0  0  0  0  0  0  0
    2.7878   -8.3822   16.2137 C   0  0  0  0  0  0  0  0  0  0  0  0
    9.4601   -2.6590   25.6528 C   0  0  0  0  0  0  0  0  0  0  0  0
   10.1182   -1.5672   23.1165 C   0  0  0  0  0  0  0  0  0  0  0  0
    1.0552   -9.6360   17.0650 C   0  0  0  0  0  0  0  0  0  0  0  0
    3.6519   -9.1783   16.9039 C   0  0  0  0  0  0  0  0  0  0  0  0
    7.8675   -7.0096   15.9415 C   0  0  0  0  0  0  0  0  0  0  0  0
    5.9733   -9.6553   17.3832 N   0  0  0  0  0  0  0  0  0  0  0  0
   10.2411   -2.9363   23.4301 C   0  0  0  0  0  0  0  0  0  0  0  0
   10.7288   -3.8197   19.9525 C   0  0  0  0  0  0  0  0  0  0  0  0
   10.1189   -5.0054   19.6987 C   0  0  0  0  0  0  0  0  0  0  0  0
  1  3  4  0
  1  7  4  0
  2 21  4  0
  2 27  4  0
  3  9  4  0
  3 10  4  0
  4  8  4  0
  4 18  4  0
  4 25  1  0
  5  9  4  0
  5 12  4  0
  6 13  1  0
  6 27  1  0
  7 28  4  0
  8 11  4  0
  9 29  4  0
 10 12  4  0
 11 24  1  0
 11 26  4  0
 12 25  1  0
 13 28  1  0
 14 20  4  0
 14 23  4  0
 15 17  4  0
 15 21  4  0
 16 19  4  0
 16 23  4  0
 17 22  4  0
 18 26  4  0
 19 24  4  0
 20 24  4  0
 22 27  4  0
 28 29  4  0
M  END
$$$$

 Created by Python create_sdf_string function

 29 33  0  0  0  0  0  0  0  0999 V2000
   10.7215   -3.3326   17.6437 C   0  0  0  0  0  0  0  0  0  0  0  0
    9.9489   -3.4675   24.6487 N   0  0  0  0  0  0  0  0  0  0  0  0
   10.0172   -4.4740   17.4101 C   0  0  0  0  0  0  0  0  0  0  0  0
    6.9051   -7.9575   16.4222 C   0  0  0  0  0  0  0  0  0  0  0  0
    8.9969   -6.3552   17.9668 N   0  0  0  0  0  0  0  0  0  0  0  0
   10.6702   -3.9051   22.4070 C   0  0  0  0  0  0  0  0  0  0  0  0
   11.0625   -3.0028   18.8894 C   0  0  0  0  0  0  0  0  0  0  0  0
    5.6180   -7.9194   16.1754 O   0  0  0  0  0  0  0  0  0  0  0  0
    9.7259   -5.3080   18.4485 C   0  0  0  0  0  0  0  0  0  0  0  0
    9.4578   -5.0200   16.3036 N   0  0  0  0  0  0  0  0  0  0  0  0
    5.0287   -8.9365   16.8223 C   0  0  0  0  0  0  0  0  0  0  0  0
    8.7742   -6.1498   16.6764 C   0  0  0  0  0  0  0  0  0  0  0  0
   10.9418   -3.4032   21.2053 O   0  0  0  0  0  0  0  0  0  0  0  0
    1.4797   -8.6258   16.2950 C   0  0  0  0  0  0  0  0  0  0  0  0
    9.2861   -1.2743   25.3585 C   0  0  0  0  0  0  0  0  0  0  0  0
    1.8892  -10.3985   17.7511 N   0  0  0  0  0  0  0  0  0  0  0  0
    9.6210   -0.6952   24.0976 C   0  0  0  0  0  0  0  0  0  0  0  0
    7.0792   -9.0217   17.1429 C   0  0  0  0  0  0  0  0  0  0  0  0
    3.1713  -10.1816   17.6634 C   0  0  0  0  0  0  0  0  0  0  0  0
    2.7878   -8.3822   16.2137 C   0  0  0  0  0  0  0  0  0  0  0  0
    9.4601   -2.6590   25.6528 C   0  0  0  0  0  0  0  0  0  0  0  0
   10.1182   -1.5672   23.1165 C   0  0  0  0  0  0  0  0  0  0  0  0
    1.0552   -9.6360   17.0650 C   0  0  0  0  0  0  0  0  0  0  0  0
    3.6519   -9.1783   16.9039 C   0  0  0  0  0  0  0  0  0  0  0  0
    7.8675   -7.0096   15.9415 C   0  0  0  0  0  0  0  0  0  0  0  0
    5.9733   -9.6553   17.3832 N   0  0  0  0  0  0  0  0  0  0  0  0
   10.2411   -2.9363   23.4301 C   0  0  0  0  0  0  0  0  0  0  0  0
   10.7288   -3.8197   19.9525 C   0  0  0  0  0  0  0  0  0  0  0  0
   10.1189   -5.0054   19.6987 C   0  0  0  0  0  0  0  0  0  0  0  0
  1  3  4  0
  1  7  4  0
  2 21  4  0
  2 27  4  0
  3  9  4  0
  3 10  4  0
  4  8  4  0
  4 18  4  0
  4 25  1  0
  5  9  4  0
  5 12  4  0
  6 13  1  0
  6 27  1  0
  7 28  4  0
  8 11  4  0
  9 29  4  0
 10 12  4  0
 11 24  1  0
 11 26  4  0
 12 25  1  0
 13 28  1  0
 14 20  4  0
 14 23  4  0
 15 17  4  0
 15 21  4  0
 16 19  4  0
 16 23  4  0
 17 22  4  0
 18 26  4  0
 19 24  4  0
 20 24  4  0
 22 27  4  0
 28 29  4  0
M  END
$$$$

 Created by Python create_sdf_string function

 29 33  0  0  0  0  0  0  0  0999 V2000
   10.7215   -3.3326   17.6437 C   0  0  0  0  0  0  0  0  0  0  0  0
    9.9489   -3.4675   24.6487 N   0  0  0  0  0  0  0  0  0  0  0  0
   10.0172   -4.4740   17.4101 C   0  0  0  0  0  0  0  0  0  0  0  0
    6.9051   -7.9575   16.4222 C   0  0  0  0  0  0  0  0  0  0  0  0
    8.9969   -6.3552   17.9668 N   0  0  0  0  0  0  0  0  0  0  0  0
   10.6702   -3.9051   22.4070 C   0  0  0  0  0  0  0  0  0  0  0  0
   11.0625   -3.0028   18.8894 C   0  0  0  0  0  0  0  0  0  0  0  0
    5.6180   -7.9194   16.1754 O   0  0  0  0  0  0  0  0  0  0  0  0
    9.7259   -5.3080   18.4485 C   0  0  0  0  0  0  0  0  0  0  0  0
    9.4578   -5.0200   16.3036 N   0  0  0  0  0  0  0  0  0  0  0  0
    5.0287   -8.9365   16.8223 C   0  0  0  0  0  0  0  0  0  0  0  0
    8.7742   -6.1498   16.6764 C   0  0  0  0  0  0  0  0  0  0  0  0
   10.9418   -3.4032   21.2053 O   0  0  0  0  0  0  0  0  0  0  0  0
    1.4797   -8.6258   16.2950 C   0  0  0  0  0  0  0  0  0  0  0  0
    9.2861   -1.2743   25.3585 C   0  0  0  0  0  0  0  0  0  0  0  0
    1.8892  -10.3985   17.7511 N   0  0  0  0  0  0  0  0  0  0  0  0
    9.6210   -0.6952   24.0976 C   0  0  0  0  0  0  0  0  0  0  0  0
    7.0792   -9.0217   17.1429 C   0  0  0  0  0  0  0  0  0  0  0  0
    3.1713  -10.1816   17.6634 C   0  0  0  0  0  0  0  0  0  0  0  0
    2.7878   -8.3822   16.2137 C   0  0  0  0  0  0  0  0  0  0  0  0
    9.4601   -2.6590   25.6528 C   0  0  0  0  0  0  0  0  0  0  0  0
   10.1182   -1.5672   23.1165 C   0  0  0  0  0  0  0  0  0  0  0  0
    1.0552   -9.6360   17.0650 C   0  0  0  0  0  0  0  0  0  0  0  0
    3.6519   -9.1783   16.9039 C   0  0  0  0  0  0  0  0  0  0  0  0
    7.8675   -7.0096   15.9415 C   0  0  0  0  0  0  0  0  0  0  0  0
    5.9733   -9.6553   17.3832 N   0  0  0  0  0  0  0  0  0  0  0  0
   10.2411   -2.9363   23.4301 C   0  0  0  0  0  0  0  0  0  0  0  0
   10.7288   -3.8197   19.9525 C   0  0  0  0  0  0  0  0  0  0  0  0
   10.1189   -5.0054   19.6987 C   0  0  0  0  0  0  0  0  0  0  0  0
  1  3  4  0
  1  7  4  0
  2 21  4  0
  2 27  4  0
  3  9  4  0
  3 10  4  0
  4  8  4  0
  4 18  4  0
  4 25  1  0
  5  9  4  0
  5 12  4  0
  6 13  1  0
  6 27  1  0
  7 28  4  0
  8 11  4  0
  9 29  4  0
 10 12  4  0
 11 24  1  0
 11 26  4  0
 12 25  1  0
 13 28  1  0
 14 20  4  0
 14 23  4  0
 15 17  4  0
 15 21  4  0
 16 19  4  0
 16 23  4  0
 17 22  4  0
 18 26  4  0
 19 24  4  0
 20 24  4  0
 22 27  4  0
 28 29  4  0
M  END
$$$$

 Created by Python create_sdf_string function

 29 33  0  0  0  0  0  0  0  0999 V2000
   10.7215   -3.3326   17.6437 C   0  0  0  0  0  0  0  0  0  0  0  0
    9.9489   -3.4675   24.6487 N   0  0  0  0  0  0  0  0  0  0  0  0
   10.0172   -4.4740   17.4101 C   0  0  0  0  0  0  0  0  0  0  0  0
    6.9051   -7.9575   16.4222 C   0  0  0  0  0  0  0  0  0  0  0  0
    8.9969   -6.3552   17.9668 N   0  0  0  0  0  0  0  0  0  0  0  0
   10.6702   -3.9051   22.4070 C   0  0  0  0  0  0  0  0  0  0  0  0
   11.0625   -3.0028   18.8894 C   0  0  0  0  0  0  0  0  0  0  0  0
    5.6180   -7.9194   16.1754 O   0  0  0  0  0  0  0  0  0  0  0  0
    9.7259   -5.3080   18.4485 C   0  0  0  0  0  0  0  0  0  0  0  0
    9.4578   -5.0200   16.3036 N   0  0  0  0  0  0  0  0  0  0  0  0
    5.0287   -8.9365   16.8223 C   0  0  0  0  0  0  0  0  0  0  0  0
    8.7742   -6.1498   16.6764 C   0  0  0  0  0  0  0  0  0  0  0  0
   10.9418   -3.4032   21.2053 O   0  0  0  0  0  0  0  0  0  0  0  0
    1.4797   -8.6258   16.2950 C   0  0  0  0  0  0  0  0  0  0  0  0
    9.2861   -1.2743   25.3585 C   0  0  0  0  0  0  0  0  0  0  0  0
    1.8892  -10.3985   17.7511 N   0  0  0  0  0  0  0  0  0  0  0  0
    9.6210   -0.6952   24.0976 C   0  0  0  0  0  0  0  0  0  0  0  0
    7.0792   -9.0217   17.1429 C   0  0  0  0  0  0  0  0  0  0  0  0
    3.1713  -10.1816   17.6634 C   0  0  0  0  0  0  0  0  0  0  0  0
    2.7878   -8.3822   16.2137 C   0  0  0  0  0  0  0  0  0  0  0  0
    9.4601   -2.6590   25.6528 C   0  0  0  0  0  0  0  0  0  0  0  0
   10.1182   -1.5672   23.1165 C   0  0  0  0  0  0  0  0  0  0  0  0
    1.0552   -9.6360   17.0650 C   0  0  0  0  0  0  0  0  0  0  0  0
    3.6519   -9.1783   16.9039 C   0  0  0  0  0  0  0  0  0  0  0  0
    7.8675   -7.0096   15.9415 C   0  0  0  0  0  0  0  0  0  0  0  0
    5.9733   -9.6553   17.3832 N   0  0  0  0  0  0  0  0  0  0  0  0
   10.2411   -2.9363   23.4301 C   0  0  0  0  0  0  0  0  0  0  0  0
   10.7288   -3.8197   19.9525 C   0  0  0  0  0  0  0  0  0  0  0  0
   10.1189   -5.0054   19.6987 C   0  0  0  0  0  0  0  0  0  0  0  0
  1  3  4  0
  1  7  4  0
  2 21  4  0
  2 27  4  0
  3  9  4  0
  3 10  4  0
  4  8  4  0
  4 18  4  0
  4 25  1  0
  5  9  4  0
  5 12  4  0
  6 13  1  0
  6 27  1  0
  7 28  4  0
  8 11  4  0
  9 29  4  0
 10 12  4  0
 11 24  1  0
 11 26  4  0
 12 25  1  0
 13 28  1  0
 14 20  4  0
 14 23  4  0
 15 17  4  0
 15 21  4  0
 16 19  4  0
 16 23  4  0
 17 22  4  0
 18 26  4  0
 19 24  4  0
 20 24  4  0
 22 27  4  0
 28 29  4  0
M  END
$$$$

 Created by Python create_sdf_string function

 29 33  0  0  0  0  0  0  0  0999 V2000
   10.7215   -3.3326   17.6437 C   0  0  0  0  0  0  0  0  0  0  0  0
    9.9489   -3.4675   24.6487 N   0  0  0  0  0  0  0  0  0  0  0  0
   10.0172   -4.4740   17.4101 C   0  0  0  0  0  0  0  0  0  0  0  0
    6.9051   -7.9575   16.4222 C   0  0  0  0  0  0  0  0  0  0  0  0
    8.9969   -6.3552   17.9668 N   0  0  0  0  0  0  0  0  0  0  0  0
   10.6702   -3.9051   22.4070 C   0  0  0  0  0  0  0  0  0  0  0  0
   11.0625   -3.0028   18.8894 C   0  0  0  0  0  0  0  0  0  0  0  0
    5.6180   -7.9194   16.1754 O   0  0  0  0  0  0  0  0  0  0  0  0
    9.7259   -5.3080   18.4485 C   0  0  0  0  0  0  0  0  0  0  0  0
    9.4578   -5.0200   16.3036 N   0  0  0  0  0  0  0  0  0  0  0  0
    5.0287   -8.9365   16.8223 C   0  0  0  0  0  0  0  0  0  0  0  0
    8.7742   -6.1498   16.6764 C   0  0  0  0  0  0  0  0  0  0  0  0
   10.9418   -3.4032   21.2053 O   0  0  0  0  0  0  0  0  0  0  0  0
    1.4797   -8.6258   16.2950 C   0  0  0  0  0  0  0  0  0  0  0  0
    9.2861   -1.2743   25.3585 C   0  0  0  0  0  0  0  0  0  0  0  0
    1.8892  -10.3985   17.7511 N   0  0  0  0  0  0  0  0  0  0  0  0
    9.6210   -0.6952   24.0976 C   0  0  0  0  0  0  0  0  0  0  0  0
    7.0792   -9.0217   17.1429 C   0  0  0  0  0  0  0  0  0  0  0  0
    3.1713  -10.1816   17.6634 C   0  0  0  0  0  0  0  0  0  0  0  0
    2.7878   -8.3822   16.2137 C   0  0  0  0  0  0  0  0  0  0  0  0
    9.4601   -2.6590   25.6528 C   0  0  0  0  0  0  0  0  0  0  0  0
   10.1182   -1.5672   23.1165 C   0  0  0  0  0  0  0  0  0  0  0  0
    1.0552   -9.6360   17.0650 C   0  0  0  0  0  0  0  0  0  0  0  0
    3.6519   -9.1783   16.9039 C   0  0  0  0  0  0  0  0  0  0  0  0
    7.8675   -7.0096   15.9415 C   0  0  0  0  0  0  0  0  0  0  0  0
    5.9733   -9.6553   17.3832 N   0  0  0  0  0  0  0  0  0  0  0  0
   10.2411   -2.9363   23.4301 C   0  0  0  0  0  0  0  0  0  0  0  0
   10.7288   -3.8197   19.9525 C   0  0  0  0  0  0  0  0  0  0  0  0
   10.1189   -5.0054   19.6987 C   0  0  0  0  0  0  0  0  0  0  0  0
  1  3  4  0
  1  7  4  0
  2 21  4  0
  2 27  4  0
  3  9  4  0
  3 10  4  0
  4  8  4  0
  4 18  4  0
  4 25  1  0
  5  9  4  0
  5 12  4  0
  6 13  1  0
  6 27  1  0
  7 28  4  0
  8 11  4  0
  9 29  4  0
 10 12  4  0
 11 24  1  0
 11 26  4  0
 12 25  1  0
 13 28  1  0
 14 20  4  0
 14 23  4  0
 15 17  4  0
 15 21  4  0
 16 19  4  0
 16 23  4  0
 17 22  4  0
 18 26  4  0
 19 24  4  0
 20 24  4  0
 22 27  4  0
 28 29  4  0
M  END
$$$$

 Created by Python create_sdf_string function

 29 33  0  0  0  0  0  0  0  0999 V2000
   10.7215   -3.3326   17.6437 C   0  0  0  0  0  0  0  0  0  0  0  0
    9.9489   -3.4675   24.6487 N   0  0  0  0  0  0  0  0  0  0  0  0
   10.0172   -4.4740   17.4101 C   0  0  0  0  0  0  0  0  0  0  0  0
    6.9051   -7.9575   16.4222 C   0  0  0  0  0  0  0  0  0  0  0  0
    8.9969   -6.3552   17.9668 N   0  0  0  0  0  0  0  0  0  0  0  0
   10.6702   -3.9051   22.4070 C   0  0  0  0  0  0  0  0  0  0  0  0
   11.0625   -3.0028   18.8894 C   0  0  0  0  0  0  0  0  0  0  0  0
    5.6180   -7.9194   16.1754 O   0  0  0  0  0  0  0  0  0  0  0  0
    9.7259   -5.3080   18.4485 C   0  0  0  0  0  0  0  0  0  0  0  0
    9.4578   -5.0200   16.3036 N   0  0  0  0  0  0  0  0  0  0  0  0
    5.0287   -8.9365   16.8223 C   0  0  0  0  0  0  0  0  0  0  0  0
    8.7742   -6.1498   16.6764 C   0  0  0  0  0  0  0  0  0  0  0  0
   10.9418   -3.4032   21.2053 O   0  0  0  0  0  0  0  0  0  0  0  0
    1.4797   -8.6258   16.2950 C   0  0  0  0  0  0  0  0  0  0  0  0
    9.2861   -1.2743   25.3585 C   0  0  0  0  0  0  0  0  0  0  0  0
    1.8892  -10.3985   17.7511 N   0  0  0  0  0  0  0  0  0  0  0  0
    9.6210   -0.6952   24.0976 C   0  0  0  0  0  0  0  0  0  0  0  0
    7.0792   -9.0217   17.1429 C   0  0  0  0  0  0  0  0  0  0  0  0
    3.1713  -10.1816   17.6634 C   0  0  0  0  0  0  0  0  0  0  0  0
    2.7878   -8.3822   16.2137 C   0  0  0  0  0  0  0  0  0  0  0  0
    9.4601   -2.6590   25.6528 C   0  0  0  0  0  0  0  0  0  0  0  0
   10.1182   -1.5672   23.1165 C   0  0  0  0  0  0  0  0  0  0  0  0
    1.0552   -9.6360   17.0650 C   0  0  0  0  0  0  0  0  0  0  0  0
    3.6519   -9.1783   16.9039 C   0  0  0  0  0  0  0  0  0  0  0  0
    7.8675   -7.0096   15.9415 C   0  0  0  0  0  0  0  0  0  0  0  0
    5.9733   -9.6553   17.3832 N   0  0  0  0  0  0  0  0  0  0  0  0
   10.2411   -2.9363   23.4301 C   0  0  0  0  0  0  0  0  0  0  0  0
   10.7288   -3.8197   19.9525 C   0  0  0  0  0  0  0  0  0  0  0  0
   10.1189   -5.0054   19.6987 C   0  0  0  0  0  0  0  0  0  0  0  0
  1  3  4  0
  1  7  4  0
  2 21  4  0
  2 27  4  0
  3  9  4  0
  3 10  4  0
  4  8  4  0
  4 18  4  0
  4 25  1  0
  5  9  4  0
  5 12  4  0
  6 13  1  0
  6 27  1  0
  7 28  4  0
  8 11  4  0
  9 29  4  0
 10 12  4  0
 11 24  1  0
 11 26  4  0
 12 25  1  0
 13 28  1  0
 14 20  4  0
 14 23  4  0
 15 17  4  0
 15 21  4  0
 16 19  4  0
 16 23  4  0
 17 22  4  0
 18 26  4  0
 19 24  4  0
 20 24  4  0
 22 27  4  0
 28 29  4  0
M  END
$$$$

 Created by Python create_sdf_string function

 29 33  0  0  0  0  0  0  0  0999 V2000
   10.7215   -3.3326   17.6437 C   0  0  0  0  0  0  0  0  0  0  0  0
    9.9489   -3.4675   24.6487 N   0  0  0  0  0  0  0  0  0  0  0  0
   10.0172   -4.4740   17.4101 C   0  0  0  0  0  0  0  0  0  0  0  0
    6.9051   -7.9575   16.4222 C   0  0  0  0  0  0  0  0  0  0  0  0
    8.9969   -6.3552   17.9668 N   0  0  0  0  0  0  0  0  0  0  0  0
   10.6702   -3.9051   22.4070 C   0  0  0  0  0  0  0  0  0  0  0  0
   11.0625   -3.0028   18.8894 C   0  0  0  0  0  0  0  0  0  0  0  0
    5.6180   -7.9194   16.1754 O   0  0  0  0  0  0  0  0  0  0  0  0
    9.7259   -5.3080   18.4485 C   0  0  0  0  0  0  0  0  0  0  0  0
    9.4578   -5.0200   16.3036 N   0  0  0  0  0  0  0  0  0  0  0  0
    5.0287   -8.9365   16.8223 C   0  0  0  0  0  0  0  0  0  0  0  0
    8.7742   -6.1498   16.6764 C   0  0  0  0  0  0  0  0  0  0  0  0
   10.9418   -3.4032   21.2053 O   0  0  0  0  0  0  0  0  0  0  0  0
    1.4797   -8.6258   16.2950 C   0  0  0  0  0  0  0  0  0  0  0  0
    9.2861   -1.2743   25.3585 C   0  0  0  0  0  0  0  0  0  0  0  0
    1.8892  -10.3985   17.7511 N   0  0  0  0  0  0  0  0  0  0  0  0
    9.6210   -0.6952   24.0976 C   0  0  0  0  0  0  0  0  0  0  0  0
    7.0792   -9.0217   17.1429 C   0  0  0  0  0  0  0  0  0  0  0  0
    3.1713  -10.1816   17.6634 C   0  0  0  0  0  0  0  0  0  0  0  0
    2.7878   -8.3822   16.2137 C   0  0  0  0  0  0  0  0  0  0  0  0
    9.4601   -2.6590   25.6528 C   0  0  0  0  0  0  0  0  0  0  0  0
   10.1182   -1.5672   23.1165 C   0  0  0  0  0  0  0  0  0  0  0  0
    1.0552   -9.6360   17.0650 C   0  0  0  0  0  0  0  0  0  0  0  0
    3.6519   -9.1783   16.9039 C   0  0  0  0  0  0  0  0  0  0  0  0
    7.8675   -7.0096   15.9415 C   0  0  0  0  0  0  0  0  0  0  0  0
    5.9733   -9.6553   17.3832 N   0  0  0  0  0  0  0  0  0  0  0  0
   10.2411   -2.9363   23.4301 C   0  0  0  0  0  0  0  0  0  0  0  0
   10.7288   -3.8197   19.9525 C   0  0  0  0  0  0  0  0  0  0  0  0
   10.1189   -5.0054   19.6987 C   0  0  0  0  0  0  0  0  0  0  0  0
  1  3  4  0
  1  7  4  0
  2 21  4  0
  2 27  4  0
  3  9  4  0
  3 10  4  0
  4  8  4  0
  4 18  4  0
  4 25  1  0
  5  9  4  0
  5 12  4  0
  6 13  1  0
  6 27  1  0
  7 28  4  0
  8 11  4  0
  9 29  4  0
 10 12  4  0
 11 24  1  0
 11 26  4  0
 12 25  1  0
 13 28  1  0
 14 20  4  0
 14 23  4  0
 15 17  4  0
 15 21  4  0
 16 19  4  0
 16 23  4  0
 17 22  4  0
 18 26  4  0
 19 24  4  0
 20 24  4  0
 22 27  4  0
 28 29  4  0
M  END
$$$$

 Created by Python create_sdf_string function

 29 33  0  0  0  0  0  0  0  0999 V2000
   10.7215   -3.3326   17.6437 C   0  0  0  0  0  0  0  0  0  0  0  0
    9.9489   -3.4675   24.6487 N   0  0  0  0  0  0  0  0  0  0  0  0
   10.0172   -4.4740   17.4101 C   0  0  0  0  0  0  0  0  0  0  0  0
    6.9051   -7.9575   16.4222 C   0  0  0  0  0  0  0  0  0  0  0  0
    8.9969   -6.3552   17.9668 N   0  0  0  0  0  0  0  0  0  0  0  0
   10.6702   -3.9051   22.4070 C   0  0  0  0  0  0  0  0  0  0  0  0
   11.0625   -3.0028   18.8894 C   0  0  0  0  0  0  0  0  0  0  0  0
    5.6180   -7.9194   16.1754 O   0  0  0  0  0  0  0  0  0  0  0  0
    9.7259   -5.3080   18.4485 C   0  0  0  0  0  0  0  0  0  0  0  0
    9.4578   -5.0200   16.3036 N   0  0  0  0  0  0  0  0  0  0  0  0
    5.0287   -8.9365   16.8223 C   0  0  0  0  0  0  0  0  0  0  0  0
    8.7742   -6.1498   16.6764 C   0  0  0  0  0  0  0  0  0  0  0  0
   10.9418   -3.4032   21.2053 O   0  0  0  0  0  0  0  0  0  0  0  0
    1.4797   -8.6258   16.2950 C   0  0  0  0  0  0  0  0  0  0  0  0
    9.2861   -1.2743   25.3585 C   0  0  0  0  0  0  0  0  0  0  0  0
    1.8892  -10.3985   17.7511 N   0  0  0  0  0  0  0  0  0  0  0  0
    9.6210   -0.6952   24.0976 C   0  0  0  0  0  0  0  0  0  0  0  0
    7.0792   -9.0217   17.1429 C   0  0  0  0  0  0  0  0  0  0  0  0
    3.1713  -10.1816   17.6634 C   0  0  0  0  0  0  0  0  0  0  0  0
    2.7878   -8.3822   16.2137 C   0  0  0  0  0  0  0  0  0  0  0  0
    9.4601   -2.6590   25.6528 C   0  0  0  0  0  0  0  0  0  0  0  0
   10.1182   -1.5672   23.1165 C   0  0  0  0  0  0  0  0  0  0  0  0
    1.0552   -9.6360   17.0650 C   0  0  0  0  0  0  0  0  0  0  0  0
    3.6519   -9.1783   16.9039 C   0  0  0  0  0  0  0  0  0  0  0  0
    7.8675   -7.0096   15.9415 C   0  0  0  0  0  0  0  0  0  0  0  0
    5.9733   -9.6553   17.3832 N   0  0  0  0  0  0  0  0  0  0  0  0
   10.2411   -2.9363   23.4301 C   0  0  0  0  0  0  0  0  0  0  0  0
   10.7288   -3.8197   19.9525 C   0  0  0  0  0  0  0  0  0  0  0  0
   10.1189   -5.0054   19.6987 C   0  0  0  0  0  0  0  0  0  0  0  0
  1  3  4  0
  1  7  4  0
  2 21  4  0
  2 27  4  0
  3  9  4  0
  3 10  4  0
  4  8  4  0
  4 18  4  0
  4 25  1  0
  5  9  4  0
  5 12  4  0
  6 13  1  0
  6 27  1  0
  7 28  4  0
  8 11  4  0
  9 29  4  0
 10 12  4  0
 11 24  1  0
 11 26  4  0
 12 25  1  0
 13 28  1  0
 14 20  4  0
 14 23  4  0
 15 17  4  0
 15 21  4  0
 16 19  4  0
 16 23  4  0
 17 22  4  0
 18 26  4  0
 19 24  4  0
 20 24  4  0
 22 27  4  0
 28 29  4  0
M  END
$$$$

 Created by Python create_sdf_string function

 29 33  0  0  0  0  0  0  0  0999 V2000
   10.7215   -3.3326   17.6437 C   0  0  0  0  0  0  0  0  0  0  0  0
    9.9489   -3.4675   24.6487 N   0  0  0  0  0  0  0  0  0  0  0  0
   10.0172   -4.4740   17.4101 C   0  0  0  0  0  0  0  0  0  0  0  0
    6.9051   -7.9575   16.4222 C   0  0  0  0  0  0  0  0  0  0  0  0
    8.9969   -6.3552   17.9668 N   0  0  0  0  0  0  0  0  0  0  0  0
   10.6702   -3.9051   22.4070 C   0  0  0  0  0  0  0  0  0  0  0  0
   11.0625   -3.0028   18.8894 C   0  0  0  0  0  0  0  0  0  0  0  0
    5.6180   -7.9194   16.1754 O   0  0  0  0  0  0  0  0  0  0  0  0
    9.7259   -5.3080   18.4485 C   0  0  0  0  0  0  0  0  0  0  0  0
    9.4578   -5.0200   16.3036 N   0  0  0  0  0  0  0  0  0  0  0  0
    5.0287   -8.9365   16.8223 C   0  0  0  0  0  0  0  0  0  0  0  0
    8.7742   -6.1498   16.6764 C   0  0  0  0  0  0  0  0  0  0  0  0
   10.9418   -3.4032   21.2053 O   0  0  0  0  0  0  0  0  0  0  0  0
    1.4797   -8.6258   16.2950 C   0  0  0  0  0  0  0  0  0  0  0  0
    9.2861   -1.2743   25.3585 C   0  0  0  0  0  0  0  0  0  0  0  0
    1.8892  -10.3985   17.7511 N   0  0  0  0  0  0  0  0  0  0  0  0
    9.6210   -0.6952   24.0976 C   0  0  0  0  0  0  0  0  0  0  0  0
    7.0792   -9.0217   17.1429 C   0  0  0  0  0  0  0  0  0  0  0  0
    3.1713  -10.1816   17.6634 C   0  0  0  0  0  0  0  0  0  0  0  0
    2.7878   -8.3822   16.2137 C   0  0  0  0  0  0  0  0  0  0  0  0
    9.4601   -2.6590   25.6528 C   0  0  0  0  0  0  0  0  0  0  0  0
   10.1182   -1.5672   23.1165 C   0  0  0  0  0  0  0  0  0  0  0  0
    1.0552   -9.6360   17.0650 C   0  0  0  0  0  0  0  0  0  0  0  0
    3.6519   -9.1783   16.9039 C   0  0  0  0  0  0  0  0  0  0  0  0
    7.8675   -7.0096   15.9415 C   0  0  0  0  0  0  0  0  0  0  0  0
    5.9733   -9.6553   17.3832 N   0  0  0  0  0  0  0  0  0  0  0  0
   10.2411   -2.9363   23.4301 C   0  0  0  0  0  0  0  0  0  0  0  0
   10.7288   -3.8197   19.9525 C   0  0  0  0  0  0  0  0  0  0  0  0
   10.1189   -5.0054   19.6987 C   0  0  0  0  0  0  0  0  0  0  0  0
  1  3  4  0
  1  7  4  0
  2 21  4  0
  2 27  4  0
  3  9  4  0
  3 10  4  0
  4  8  4  0
  4 18  4  0
  4 25  1  0
  5  9  4  0
  5 12  4  0
  6 13  1  0
  6 27  1  0
  7 28  4  0
  8 11  4  0
  9 29  4  0
 10 12  4  0
 11 24  1  0
 11 26  4  0
 12 25  1  0
 13 28  1  0
 14 20  4  0
 14 23  4  0
 15 17  4  0
 15 21  4  0
 16 19  4  0
 16 23  4  0
 17 22  4  0
 18 26  4  0
 19 24  4  0
 20 24  4  0
 22 27  4  0
 28 29  4  0
M  END
$$$$

 Created by Python create_sdf_string function

 29 33  0  0  0  0  0  0  0  0999 V2000
   10.7215   -3.3326   17.6437 C   0  0  0  0  0  0  0  0  0  0  0  0
    9.9489   -3.4675   24.6487 N   0  0  0  0  0  0  0  0  0  0  0  0
   10.0172   -4.4740   17.4101 C   0  0  0  0  0  0  0  0  0  0  0  0
    6.9051   -7.9575   16.4222 C   0  0  0  0  0  0  0  0  0  0  0  0
    8.9969   -6.3552   17.9668 N   0  0  0  0  0  0  0  0  0  0  0  0
   10.6702   -3.9051   22.4070 C   0  0  0  0  0  0  0  0  0  0  0  0
   11.0625   -3.0028   18.8894 C   0  0  0  0  0  0  0  0  0  0  0  0
    5.6180   -7.9194   16.1754 O   0  0  0  0  0  0  0  0  0  0  0  0
    9.7259   -5.3080   18.4485 C   0  0  0  0  0  0  0  0  0  0  0  0
    9.4578   -5.0200   16.3036 N   0  0  0  0  0  0  0  0  0  0  0  0
    5.0287   -8.9365   16.8223 C   0  0  0  0  0  0  0  0  0  0  0  0
    8.7742   -6.1498   16.6764 C   0  0  0  0  0  0  0  0  0  0  0  0
   10.9418   -3.4032   21.2053 O   0  0  0  0  0  0  0  0  0  0  0  0
    1.4797   -8.6258   16.2950 C   0  0  0  0  0  0  0  0  0  0  0  0
    9.2861   -1.2743   25.3585 C   0  0  0  0  0  0  0  0  0  0  0  0
    1.8892  -10.3985   17.7511 N   0  0  0  0  0  0  0  0  0  0  0  0
    9.6210   -0.6952   24.0976 C   0  0  0  0  0  0  0  0  0  0  0  0
    7.0792   -9.0217   17.1429 C   0  0  0  0  0  0  0  0  0  0  0  0
    3.1713  -10.1816   17.6634 C   0  0  0  0  0  0  0  0  0  0  0  0
    2.7878   -8.3822   16.2137 C   0  0  0  0  0  0  0  0  0  0  0  0
    9.4601   -2.6590   25.6528 C   0  0  0  0  0  0  0  0  0  0  0  0
   10.1182   -1.5672   23.1165 C   0  0  0  0  0  0  0  0  0  0  0  0
    1.0552   -9.6360   17.0650 C   0  0  0  0  0  0  0  0  0  0  0  0
    3.6519   -9.1783   16.9039 C   0  0  0  0  0  0  0  0  0  0  0  0
    7.8675   -7.0096   15.9415 C   0  0  0  0  0  0  0  0  0  0  0  0
    5.9733   -9.6553   17.3832 N   0  0  0  0  0  0  0  0  0  0  0  0
   10.2411   -2.9363   23.4301 C   0  0  0  0  0  0  0  0  0  0  0  0
   10.7288   -3.8197   19.9525 C   0  0  0  0  0  0  0  0  0  0  0  0
   10.1189   -5.0054   19.6987 C   0  0  0  0  0  0  0  0  0  0  0  0
  1  3  4  0
  1  7  4  0
  2 21  4  0
  2 27  4  0
  3  9  4  0
  3 10  4  0
  4  8  4  0
  4 18  4  0
  4 25  1  0
  5  9  4  0
  5 12  4  0
  6 13  1  0
  6 27  1  0
  7 28  4  0
  8 11  4  0
  9 29  4  0
 10 12  4  0
 11 24  1  0
 11 26  4  0
 12 25  1  0
 13 28  1  0
 14 20  4  0
 14 23  4  0
 15 17  4  0
 15 21  4  0
 16 19  4  0
 16 23  4  0
 17 22  4  0
 18 26  4  0
 19 24  4  0
 20 24  4  0
 22 27  4  0
 28 29  4  0
M  END
$$$$

 Created by Python create_sdf_string function

 29 33  0  0  0  0  0  0  0  0999 V2000
   10.7215   -3.3326   17.6437 C   0  0  0  0  0  0  0  0  0  0  0  0
    9.9489   -3.4675   24.6487 N   0  0  0  0  0  0  0  0  0  0  0  0
   10.0172   -4.4740   17.4101 C   0  0  0  0  0  0  0  0  0  0  0  0
    6.9051   -7.9575   16.4222 C   0  0  0  0  0  0  0  0  0  0  0  0
    8.9969   -6.3552   17.9668 N   0  0  0  0  0  0  0  0  0  0  0  0
   10.6702   -3.9051   22.4070 C   0  0  0  0  0  0  0  0  0  0  0  0
   11.0625   -3.0028   18.8894 C   0  0  0  0  0  0  0  0  0  0  0  0
    5.6180   -7.9194   16.1754 O   0  0  0  0  0  0  0  0  0  0  0  0
    9.7259   -5.3080   18.4485 C   0  0  0  0  0  0  0  0  0  0  0  0
    9.4578   -5.0200   16.3036 N   0  0  0  0  0  0  0  0  0  0  0  0
    5.0287   -8.9365   16.8223 C   0  0  0  0  0  0  0  0  0  0  0  0
    8.7742   -6.1498   16.6764 C   0  0  0  0  0  0  0  0  0  0  0  0
   10.9418   -3.4032   21.2053 O   0  0  0  0  0  0  0  0  0  0  0  0
    1.4797   -8.6258   16.2950 C   0  0  0  0  0  0  0  0  0  0  0  0
    9.2861   -1.2743   25.3585 C   0  0  0  0  0  0  0  0  0  0  0  0
    1.8892  -10.3985   17.7511 N   0  0  0  0  0  0  0  0  0  0  0  0
    9.6210   -0.6952   24.0976 C   0  0  0  0  0  0  0  0  0  0  0  0
    7.0792   -9.0217   17.1429 C   0  0  0  0  0  0  0  0  0  0  0  0
    3.1713  -10.1816   17.6634 C   0  0  0  0  0  0  0  0  0  0  0  0
    2.7878   -8.3822   16.2137 C   0  0  0  0  0  0  0  0  0  0  0  0
    9.4601   -2.6590   25.6528 C   0  0  0  0  0  0  0  0  0  0  0  0
   10.1182   -1.5672   23.1165 C   0  0  0  0  0  0  0  0  0  0  0  0
    1.0552   -9.6360   17.0650 C   0  0  0  0  0  0  0  0  0  0  0  0
    3.6519   -9.1783   16.9039 C   0  0  0  0  0  0  0  0  0  0  0  0
    7.8675   -7.0096   15.9415 C   0  0  0  0  0  0  0  0  0  0  0  0
    5.9733   -9.6553   17.3832 N   0  0  0  0  0  0  0  0  0  0  0  0
   10.2411   -2.9363   23.4301 C   0  0  0  0  0  0  0  0  0  0  0  0
   10.7288   -3.8197   19.9525 C   0  0  0  0  0  0  0  0  0  0  0  0
   10.1189   -5.0054   19.6987 C   0  0  0  0  0  0  0  0  0  0  0  0
  1  3  4  0
  1  7  4  0
  2 21  4  0
  2 27  4  0
  3  9  4  0
  3 10  4  0
  4  8  4  0
  4 18  4  0
  4 25  1  0
  5  9  4  0
  5 12  4  0
  6 13  1  0
  6 27  1  0
  7 28  4  0
  8 11  4  0
  9 29  4  0
 10 12  4  0
 11 24  1  0
 11 26  4  0
 12 25  1  0
 13 28  1  0
 14 20  4  0
 14 23  4  0
 15 17  4  0
 15 21  4  0
 16 19  4  0
 16 23  4  0
 17 22  4  0
 18 26  4  0
 19 24  4  0
 20 24  4  0
 22 27  4  0
 28 29  4  0
M  END
$$$$

 Created by Python create_sdf_string function

 29 33  0  0  0  0  0  0  0  0999 V2000
   10.7215   -3.3326   17.6437 C   0  0  0  0  0  0  0  0  0  0  0  0
    9.9489   -3.4675   24.6487 N   0  0  0  0  0  0  0  0  0  0  0  0
   10.0172   -4.4740   17.4101 C   0  0  0  0  0  0  0  0  0  0  0  0
    6.9051   -7.9575   16.4222 C   0  0  0  0  0  0  0  0  0  0  0  0
    8.9969   -6.3552   17.9668 N   0  0  0  0  0  0  0  0  0  0  0  0
   10.6702   -3.9051   22.4070 C   0  0  0  0  0  0  0  0  0  0  0  0
   11.0625   -3.0028   18.8894 C   0  0  0  0  0  0  0  0  0  0  0  0
    5.6180   -7.9194   16.1754 O   0  0  0  0  0  0  0  0  0  0  0  0
    9.7259   -5.3080   18.4485 C   0  0  0  0  0  0  0  0  0  0  0  0
    9.4578   -5.0200   16.3036 N   0  0  0  0  0  0  0  0  0  0  0  0
    5.0287   -8.9365   16.8223 C   0  0  0  0  0  0  0  0  0  0  0  0
    8.7742   -6.1498   16.6764 C   0  0  0  0  0  0  0  0  0  0  0  0
   10.9418   -3.4032   21.2053 O   0  0  0  0  0  0  0  0  0  0  0  0
    1.4797   -8.6258   16.2950 C   0  0  0  0  0  0  0  0  0  0  0  0
    9.2861   -1.2743   25.3585 C   0  0  0  0  0  0  0  0  0  0  0  0
    1.8892  -10.3985   17.7511 N   0  0  0  0  0  0  0  0  0  0  0  0
    9.6210   -0.6952   24.0976 C   0  0  0  0  0  0  0  0  0  0  0  0
    7.0792   -9.0217   17.1429 C   0  0  0  0  0  0  0  0  0  0  0  0
    3.1713  -10.1816   17.6634 C   0  0  0  0  0  0  0  0  0  0  0  0
    2.7878   -8.3822   16.2137 C   0  0  0  0  0  0  0  0  0  0  0  0
    9.4601   -2.6590   25.6528 C   0  0  0  0  0  0  0  0  0  0  0  0
   10.1182   -1.5672   23.1165 C   0  0  0  0  0  0  0  0  0  0  0  0
    1.0552   -9.6360   17.0650 C   0  0  0  0  0  0  0  0  0  0  0  0
    3.6519   -9.1783   16.9039 C   0  0  0  0  0  0  0  0  0  0  0  0
    7.8675   -7.0096   15.9415 C   0  0  0  0  0  0  0  0  0  0  0  0
    5.9733   -9.6553   17.3832 N   0  0  0  0  0  0  0  0  0  0  0  0
   10.2411   -2.9363   23.4301 C   0  0  0  0  0  0  0  0  0  0  0  0
   10.7288   -3.8197   19.9525 C   0  0  0  0  0  0  0  0  0  0  0  0
   10.1189   -5.0054   19.6987 C   0  0  0  0  0  0  0  0  0  0  0  0
  1  3  4  0
  1  7  4  0
  2 21  4  0
  2 27  4  0
  3  9  4  0
  3 10  4  0
  4  8  4  0
  4 18  4  0
  4 25  1  0
  5  9  4  0
  5 12  4  0
  6 13  1  0
  6 27  1  0
  7 28  4  0
  8 11  4  0
  9 29  4  0
 10 12  4  0
 11 24  1  0
 11 26  4  0
 12 25  1  0
 13 28  1  0
 14 20  4  0
 14 23  4  0
 15 17  4  0
 15 21  4  0
 16 19  4  0
 16 23  4  0
 17 22  4  0
 18 26  4  0
 19 24  4  0
 20 24  4  0
 22 27  4  0
 28 29  4  0
M  END
$$$$

 Created by Python create_sdf_string function

 29 33  0  0  0  0  0  0  0  0999 V2000
   10.7215   -3.3326   17.6437 C   0  0  0  0  0  0  0  0  0  0  0  0
    9.9489   -3.4675   24.6487 N   0  0  0  0  0  0  0  0  0  0  0  0
   10.0172   -4.4740   17.4101 C   0  0  0  0  0  0  0  0  0  0  0  0
    6.9051   -7.9575   16.4222 C   0  0  0  0  0  0  0  0  0  0  0  0
    8.9969   -6.3552   17.9668 N   0  0  0  0  0  0  0  0  0  0  0  0
   10.6702   -3.9051   22.4070 C   0  0  0  0  0  0  0  0  0  0  0  0
   11.0625   -3.0028   18.8894 C   0  0  0  0  0  0  0  0  0  0  0  0
    5.6180   -7.9194   16.1754 O   0  0  0  0  0  0  0  0  0  0  0  0
    9.7259   -5.3080   18.4485 C   0  0  0  0  0  0  0  0  0  0  0  0
    9.4578   -5.0200   16.3036 N   0  0  0  0  0  0  0  0  0  0  0  0
    5.0287   -8.9365   16.8223 C   0  0  0  0  0  0  0  0  0  0  0  0
    8.7742   -6.1498   16.6764 C   0  0  0  0  0  0  0  0  0  0  0  0
   10.9418   -3.4032   21.2053 O   0  0  0  0  0  0  0  0  0  0  0  0
    1.4797   -8.6258   16.2950 C   0  0  0  0  0  0  0  0  0  0  0  0
    9.2861   -1.2743   25.3585 C   0  0  0  0  0  0  0  0  0  0  0  0
    1.8892  -10.3985   17.7511 N   0  0  0  0  0  0  0  0  0  0  0  0
    9.6210   -0.6952   24.0976 C   0  0  0  0  0  0  0  0  0  0  0  0
    7.0792   -9.0217   17.1429 C   0  0  0  0  0  0  0  0  0  0  0  0
    3.1713  -10.1816   17.6634 C   0  0  0  0  0  0  0  0  0  0  0  0
    2.7878   -8.3822   16.2137 C   0  0  0  0  0  0  0  0  0  0  0  0
    9.4601   -2.6590   25.6528 C   0  0  0  0  0  0  0  0  0  0  0  0
   10.1182   -1.5672   23.1165 C   0  0  0  0  0  0  0  0  0  0  0  0
    1.0552   -9.6360   17.0650 C   0  0  0  0  0  0  0  0  0  0  0  0
    3.6519   -9.1783   16.9039 C   0  0  0  0  0  0  0  0  0  0  0  0
    7.8675   -7.0096   15.9415 C   0  0  0  0  0  0  0  0  0  0  0  0
    5.9733   -9.6553   17.3832 N   0  0  0  0  0  0  0  0  0  0  0  0
   10.2411   -2.9363   23.4301 C   0  0  0  0  0  0  0  0  0  0  0  0
   10.7288   -3.8197   19.9525 C   0  0  0  0  0  0  0  0  0  0  0  0
   10.1189   -5.0054   19.6987 C   0  0  0  0  0  0  0  0  0  0  0  0
  1  3  4  0
  1  7  4  0
  2 21  4  0
  2 27  4  0
  3  9  4  0
  3 10  4  0
  4  8  4  0
  4 18  4  0
  4 25  1  0
  5  9  4  0
  5 12  4  0
  6 13  1  0
  6 27  1  0
  7 28  4  0
  8 11  4  0
  9 29  4  0
 10 12  4  0
 11 24  1  0
 11 26  4  0
 12 25  1  0
 13 28  1  0
 14 20  4  0
 14 23  4  0
 15 17  4  0
 15 21  4  0
 16 19  4  0
 16 23  4  0
 17 22  4  0
 18 26  4  0
 19 24  4  0
 20 24  4  0
 22 27  4  0
 28 29  4  0
M  END
$$$$

 Created by Python create_sdf_string function

 29 33  0  0  0  0  0  0  0  0999 V2000
   10.7215   -3.3326   17.6437 C   0  0  0  0  0  0  0  0  0  0  0  0
    9.9489   -3.4675   24.6487 N   0  0  0  0  0  0  0  0  0  0  0  0
   10.0172   -4.4740   17.4101 C   0  0  0  0  0  0  0  0  0  0  0  0
    6.9051   -7.9575   16.4222 C   0  0  0  0  0  0  0  0  0  0  0  0
    8.9969   -6.3552   17.9668 N   0  0  0  0  0  0  0  0  0  0  0  0
   10.6702   -3.9051   22.4070 C   0  0  0  0  0  0  0  0  0  0  0  0
   11.0625   -3.0028   18.8894 C   0  0  0  0  0  0  0  0  0  0  0  0
    5.6180   -7.9194   16.1754 O   0  0  0  0  0  0  0  0  0  0  0  0
    9.7259   -5.3080   18.4485 C   0  0  0  0  0  0  0  0  0  0  0  0
    9.4578   -5.0200   16.3036 N   0  0  0  0  0  0  0  0  0  0  0  0
    5.0287   -8.9365   16.8223 C   0  0  0  0  0  0  0  0  0  0  0  0
    8.7742   -6.1498   16.6764 C   0  0  0  0  0  0  0  0  0  0  0  0
   10.9418   -3.4032   21.2053 O   0  0  0  0  0  0  0  0  0  0  0  0
    1.4797   -8.6258   16.2950 C   0  0  0  0  0  0  0  0  0  0  0  0
    9.2861   -1.2743   25.3585 C   0  0  0  0  0  0  0  0  0  0  0  0
    1.8892  -10.3985   17.7511 N   0  0  0  0  0  0  0  0  0  0  0  0
    9.6210   -0.6952   24.0976 C   0  0  0  0  0  0  0  0  0  0  0  0
    7.0792   -9.0217   17.1429 C   0  0  0  0  0  0  0  0  0  0  0  0
    3.1713  -10.1816   17.6634 C   0  0  0  0  0  0  0  0  0  0  0  0
    2.7878   -8.3822   16.2137 C   0  0  0  0  0  0  0  0  0  0  0  0
    9.4601   -2.6590   25.6528 C   0  0  0  0  0  0  0  0  0  0  0  0
   10.1182   -1.5672   23.1165 C   0  0  0  0  0  0  0  0  0  0  0  0
    1.0552   -9.6360   17.0650 C   0  0  0  0  0  0  0  0  0  0  0  0
    3.6519   -9.1783   16.9039 C   0  0  0  0  0  0  0  0  0  0  0  0
    7.8675   -7.0096   15.9415 C   0  0  0  0  0  0  0  0  0  0  0  0
    5.9733   -9.6553   17.3832 N   0  0  0  0  0  0  0  0  0  0  0  0
   10.2411   -2.9363   23.4301 C   0  0  0  0  0  0  0  0  0  0  0  0
   10.7288   -3.8197   19.9525 C   0  0  0  0  0  0  0  0  0  0  0  0
   10.1189   -5.0054   19.6987 C   0  0  0  0  0  0  0  0  0  0  0  0
  1  3  4  0
  1  7  4  0
  2 21  4  0
  2 27  4  0
  3  9  4  0
  3 10  4  0
  4  8  4  0
  4 18  4  0
  4 25  1  0
  5  9  4  0
  5 12  4  0
  6 13  1  0
  6 27  1  0
  7 28  4  0
  8 11  4  0
  9 29  4  0
 10 12  4  0
 11 24  1  0
 11 26  4  0
 12 25  1  0
 13 28  1  0
 14 20  4  0
 14 23  4  0
 15 17  4  0
 15 21  4  0
 16 19  4  0
 16 23  4  0
 17 22  4  0
 18 26  4  0
 19 24  4  0
 20 24  4  0
 22 27  4  0
 28 29  4  0
M  END
$$$$

 Created by Python create_sdf_string function

 29 33  0  0  0  0  0  0  0  0999 V2000
   10.7215   -3.3326   17.6437 C   0  0  0  0  0  0  0  0  0  0  0  0
    9.9489   -3.4675   24.6487 N   0  0  0  0  0  0  0  0  0  0  0  0
   10.0172   -4.4740   17.4101 C   0  0  0  0  0  0  0  0  0  0  0  0
    6.9051   -7.9575   16.4222 C   0  0  0  0  0  0  0  0  0  0  0  0
    8.9969   -6.3552   17.9668 N   0  0  0  0  0  0  0  0  0  0  0  0
   10.6702   -3.9051   22.4070 C   0  0  0  0  0  0  0  0  0  0  0  0
   11.0625   -3.0028   18.8894 C   0  0  0  0  0  0  0  0  0  0  0  0
    5.6180   -7.9194   16.1754 O   0  0  0  0  0  0  0  0  0  0  0  0
    9.7259   -5.3080   18.4485 C   0  0  0  0  0  0  0  0  0  0  0  0
    9.4578   -5.0200   16.3036 N   0  0  0  0  0  0  0  0  0  0  0  0
    5.0287   -8.9365   16.8223 C   0  0  0  0  0  0  0  0  0  0  0  0
    8.7742   -6.1498   16.6764 C   0  0  0  0  0  0  0  0  0  0  0  0
   10.9418   -3.4032   21.2053 O   0  0  0  0  0  0  0  0  0  0  0  0
    1.4797   -8.6258   16.2950 C   0  0  0  0  0  0  0  0  0  0  0  0
    9.2861   -1.2743   25.3585 C   0  0  0  0  0  0  0  0  0  0  0  0
    1.8892  -10.3985   17.7511 N   0  0  0  0  0  0  0  0  0  0  0  0
    9.6210   -0.6952   24.0976 C   0  0  0  0  0  0  0  0  0  0  0  0
    7.0792   -9.0217   17.1429 C   0  0  0  0  0  0  0  0  0  0  0  0
    3.1713  -10.1816   17.6634 C   0  0  0  0  0  0  0  0  0  0  0  0
    2.7878   -8.3822   16.2137 C   0  0  0  0  0  0  0  0  0  0  0  0
    9.4601   -2.6590   25.6528 C   0  0  0  0  0  0  0  0  0  0  0  0
   10.1182   -1.5672   23.1165 C   0  0  0  0  0  0  0  0  0  0  0  0
    1.0552   -9.6360   17.0650 C   0  0  0  0  0  0  0  0  0  0  0  0
    3.6519   -9.1783   16.9039 C   0  0  0  0  0  0  0  0  0  0  0  0
    7.8675   -7.0096   15.9415 C   0  0  0  0  0  0  0  0  0  0  0  0
    5.9733   -9.6553   17.3832 N   0  0  0  0  0  0  0  0  0  0  0  0
   10.2411   -2.9363   23.4301 C   0  0  0  0  0  0  0  0  0  0  0  0
   10.7288   -3.8197   19.9525 C   0  0  0  0  0  0  0  0  0  0  0  0
   10.1189   -5.0054   19.6987 C   0  0  0  0  0  0  0  0  0  0  0  0
  1  3  4  0
  1  7  4  0
  2 21  4  0
  2 27  4  0
  3  9  4  0
  3 10  4  0
  4  8  4  0
  4 18  4  0
  4 25  1  0
  5  9  4  0
  5 12  4  0
  6 13  1  0
  6 27  1  0
  7 28  4  0
  8 11  4  0
  9 29  4  0
 10 12  4  0
 11 24  1  0
 11 26  4  0
 12 25  1  0
 13 28  1  0
 14 20  4  0
 14 23  4  0
 15 17  4  0
 15 21  4  0
 16 19  4  0
 16 23  4  0
 17 22  4  0
 18 26  4  0
 19 24  4  0
 20 24  4  0
 22 27  4  0
 28 29  4  0
M  END
$$$$

 Created by Python create_sdf_string function

 29 33  0  0  0  0  0  0  0  0999 V2000
   10.7215   -3.3326   17.6437 C   0  0  0  0  0  0  0  0  0  0  0  0
    9.9489   -3.4675   24.6487 N   0  0  0  0  0  0  0  0  0  0  0  0
   10.0172   -4.4740   17.4101 C   0  0  0  0  0  0  0  0  0  0  0  0
    6.9051   -7.9575   16.4222 C   0  0  0  0  0  0  0  0  0  0  0  0
    8.9969   -6.3552   17.9668 N   0  0  0  0  0  0  0  0  0  0  0  0
   10.6702   -3.9051   22.4070 C   0  0  0  0  0  0  0  0  0  0  0  0
   11.0625   -3.0028   18.8894 C   0  0  0  0  0  0  0  0  0  0  0  0
    5.6180   -7.9194   16.1754 O   0  0  0  0  0  0  0  0  0  0  0  0
    9.7259   -5.3080   18.4485 C   0  0  0  0  0  0  0  0  0  0  0  0
    9.4578   -5.0200   16.3036 N   0  0  0  0  0  0  0  0  0  0  0  0
    5.0287   -8.9365   16.8223 C   0  0  0  0  0  0  0  0  0  0  0  0
    8.7742   -6.1498   16.6764 C   0  0  0  0  0  0  0  0  0  0  0  0
   10.9418   -3.4032   21.2053 O   0  0  0  0  0  0  0  0  0  0  0  0
    1.4797   -8.6258   16.2950 C   0  0  0  0  0  0  0  0  0  0  0  0
    9.2861   -1.2743   25.3585 C   0  0  0  0  0  0  0  0  0  0  0  0
    1.8892  -10.3985   17.7511 N   0  0  0  0  0  0  0  0  0  0  0  0
    9.6210   -0.6952   24.0976 C   0  0  0  0  0  0  0  0  0  0  0  0
    7.0792   -9.0217   17.1429 C   0  0  0  0  0  0  0  0  0  0  0  0
    3.1713  -10.1816   17.6634 C   0  0  0  0  0  0  0  0  0  0  0  0
    2.7878   -8.3822   16.2137 C   0  0  0  0  0  0  0  0  0  0  0  0
    9.4601   -2.6590   25.6528 C   0  0  0  0  0  0  0  0  0  0  0  0
   10.1182   -1.5672   23.1165 C   0  0  0  0  0  0  0  0  0  0  0  0
    1.0552   -9.6360   17.0650 C   0  0  0  0  0  0  0  0  0  0  0  0
    3.6519   -9.1783   16.9039 C   0  0  0  0  0  0  0  0  0  0  0  0
    7.8675   -7.0096   15.9415 C   0  0  0  0  0  0  0  0  0  0  0  0
    5.9733   -9.6553   17.3832 N   0  0  0  0  0  0  0  0  0  0  0  0
   10.2411   -2.9363   23.4301 C   0  0  0  0  0  0  0  0  0  0  0  0
   10.7288   -3.8197   19.9525 C   0  0  0  0  0  0  0  0  0  0  0  0
   10.1189   -5.0054   19.6987 C   0  0  0  0  0  0  0  0  0  0  0  0
  1  3  4  0
  1  7  4  0
  2 21  4  0
  2 27  4  0
  3  9  4  0
  3 10  4  0
  4  8  4  0
  4 18  4  0
  4 25  1  0
  5  9  4  0
  5 12  4  0
  6 13  1  0
  6 27  1  0
  7 28  4  0
  8 11  4  0
  9 29  4  0
 10 12  4  0
 11 24  1  0
 11 26  4  0
 12 25  1  0
 13 28  1  0
 14 20  4  0
 14 23  4  0
 15 17  4  0
 15 21  4  0
 16 19  4  0
 16 23  4  0
 17 22  4  0
 18 26  4  0
 19 24  4  0
 20 24  4  0
 22 27  4  0
 28 29  4  0
M  END
$$$$

 Created by Python create_sdf_string function

 29 33  0  0  0  0  0  0  0  0999 V2000
   10.7215   -3.3326   17.6437 C   0  0  0  0  0  0  0  0  0  0  0  0
    9.9489   -3.4675   24.6487 N   0  0  0  0  0  0  0  0  0  0  0  0
   10.0172   -4.4740   17.4101 C   0  0  0  0  0  0  0  0  0  0  0  0
    6.9051   -7.9575   16.4222 C   0  0  0  0  0  0  0  0  0  0  0  0
    8.9969   -6.3552   17.9668 N   0  0  0  0  0  0  0  0  0  0  0  0
   10.6702   -3.9051   22.4070 C   0  0  0  0  0  0  0  0  0  0  0  0
   11.0625   -3.0028   18.8894 C   0  0  0  0  0  0  0  0  0  0  0  0
    5.6180   -7.9194   16.1754 O   0  0  0  0  0  0  0  0  0  0  0  0
    9.7259   -5.3080   18.4485 C   0  0  0  0  0  0  0  0  0  0  0  0
    9.4578   -5.0200   16.3036 N   0  0  0  0  0  0  0  0  0  0  0  0
    5.0287   -8.9365   16.8223 C   0  0  0  0  0  0  0  0  0  0  0  0
    8.7742   -6.1498   16.6764 C   0  0  0  0  0  0  0  0  0  0  0  0
   10.9418   -3.4032   21.2053 O   0  0  0  0  0  0  0  0  0  0  0  0
    1.4797   -8.6258   16.2950 C   0  0  0  0  0  0  0  0  0  0  0  0
    9.2861   -1.2743   25.3585 C   0  0  0  0  0  0  0  0  0  0  0  0
    1.8892  -10.3985   17.7511 N   0  0  0  0  0  0  0  0  0  0  0  0
    9.6210   -0.6952   24.0976 C   0  0  0  0  0  0  0  0  0  0  0  0
    7.0792   -9.0217   17.1429 C   0  0  0  0  0  0  0  0  0  0  0  0
    3.1713  -10.1816   17.6634 C   0  0  0  0  0  0  0  0  0  0  0  0
    2.7878   -8.3822   16.2137 C   0  0  0  0  0  0  0  0  0  0  0  0
    9.4601   -2.6590   25.6528 C   0  0  0  0  0  0  0  0  0  0  0  0
   10.1182   -1.5672   23.1165 C   0  0  0  0  0  0  0  0  0  0  0  0
    1.0552   -9.6360   17.0650 C   0  0  0  0  0  0  0  0  0  0  0  0
    3.6519   -9.1783   16.9039 C   0  0  0  0  0  0  0  0  0  0  0  0
    7.8675   -7.0096   15.9415 C   0  0  0  0  0  0  0  0  0  0  0  0
    5.9733   -9.6553   17.3832 N   0  0  0  0  0  0  0  0  0  0  0  0
   10.2411   -2.9363   23.4301 C   0  0  0  0  0  0  0  0  0  0  0  0
   10.7288   -3.8197   19.9525 C   0  0  0  0  0  0  0  0  0  0  0  0
   10.1189   -5.0054   19.6987 C   0  0  0  0  0  0  0  0  0  0  0  0
  1  3  4  0
  1  7  4  0
  2 21  4  0
  2 27  4  0
  3  9  4  0
  3 10  4  0
  4  8  4  0
  4 18  4  0
  4 25  1  0
  5  9  4  0
  5 12  4  0
  6 13  1  0
  6 27  1  0
  7 28  4  0
  8 11  4  0
  9 29  4  0
 10 12  4  0
 11 24  1  0
 11 26  4  0
 12 25  1  0
 13 28  1  0
 14 20  4  0
 14 23  4  0
 15 17  4  0
 15 21  4  0
 16 19  4  0
 16 23  4  0
 17 22  4  0
 18 26  4  0
 19 24  4  0
 20 24  4  0
 22 27  4  0
 28 29  4  0
M  END
$$$$

 Created by Python create_sdf_string function

 29 33  0  0  0  0  0  0  0  0999 V2000
   10.7215   -3.3326   17.6437 C   0  0  0  0  0  0  0  0  0  0  0  0
    9.9489   -3.4675   24.6487 N   0  0  0  0  0  0  0  0  0  0  0  0
   10.0172   -4.4740   17.4101 C   0  0  0  0  0  0  0  0  0  0  0  0
    6.9051   -7.9575   16.4222 C   0  0  0  0  0  0  0  0  0  0  0  0
    8.9969   -6.3552   17.9668 N   0  0  0  0  0  0  0  0  0  0  0  0
   10.6702   -3.9051   22.4070 C   0  0  0  0  0  0  0  0  0  0  0  0
   11.0625   -3.0028   18.8894 C   0  0  0  0  0  0  0  0  0  0  0  0
    5.6180   -7.9194   16.1754 O   0  0  0  0  0  0  0  0  0  0  0  0
    9.7259   -5.3080   18.4485 C   0  0  0  0  0  0  0  0  0  0  0  0
    9.4578   -5.0200   16.3036 N   0  0  0  0  0  0  0  0  0  0  0  0
    5.0287   -8.9365   16.8223 C   0  0  0  0  0  0  0  0  0  0  0  0
    8.7742   -6.1498   16.6764 C   0  0  0  0  0  0  0  0  0  0  0  0
   10.9418   -3.4032   21.2053 O   0  0  0  0  0  0  0  0  0  0  0  0
    1.4797   -8.6258   16.2950 C   0  0  0  0  0  0  0  0  0  0  0  0
    9.2861   -1.2743   25.3585 C   0  0  0  0  0  0  0  0  0  0  0  0
    1.8892  -10.3985   17.7511 N   0  0  0  0  0  0  0  0  0  0  0  0
    9.6210   -0.6952   24.0976 C   0  0  0  0  0  0  0  0  0  0  0  0
    7.0792   -9.0217   17.1429 C   0  0  0  0  0  0  0  0  0  0  0  0
    3.1713  -10.1816   17.6634 C   0  0  0  0  0  0  0  0  0  0  0  0
    2.7878   -8.3822   16.2137 C   0  0  0  0  0  0  0  0  0  0  0  0
    9.4601   -2.6590   25.6528 C   0  0  0  0  0  0  0  0  0  0  0  0
   10.1182   -1.5672   23.1165 C   0  0  0  0  0  0  0  0  0  0  0  0
    1.0552   -9.6360   17.0650 C   0  0  0  0  0  0  0  0  0  0  0  0
    3.6519   -9.1783   16.9039 C   0  0  0  0  0  0  0  0  0  0  0  0
    7.8675   -7.0096   15.9415 C   0  0  0  0  0  0  0  0  0  0  0  0
    5.9733   -9.6553   17.3832 N   0  0  0  0  0  0  0  0  0  0  0  0
   10.2411   -2.9363   23.4301 C   0  0  0  0  0  0  0  0  0  0  0  0
   10.7288   -3.8197   19.9525 C   0  0  0  0  0  0  0  0  0  0  0  0
   10.1189   -5.0054   19.6987 C   0  0  0  0  0  0  0  0  0  0  0  0
  1  3  4  0
  1  7  4  0
  2 21  4  0
  2 27  4  0
  3  9  4  0
  3 10  4  0
  4  8  4  0
  4 18  4  0
  4 25  1  0
  5  9  4  0
  5 12  4  0
  6 13  1  0
  6 27  1  0
  7 28  4  0
  8 11  4  0
  9 29  4  0
 10 12  4  0
 11 24  1  0
 11 26  4  0
 12 25  1  0
 13 28  1  0
 14 20  4  0
 14 23  4  0
 15 17  4  0
 15 21  4  0
 16 19  4  0
 16 23  4  0
 17 22  4  0
 18 26  4  0
 19 24  4  0
 20 24  4  0
 22 27  4  0
 28 29  4  0
M  END
$$$$

 Created by Python create_sdf_string function

 29 33  0  0  0  0  0  0  0  0999 V2000
   10.7215   -3.3326   17.6437 C   0  0  0  0  0  0  0  0  0  0  0  0
    9.9489   -3.4675   24.6487 N   0  0  0  0  0  0  0  0  0  0  0  0
   10.0172   -4.4740   17.4101 C   0  0  0  0  0  0  0  0  0  0  0  0
    6.9051   -7.9575   16.4222 C   0  0  0  0  0  0  0  0  0  0  0  0
    8.9969   -6.3552   17.9668 N   0  0  0  0  0  0  0  0  0  0  0  0
   10.6702   -3.9051   22.4070 C   0  0  0  0  0  0  0  0  0  0  0  0
   11.0625   -3.0028   18.8894 C   0  0  0  0  0  0  0  0  0  0  0  0
    5.6180   -7.9194   16.1754 O   0  0  0  0  0  0  0  0  0  0  0  0
    9.7259   -5.3080   18.4485 C   0  0  0  0  0  0  0  0  0  0  0  0
    9.4578   -5.0200   16.3036 N   0  0  0  0  0  0  0  0  0  0  0  0
    5.0287   -8.9365   16.8223 C   0  0  0  0  0  0  0  0  0  0  0  0
    8.7742   -6.1498   16.6764 C   0  0  0  0  0  0  0  0  0  0  0  0
   10.9418   -3.4032   21.2053 O   0  0  0  0  0  0  0  0  0  0  0  0
    1.4797   -8.6258   16.2950 C   0  0  0  0  0  0  0  0  0  0  0  0
    9.2861   -1.2743   25.3585 C   0  0  0  0  0  0  0  0  0  0  0  0
    1.8892  -10.3985   17.7511 N   0  0  0  0  0  0  0  0  0  0  0  0
    9.6210   -0.6952   24.0976 C   0  0  0  0  0  0  0  0  0  0  0  0
    7.0792   -9.0217   17.1429 C   0  0  0  0  0  0  0  0  0  0  0  0
    3.1713  -10.1816   17.6634 C   0  0  0  0  0  0  0  0  0  0  0  0
    2.7878   -8.3822   16.2137 C   0  0  0  0  0  0  0  0  0  0  0  0
    9.4601   -2.6590   25.6528 C   0  0  0  0  0  0  0  0  0  0  0  0
   10.1182   -1.5672   23.1165 C   0  0  0  0  0  0  0  0  0  0  0  0
    1.0552   -9.6360   17.0650 C   0  0  0  0  0  0  0  0  0  0  0  0
    3.6519   -9.1783   16.9039 C   0  0  0  0  0  0  0  0  0  0  0  0
    7.8675   -7.0096   15.9415 C   0  0  0  0  0  0  0  0  0  0  0  0
    5.9733   -9.6553   17.3832 N   0  0  0  0  0  0  0  0  0  0  0  0
   10.2411   -2.9363   23.4301 C   0  0  0  0  0  0  0  0  0  0  0  0
   10.7288   -3.8197   19.9525 C   0  0  0  0  0  0  0  0  0  0  0  0
   10.1189   -5.0054   19.6987 C   0  0  0  0  0  0  0  0  0  0  0  0
  1  3  4  0
  1  7  4  0
  2 21  4  0
  2 27  4  0
  3  9  4  0
  3 10  4  0
  4  8  4  0
  4 18  4  0
  4 25  1  0
  5  9  4  0
  5 12  4  0
  6 13  1  0
  6 27  1  0
  7 28  4  0
  8 11  4  0
  9 29  4  0
 10 12  4  0
 11 24  1  0
 11 26  4  0
 12 25  1  0
 13 28  1  0
 14 20  4  0
 14 23  4  0
 15 17  4  0
 15 21  4  0
 16 19  4  0
 16 23  4  0
 17 22  4  0
 18 26  4  0
 19 24  4  0
 20 24  4  0
 22 27  4  0
 28 29  4  0
M  END
$$$$

 Created by Python create_sdf_string function

 29 33  0  0  0  0  0  0  0  0999 V2000
   10.7215   -3.3326   17.6437 C   0  0  0  0  0  0  0  0  0  0  0  0
    9.9489   -3.4675   24.6487 N   0  0  0  0  0  0  0  0  0  0  0  0
   10.0172   -4.4740   17.4101 C   0  0  0  0  0  0  0  0  0  0  0  0
    6.9051   -7.9575   16.4222 C   0  0  0  0  0  0  0  0  0  0  0  0
    8.9969   -6.3552   17.9668 N   0  0  0  0  0  0  0  0  0  0  0  0
   10.6702   -3.9051   22.4070 C   0  0  0  0  0  0  0  0  0  0  0  0
   11.0625   -3.0028   18.8894 C   0  0  0  0  0  0  0  0  0  0  0  0
    5.6180   -7.9194   16.1754 O   0  0  0  0  0  0  0  0  0  0  0  0
    9.7259   -5.3080   18.4485 C   0  0  0  0  0  0  0  0  0  0  0  0
    9.4578   -5.0200   16.3036 N   0  0  0  0  0  0  0  0  0  0  0  0
    5.0287   -8.9365   16.8223 C   0  0  0  0  0  0  0  0  0  0  0  0
    8.7742   -6.1498   16.6764 C   0  0  0  0  0  0  0  0  0  0  0  0
   10.9418   -3.4032   21.2053 O   0  0  0  0  0  0  0  0  0  0  0  0
    1.4797   -8.6258   16.2950 C   0  0  0  0  0  0  0  0  0  0  0  0
    9.2861   -1.2743   25.3585 C   0  0  0  0  0  0  0  0  0  0  0  0
    1.8892  -10.3985   17.7511 N   0  0  0  0  0  0  0  0  0  0  0  0
    9.6210   -0.6952   24.0976 C   0  0  0  0  0  0  0  0  0  0  0  0
    7.0792   -9.0217   17.1429 C   0  0  0  0  0  0  0  0  0  0  0  0
    3.1713  -10.1816   17.6634 C   0  0  0  0  0  0  0  0  0  0  0  0
    2.7878   -8.3822   16.2137 C   0  0  0  0  0  0  0  0  0  0  0  0
    9.4601   -2.6590   25.6528 C   0  0  0  0  0  0  0  0  0  0  0  0
   10.1182   -1.5672   23.1165 C   0  0  0  0  0  0  0  0  0  0  0  0
    1.0552   -9.6360   17.0650 C   0  0  0  0  0  0  0  0  0  0  0  0
    3.6519   -9.1783   16.9039 C   0  0  0  0  0  0  0  0  0  0  0  0
    7.8675   -7.0096   15.9415 C   0  0  0  0  0  0  0  0  0  0  0  0
    5.9733   -9.6553   17.3832 N   0  0  0  0  0  0  0  0  0  0  0  0
   10.2411   -2.9363   23.4301 C   0  0  0  0  0  0  0  0  0  0  0  0
   10.7288   -3.8197   19.9525 C   0  0  0  0  0  0  0  0  0  0  0  0
   10.1189   -5.0054   19.6987 C   0  0  0  0  0  0  0  0  0  0  0  0
  1  3  4  0
  1  7  4  0
  2 21  4  0
  2 27  4  0
  3  9  4  0
  3 10  4  0
  4  8  4  0
  4 18  4  0
  4 25  1  0
  5  9  4  0
  5 12  4  0
  6 13  1  0
  6 27  1  0
  7 28  4  0
  8 11  4  0
  9 29  4  0
 10 12  4  0
 11 24  1  0
 11 26  4  0
 12 25  1  0
 13 28  1  0
 14 20  4  0
 14 23  4  0
 15 17  4  0
 15 21  4  0
 16 19  4  0
 16 23  4  0
 17 22  4  0
 18 26  4  0
 19 24  4  0
 20 24  4  0
 22 27  4  0
 28 29  4  0
M  END
$$$$

 Created by Python create_sdf_string function

 29 33  0  0  0  0  0  0  0  0999 V2000
   10.7215   -3.3326   17.6437 C   0  0  0  0  0  0  0  0  0  0  0  0
    9.9489   -3.4675   24.6487 N   0  0  0  0  0  0  0  0  0  0  0  0
   10.0172   -4.4740   17.4101 C   0  0  0  0  0  0  0  0  0  0  0  0
    6.9051   -7.9575   16.4222 C   0  0  0  0  0  0  0  0  0  0  0  0
    8.9969   -6.3552   17.9668 N   0  0  0  0  0  0  0  0  0  0  0  0
   10.6702   -3.9051   22.4070 C   0  0  0  0  0  0  0  0  0  0  0  0
   11.0625   -3.0028   18.8894 C   0  0  0  0  0  0  0  0  0  0  0  0
    5.6180   -7.9194   16.1754 O   0  0  0  0  0  0  0  0  0  0  0  0
    9.7259   -5.3080   18.4485 C   0  0  0  0  0  0  0  0  0  0  0  0
    9.4578   -5.0200   16.3036 N   0  0  0  0  0  0  0  0  0  0  0  0
    5.0287   -8.9365   16.8223 C   0  0  0  0  0  0  0  0  0  0  0  0
    8.7742   -6.1498   16.6764 C   0  0  0  0  0  0  0  0  0  0  0  0
   10.9418   -3.4032   21.2053 O   0  0  0  0  0  0  0  0  0  0  0  0
    1.4797   -8.6258   16.2950 C   0  0  0  0  0  0  0  0  0  0  0  0
    9.2861   -1.2743   25.3585 C   0  0  0  0  0  0  0  0  0  0  0  0
    1.8892  -10.3985   17.7511 N   0  0  0  0  0  0  0  0  0  0  0  0
    9.6210   -0.6952   24.0976 C   0  0  0  0  0  0  0  0  0  0  0  0
    7.0792   -9.0217   17.1429 C   0  0  0  0  0  0  0  0  0  0  0  0
    3.1713  -10.1816   17.6634 C   0  0  0  0  0  0  0  0  0  0  0  0
    2.7878   -8.3822   16.2137 C   0  0  0  0  0  0  0  0  0  0  0  0
    9.4601   -2.6590   25.6528 C   0  0  0  0  0  0  0  0  0  0  0  0
   10.1182   -1.5672   23.1165 C   0  0  0  0  0  0  0  0  0  0  0  0
    1.0552   -9.6360   17.0650 C   0  0  0  0  0  0  0  0  0  0  0  0
    3.6519   -9.1783   16.9039 C   0  0  0  0  0  0  0  0  0  0  0  0
    7.8675   -7.0096   15.9415 C   0  0  0  0  0  0  0  0  0  0  0  0
    5.9733   -9.6553   17.3832 N   0  0  0  0  0  0  0  0  0  0  0  0
   10.2411   -2.9363   23.4301 C   0  0  0  0  0  0  0  0  0  0  0  0
   10.7288   -3.8197   19.9525 C   0  0  0  0  0  0  0  0  0  0  0  0
   10.1189   -5.0054   19.6987 C   0  0  0  0  0  0  0  0  0  0  0  0
  1  3  4  0
  1  7  4  0
  2 21  4  0
  2 27  4  0
  3  9  4  0
  3 10  4  0
  4  8  4  0
  4 18  4  0
  4 25  1  0
  5  9  4  0
  5 12  4  0
  6 13  1  0
  6 27  1  0
  7 28  4  0
  8 11  4  0
  9 29  4  0
 10 12  4  0
 11 24  1  0
 11 26  4  0
 12 25  1  0
 13 28  1  0
 14 20  4  0
 14 23  4  0
 15 17  4  0
 15 21  4  0
 16 19  4  0
 16 23  4  0
 17 22  4  0
 18 26  4  0
 19 24  4  0
 20 24  4  0
 22 27  4  0
 28 29  4  0
M  END
$$$$

 Created by Python create_sdf_string function

 29 33  0  0  0  0  0  0  0  0999 V2000
   10.7215   -3.3326   17.6437 C   0  0  0  0  0  0  0  0  0  0  0  0
    9.9489   -3.4675   24.6487 N   0  0  0  0  0  0  0  0  0  0  0  0
   10.0172   -4.4740   17.4101 C   0  0  0  0  0  0  0  0  0  0  0  0
    6.9051   -7.9575   16.4222 C   0  0  0  0  0  0  0  0  0  0  0  0
    8.9969   -6.3552   17.9668 N   0  0  0  0  0  0  0  0  0  0  0  0
   10.6702   -3.9051   22.4070 C   0  0  0  0  0  0  0  0  0  0  0  0
   11.0625   -3.0028   18.8894 C   0  0  0  0  0  0  0  0  0  0  0  0
    5.6180   -7.9194   16.1754 O   0  0  0  0  0  0  0  0  0  0  0  0
    9.7259   -5.3080   18.4485 C   0  0  0  0  0  0  0  0  0  0  0  0
    9.4578   -5.0200   16.3036 N   0  0  0  0  0  0  0  0  0  0  0  0
    5.0287   -8.9365   16.8223 C   0  0  0  0  0  0  0  0  0  0  0  0
    8.7742   -6.1498   16.6764 C   0  0  0  0  0  0  0  0  0  0  0  0
   10.9418   -3.4032   21.2053 O   0  0  0  0  0  0  0  0  0  0  0  0
    1.4797   -8.6258   16.2950 C   0  0  0  0  0  0  0  0  0  0  0  0
    9.2861   -1.2743   25.3585 C   0  0  0  0  0  0  0  0  0  0  0  0
    1.8892  -10.3985   17.7511 N   0  0  0  0  0  0  0  0  0  0  0  0
    9.6210   -0.6952   24.0976 C   0  0  0  0  0  0  0  0  0  0  0  0
    7.0792   -9.0217   17.1429 C   0  0  0  0  0  0  0  0  0  0  0  0
    3.1713  -10.1816   17.6634 C   0  0  0  0  0  0  0  0  0  0  0  0
    2.7878   -8.3822   16.2137 C   0  0  0  0  0  0  0  0  0  0  0  0
    9.4601   -2.6590   25.6528 C   0  0  0  0  0  0  0  0  0  0  0  0
   10.1182   -1.5672   23.1165 C   0  0  0  0  0  0  0  0  0  0  0  0
    1.0552   -9.6360   17.0650 C   0  0  0  0  0  0  0  0  0  0  0  0
    3.6519   -9.1783   16.9039 C   0  0  0  0  0  0  0  0  0  0  0  0
    7.8675   -7.0096   15.9415 C   0  0  0  0  0  0  0  0  0  0  0  0
    5.9733   -9.6553   17.3832 N   0  0  0  0  0  0  0  0  0  0  0  0
   10.2411   -2.9363   23.4301 C   0  0  0  0  0  0  0  0  0  0  0  0
   10.7288   -3.8197   19.9525 C   0  0  0  0  0  0  0  0  0  0  0  0
   10.1189   -5.0054   19.6987 C   0  0  0  0  0  0  0  0  0  0  0  0
  1  3  4  0
  1  7  4  0
  2 21  4  0
  2 27  4  0
  3  9  4  0
  3 10  4  0
  4  8  4  0
  4 18  4  0
  4 25  1  0
  5  9  4  0
  5 12  4  0
  6 13  1  0
  6 27  1  0
  7 28  4  0
  8 11  4  0
  9 29  4  0
 10 12  4  0
 11 24  1  0
 11 26  4  0
 12 25  1  0
 13 28  1  0
 14 20  4  0
 14 23  4  0
 15 17  4  0
 15 21  4  0
 16 19  4  0
 16 23  4  0
 17 22  4  0
 18 26  4  0
 19 24  4  0
 20 24  4  0
 22 27  4  0
 28 29  4  0
M  END
$$$$

 Created by Python create_sdf_string function

 29 33  0  0  0  0  0  0  0  0999 V2000
   10.7215   -3.3326   17.6437 C   0  0  0  0  0  0  0  0  0  0  0  0
    9.9489   -3.4675   24.6487 N   0  0  0  0  0  0  0  0  0  0  0  0
   10.0172   -4.4740   17.4101 C   0  0  0  0  0  0  0  0  0  0  0  0
    6.9051   -7.9575   16.4222 C   0  0  0  0  0  0  0  0  0  0  0  0
    8.9969   -6.3552   17.9668 N   0  0  0  0  0  0  0  0  0  0  0  0
   10.6702   -3.9051   22.4070 C   0  0  0  0  0  0  0  0  0  0  0  0
   11.0625   -3.0028   18.8894 C   0  0  0  0  0  0  0  0  0  0  0  0
    5.6180   -7.9194   16.1754 O   0  0  0  0  0  0  0  0  0  0  0  0
    9.7259   -5.3080   18.4485 C   0  0  0  0  0  0  0  0  0  0  0  0
    9.4578   -5.0200   16.3036 N   0  0  0  0  0  0  0  0  0  0  0  0
    5.0287   -8.9365   16.8223 C   0  0  0  0  0  0  0  0  0  0  0  0
    8.7742   -6.1498   16.6764 C   0  0  0  0  0  0  0  0  0  0  0  0
   10.9418   -3.4032   21.2053 O   0  0  0  0  0  0  0  0  0  0  0  0
    1.4797   -8.6258   16.2950 C   0  0  0  0  0  0  0  0  0  0  0  0
    9.2861   -1.2743   25.3585 C   0  0  0  0  0  0  0  0  0  0  0  0
    1.8892  -10.3985   17.7511 N   0  0  0  0  0  0  0  0  0  0  0  0
    9.6210   -0.6952   24.0976 C   0  0  0  0  0  0  0  0  0  0  0  0
    7.0792   -9.0217   17.1429 C   0  0  0  0  0  0  0  0  0  0  0  0
    3.1713  -10.1816   17.6634 C   0  0  0  0  0  0  0  0  0  0  0  0
    2.7878   -8.3822   16.2137 C   0  0  0  0  0  0  0  0  0  0  0  0
    9.4601   -2.6590   25.6528 C   0  0  0  0  0  0  0  0  0  0  0  0
   10.1182   -1.5672   23.1165 C   0  0  0  0  0  0  0  0  0  0  0  0
    1.0552   -9.6360   17.0650 C   0  0  0  0  0  0  0  0  0  0  0  0
    3.6519   -9.1783   16.9039 C   0  0  0  0  0  0  0  0  0  0  0  0
    7.8675   -7.0096   15.9415 C   0  0  0  0  0  0  0  0  0  0  0  0
    5.9733   -9.6553   17.3832 N   0  0  0  0  0  0  0  0  0  0  0  0
   10.2411   -2.9363   23.4301 C   0  0  0  0  0  0  0  0  0  0  0  0
   10.7288   -3.8197   19.9525 C   0  0  0  0  0  0  0  0  0  0  0  0
   10.1189   -5.0054   19.6987 C   0  0  0  0  0  0  0  0  0  0  0  0
  1  3  4  0
  1  7  4  0
  2 21  4  0
  2 27  4  0
  3  9  4  0
  3 10  4  0
  4  8  4  0
  4 18  4  0
  4 25  1  0
  5  9  4  0
  5 12  4  0
  6 13  1  0
  6 27  1  0
  7 28  4  0
  8 11  4  0
  9 29  4  0
 10 12  4  0
 11 24  1  0
 11 26  4  0
 12 25  1  0
 13 28  1  0
 14 20  4  0
 14 23  4  0
 15 17  4  0
 15 21  4  0
 16 19  4  0
 16 23  4  0
 17 22  4  0
 18 26  4  0
 19 24  4  0
 20 24  4  0
 22 27  4  0
 28 29  4  0
M  END
$$$$

 Created by Python create_sdf_string function

 29 33  0  0  0  0  0  0  0  0999 V2000
   10.7215   -3.3326   17.6437 C   0  0  0  0  0  0  0  0  0  0  0  0
    9.9489   -3.4675   24.6487 N   0  0  0  0  0  0  0  0  0  0  0  0
   10.0172   -4.4740   17.4101 C   0  0  0  0  0  0  0  0  0  0  0  0
    6.9051   -7.9575   16.4222 C   0  0  0  0  0  0  0  0  0  0  0  0
    8.9969   -6.3552   17.9668 N   0  0  0  0  0  0  0  0  0  0  0  0
   10.6702   -3.9051   22.4070 C   0  0  0  0  0  0  0  0  0  0  0  0
   11.0625   -3.0028   18.8894 C   0  0  0  0  0  0  0  0  0  0  0  0
    5.6180   -7.9194   16.1754 O   0  0  0  0  0  0  0  0  0  0  0  0
    9.7259   -5.3080   18.4485 C   0  0  0  0  0  0  0  0  0  0  0  0
    9.4578   -5.0200   16.3036 N   0  0  0  0  0  0  0  0  0  0  0  0
    5.0287   -8.9365   16.8223 C   0  0  0  0  0  0  0  0  0  0  0  0
    8.7742   -6.1498   16.6764 C   0  0  0  0  0  0  0  0  0  0  0  0
   10.9418   -3.4032   21.2053 O   0  0  0  0  0  0  0  0  0  0  0  0
    1.4797   -8.6258   16.2950 C   0  0  0  0  0  0  0  0  0  0  0  0
    9.2861   -1.2743   25.3585 C   0  0  0  0  0  0  0  0  0  0  0  0
    1.8892  -10.3985   17.7511 N   0  0  0  0  0  0  0  0  0  0  0  0
    9.6210   -0.6952   24.0976 C   0  0  0  0  0  0  0  0  0  0  0  0
    7.0792   -9.0217   17.1429 C   0  0  0  0  0  0  0  0  0  0  0  0
    3.1713  -10.1816   17.6634 C   0  0  0  0  0  0  0  0  0  0  0  0
    2.7878   -8.3822   16.2137 C   0  0  0  0  0  0  0  0  0  0  0  0
    9.4601   -2.6590   25.6528 C   0  0  0  0  0  0  0  0  0  0  0  0
   10.1182   -1.5672   23.1165 C   0  0  0  0  0  0  0  0  0  0  0  0
    1.0552   -9.6360   17.0650 C   0  0  0  0  0  0  0  0  0  0  0  0
    3.6519   -9.1783   16.9039 C   0  0  0  0  0  0  0  0  0  0  0  0
    7.8675   -7.0096   15.9415 C   0  0  0  0  0  0  0  0  0  0  0  0
    5.9733   -9.6553   17.3832 N   0  0  0  0  0  0  0  0  0  0  0  0
   10.2411   -2.9363   23.4301 C   0  0  0  0  0  0  0  0  0  0  0  0
   10.7288   -3.8197   19.9525 C   0  0  0  0  0  0  0  0  0  0  0  0
   10.1189   -5.0054   19.6987 C   0  0  0  0  0  0  0  0  0  0  0  0
  1  3  4  0
  1  7  4  0
  2 21  4  0
  2 27  4  0
  3  9  4  0
  3 10  4  0
  4  8  4  0
  4 18  4  0
  4 25  1  0
  5  9  4  0
  5 12  4  0
  6 13  1  0
  6 27  1  0
  7 28  4  0
  8 11  4  0
  9 29  4  0
 10 12  4  0
 11 24  1  0
 11 26  4  0
 12 25  1  0
 13 28  1  0
 14 20  4  0
 14 23  4  0
 15 17  4  0
 15 21  4  0
 16 19  4  0
 16 23  4  0
 17 22  4  0
 18 26  4  0
 19 24  4  0
 20 24  4  0
 22 27  4  0
 28 29  4  0
M  END
$$$$

 Created by Python create_sdf_string function

 29 33  0  0  0  0  0  0  0  0999 V2000
   10.7215   -3.3326   17.6437 C   0  0  0  0  0  0  0  0  0  0  0  0
    9.9489   -3.4675   24.6487 N   0  0  0  0  0  0  0  0  0  0  0  0
   10.0172   -4.4740   17.4101 C   0  0  0  0  0  0  0  0  0  0  0  0
    6.9051   -7.9575   16.4222 C   0  0  0  0  0  0  0  0  0  0  0  0
    8.9969   -6.3552   17.9668 N   0  0  0  0  0  0  0  0  0  0  0  0
   10.6702   -3.9051   22.4070 C   0  0  0  0  0  0  0  0  0  0  0  0
   11.0625   -3.0028   18.8894 C   0  0  0  0  0  0  0  0  0  0  0  0
    5.6180   -7.9194   16.1754 O   0  0  0  0  0  0  0  0  0  0  0  0
    9.7259   -5.3080   18.4485 C   0  0  0  0  0  0  0  0  0  0  0  0
    9.4578   -5.0200   16.3036 N   0  0  0  0  0  0  0  0  0  0  0  0
    5.0287   -8.9365   16.8223 C   0  0  0  0  0  0  0  0  0  0  0  0
    8.7742   -6.1498   16.6764 C   0  0  0  0  0  0  0  0  0  0  0  0
   10.9418   -3.4032   21.2053 O   0  0  0  0  0  0  0  0  0  0  0  0
    1.4797   -8.6258   16.2950 C   0  0  0  0  0  0  0  0  0  0  0  0
    9.2861   -1.2743   25.3585 C   0  0  0  0  0  0  0  0  0  0  0  0
    1.8892  -10.3985   17.7511 N   0  0  0  0  0  0  0  0  0  0  0  0
    9.6210   -0.6952   24.0976 C   0  0  0  0  0  0  0  0  0  0  0  0
    7.0792   -9.0217   17.1429 C   0  0  0  0  0  0  0  0  0  0  0  0
    3.1713  -10.1816   17.6634 C   0  0  0  0  0  0  0  0  0  0  0  0
    2.7878   -8.3822   16.2137 C   0  0  0  0  0  0  0  0  0  0  0  0
    9.4601   -2.6590   25.6528 C   0  0  0  0  0  0  0  0  0  0  0  0
   10.1182   -1.5672   23.1165 C   0  0  0  0  0  0  0  0  0  0  0  0
    1.0552   -9.6360   17.0650 C   0  0  0  0  0  0  0  0  0  0  0  0
    3.6519   -9.1783   16.9039 C   0  0  0  0  0  0  0  0  0  0  0  0
    7.8675   -7.0096   15.9415 C   0  0  0  0  0  0  0  0  0  0  0  0
    5.9733   -9.6553   17.3832 N   0  0  0  0  0  0  0  0  0  0  0  0
   10.2411   -2.9363   23.4301 C   0  0  0  0  0  0  0  0  0  0  0  0
   10.7288   -3.8197   19.9525 C   0  0  0  0  0  0  0  0  0  0  0  0
   10.1189   -5.0054   19.6987 C   0  0  0  0  0  0  0  0  0  0  0  0
  1  3  4  0
  1  7  4  0
  2 21  4  0
  2 27  4  0
  3  9  4  0
  3 10  4  0
  4  8  4  0
  4 18  4  0
  4 25  1  0
  5  9  4  0
  5 12  4  0
  6 13  1  0
  6 27  1  0
  7 28  4  0
  8 11  4  0
  9 29  4  0
 10 12  4  0
 11 24  1  0
 11 26  4  0
 12 25  1  0
 13 28  1  0
 14 20  4  0
 14 23  4  0
 15 17  4  0
 15 21  4  0
 16 19  4  0
 16 23  4  0
 17 22  4  0
 18 26  4  0
 19 24  4  0
 20 24  4  0
 22 27  4  0
 28 29  4  0
M  END
$$$$

 Created by Python create_sdf_string function

 29 33  0  0  0  0  0  0  0  0999 V2000
   10.7215   -3.3326   17.6437 C   0  0  0  0  0  0  0  0  0  0  0  0
    9.9489   -3.4675   24.6487 N   0  0  0  0  0  0  0  0  0  0  0  0
   10.0172   -4.4740   17.4101 C   0  0  0  0  0  0  0  0  0  0  0  0
    6.9051   -7.9575   16.4222 C   0  0  0  0  0  0  0  0  0  0  0  0
    8.9969   -6.3552   17.9668 N   0  0  0  0  0  0  0  0  0  0  0  0
   10.6702   -3.9051   22.4070 C   0  0  0  0  0  0  0  0  0  0  0  0
   11.0625   -3.0028   18.8894 C   0  0  0  0  0  0  0  0  0  0  0  0
    5.6180   -7.9194   16.1754 O   0  0  0  0  0  0  0  0  0  0  0  0
    9.7259   -5.3080   18.4485 C   0  0  0  0  0  0  0  0  0  0  0  0
    9.4578   -5.0200   16.3036 N   0  0  0  0  0  0  0  0  0  0  0  0
    5.0287   -8.9365   16.8223 C   0  0  0  0  0  0  0  0  0  0  0  0
    8.7742   -6.1498   16.6764 C   0  0  0  0  0  0  0  0  0  0  0  0
   10.9418   -3.4032   21.2053 O   0  0  0  0  0  0  0  0  0  0  0  0
    1.4797   -8.6258   16.2950 C   0  0  0  0  0  0  0  0  0  0  0  0
    9.2861   -1.2743   25.3585 C   0  0  0  0  0  0  0  0  0  0  0  0
    1.8892  -10.3985   17.7511 N   0  0  0  0  0  0  0  0  0  0  0  0
    9.6210   -0.6952   24.0976 C   0  0  0  0  0  0  0  0  0  0  0  0
    7.0792   -9.0217   17.1429 C   0  0  0  0  0  0  0  0  0  0  0  0
    3.1713  -10.1816   17.6634 C   0  0  0  0  0  0  0  0  0  0  0  0
    2.7878   -8.3822   16.2137 C   0  0  0  0  0  0  0  0  0  0  0  0
    9.4601   -2.6590   25.6528 C   0  0  0  0  0  0  0  0  0  0  0  0
   10.1182   -1.5672   23.1165 C   0  0  0  0  0  0  0  0  0  0  0  0
    1.0552   -9.6360   17.0650 C   0  0  0  0  0  0  0  0  0  0  0  0
    3.6519   -9.1783   16.9039 C   0  0  0  0  0  0  0  0  0  0  0  0
    7.8675   -7.0096   15.9415 C   0  0  0  0  0  0  0  0  0  0  0  0
    5.9733   -9.6553   17.3832 N   0  0  0  0  0  0  0  0  0  0  0  0
   10.2411   -2.9363   23.4301 C   0  0  0  0  0  0  0  0  0  0  0  0
   10.7288   -3.8197   19.9525 C   0  0  0  0  0  0  0  0  0  0  0  0
   10.1189   -5.0054   19.6987 C   0  0  0  0  0  0  0  0  0  0  0  0
  1  3  4  0
  1  7  4  0
  2 21  4  0
  2 27  4  0
  3  9  4  0
  3 10  4  0
  4  8  4  0
  4 18  4  0
  4 25  1  0
  5  9  4  0
  5 12  4  0
  6 13  1  0
  6 27  1  0
  7 28  4  0
  8 11  4  0
  9 29  4  0
 10 12  4  0
 11 24  1  0
 11 26  4  0
 12 25  1  0
 13 28  1  0
 14 20  4  0
 14 23  4  0
 15 17  4  0
 15 21  4  0
 16 19  4  0
 16 23  4  0
 17 22  4  0
 18 26  4  0
 19 24  4  0
 20 24  4  0
 22 27  4  0
 28 29  4  0
M  END
$$$$

 Created by Python create_sdf_string function

 29 33  0  0  0  0  0  0  0  0999 V2000
   10.7215   -3.3326   17.6437 C   0  0  0  0  0  0  0  0  0  0  0  0
    9.9489   -3.4675   24.6487 N   0  0  0  0  0  0  0  0  0  0  0  0
   10.0172   -4.4740   17.4101 C   0  0  0  0  0  0  0  0  0  0  0  0
    6.9051   -7.9575   16.4222 C   0  0  0  0  0  0  0  0  0  0  0  0
    8.9969   -6.3552   17.9668 N   0  0  0  0  0  0  0  0  0  0  0  0
   10.6702   -3.9051   22.4070 C   0  0  0  0  0  0  0  0  0  0  0  0
   11.0625   -3.0028   18.8894 C   0  0  0  0  0  0  0  0  0  0  0  0
    5.6180   -7.9194   16.1754 O   0  0  0  0  0  0  0  0  0  0  0  0
    9.7259   -5.3080   18.4485 C   0  0  0  0  0  0  0  0  0  0  0  0
    9.4578   -5.0200   16.3036 N   0  0  0  0  0  0  0  0  0  0  0  0
    5.0287   -8.9365   16.8223 C   0  0  0  0  0  0  0  0  0  0  0  0
    8.7742   -6.1498   16.6764 C   0  0  0  0  0  0  0  0  0  0  0  0
   10.9418   -3.4032   21.2053 O   0  0  0  0  0  0  0  0  0  0  0  0
    1.4797   -8.6258   16.2950 C   0  0  0  0  0  0  0  0  0  0  0  0
    9.2861   -1.2743   25.3585 C   0  0  0  0  0  0  0  0  0  0  0  0
    1.8892  -10.3985   17.7511 N   0  0  0  0  0  0  0  0  0  0  0  0
    9.6210   -0.6952   24.0976 C   0  0  0  0  0  0  0  0  0  0  0  0
    7.0792   -9.0217   17.1429 C   0  0  0  0  0  0  0  0  0  0  0  0
    3.1713  -10.1816   17.6634 C   0  0  0  0  0  0  0  0  0  0  0  0
    2.7878   -8.3822   16.2137 C   0  0  0  0  0  0  0  0  0  0  0  0
    9.4601   -2.6590   25.6528 C   0  0  0  0  0  0  0  0  0  0  0  0
   10.1182   -1.5672   23.1165 C   0  0  0  0  0  0  0  0  0  0  0  0
    1.0552   -9.6360   17.0650 C   0  0  0  0  0  0  0  0  0  0  0  0
    3.6519   -9.1783   16.9039 C   0  0  0  0  0  0  0  0  0  0  0  0
    7.8675   -7.0096   15.9415 C   0  0  0  0  0  0  0  0  0  0  0  0
    5.9733   -9.6553   17.3832 N   0  0  0  0  0  0  0  0  0  0  0  0
   10.2411   -2.9363   23.4301 C   0  0  0  0  0  0  0  0  0  0  0  0
   10.7288   -3.8197   19.9525 C   0  0  0  0  0  0  0  0  0  0  0  0
   10.1189   -5.0054   19.6987 C   0  0  0  0  0  0  0  0  0  0  0  0
  1  3  4  0
  1  7  4  0
  2 21  4  0
  2 27  4  0
  3  9  4  0
  3 10  4  0
  4  8  4  0
  4 18  4  0
  4 25  1  0
  5  9  4  0
  5 12  4  0
  6 13  1  0
  6 27  1  0
  7 28  4  0
  8 11  4  0
  9 29  4  0
 10 12  4  0
 11 24  1  0
 11 26  4  0
 12 25  1  0
 13 28  1  0
 14 20  4  0
 14 23  4  0
 15 17  4  0
 15 21  4  0
 16 19  4  0
 16 23  4  0
 17 22  4  0
 18 26  4  0
 19 24  4  0
 20 24  4  0
 22 27  4  0
 28 29  4  0
M  END
$$$$

 Created by Python create_sdf_string function

 29 33  0  0  0  0  0  0  0  0999 V2000
   10.7215   -3.3326   17.6437 C   0  0  0  0  0  0  0  0  0  0  0  0
    9.9489   -3.4675   24.6487 N   0  0  0  0  0  0  0  0  0  0  0  0
   10.0172   -4.4740   17.4101 C   0  0  0  0  0  0  0  0  0  0  0  0
    6.9051   -7.9575   16.4222 C   0  0  0  0  0  0  0  0  0  0  0  0
    8.9969   -6.3552   17.9668 N   0  0  0  0  0  0  0  0  0  0  0  0
   10.6702   -3.9051   22.4070 C   0  0  0  0  0  0  0  0  0  0  0  0
   11.0625   -3.0028   18.8894 C   0  0  0  0  0  0  0  0  0  0  0  0
    5.6180   -7.9194   16.1754 O   0  0  0  0  0  0  0  0  0  0  0  0
    9.7259   -5.3080   18.4485 C   0  0  0  0  0  0  0  0  0  0  0  0
    9.4578   -5.0200   16.3036 N   0  0  0  0  0  0  0  0  0  0  0  0
    5.0287   -8.9365   16.8223 C   0  0  0  0  0  0  0  0  0  0  0  0
    8.7742   -6.1498   16.6764 C   0  0  0  0  0  0  0  0  0  0  0  0
   10.9418   -3.4032   21.2053 O   0  0  0  0  0  0  0  0  0  0  0  0
    1.4797   -8.6258   16.2950 C   0  0  0  0  0  0  0  0  0  0  0  0
    9.2861   -1.2743   25.3585 C   0  0  0  0  0  0  0  0  0  0  0  0
    1.8892  -10.3985   17.7511 N   0  0  0  0  0  0  0  0  0  0  0  0
    9.6210   -0.6952   24.0976 C   0  0  0  0  0  0  0  0  0  0  0  0
    7.0792   -9.0217   17.1429 C   0  0  0  0  0  0  0  0  0  0  0  0
    3.1713  -10.1816   17.6634 C   0  0  0  0  0  0  0  0  0  0  0  0
    2.7878   -8.3822   16.2137 C   0  0  0  0  0  0  0  0  0  0  0  0
    9.4601   -2.6590   25.6528 C   0  0  0  0  0  0  0  0  0  0  0  0
   10.1182   -1.5672   23.1165 C   0  0  0  0  0  0  0  0  0  0  0  0
    1.0552   -9.6360   17.0650 C   0  0  0  0  0  0  0  0  0  0  0  0
    3.6519   -9.1783   16.9039 C   0  0  0  0  0  0  0  0  0  0  0  0
    7.8675   -7.0096   15.9415 C   0  0  0  0  0  0  0  0  0  0  0  0
    5.9733   -9.6553   17.3832 N   0  0  0  0  0  0  0  0  0  0  0  0
   10.2411   -2.9363   23.4301 C   0  0  0  0  0  0  0  0  0  0  0  0
   10.7288   -3.8197   19.9525 C   0  0  0  0  0  0  0  0  0  0  0  0
   10.1189   -5.0054   19.6987 C   0  0  0  0  0  0  0  0  0  0  0  0
  1  3  4  0
  1  7  4  0
  2 21  4  0
  2 27  4  0
  3  9  4  0
  3 10  4  0
  4  8  4  0
  4 18  4  0
  4 25  1  0
  5  9  4  0
  5 12  4  0
  6 13  1  0
  6 27  1  0
  7 28  4  0
  8 11  4  0
  9 29  4  0
 10 12  4  0
 11 24  1  0
 11 26  4  0
 12 25  1  0
 13 28  1  0
 14 20  4  0
 14 23  4  0
 15 17  4  0
 15 21  4  0
 16 19  4  0
 16 23  4  0
 17 22  4  0
 18 26  4  0
 19 24  4  0
 20 24  4  0
 22 27  4  0
 28 29  4  0
M  END
$$$$

 Created by Python create_sdf_string function

 29 33  0  0  0  0  0  0  0  0999 V2000
   10.7215   -3.3326   17.6437 C   0  0  0  0  0  0  0  0  0  0  0  0
    9.9489   -3.4675   24.6487 N   0  0  0  0  0  0  0  0  0  0  0  0
   10.0172   -4.4740   17.4101 C   0  0  0  0  0  0  0  0  0  0  0  0
    6.9051   -7.9575   16.4222 C   0  0  0  0  0  0  0  0  0  0  0  0
    8.9969   -6.3552   17.9668 N   0  0  0  0  0  0  0  0  0  0  0  0
   10.6702   -3.9051   22.4070 C   0  0  0  0  0  0  0  0  0  0  0  0
   11.0625   -3.0028   18.8894 C   0  0  0  0  0  0  0  0  0  0  0  0
    5.6180   -7.9194   16.1754 O   0  0  0  0  0  0  0  0  0  0  0  0
    9.7259   -5.3080   18.4485 C   0  0  0  0  0  0  0  0  0  0  0  0
    9.4578   -5.0200   16.3036 N   0  0  0  0  0  0  0  0  0  0  0  0
    5.0287   -8.9365   16.8223 C   0  0  0  0  0  0  0  0  0  0  0  0
    8.7742   -6.1498   16.6764 C   0  0  0  0  0  0  0  0  0  0  0  0
   10.9418   -3.4032   21.2053 O   0  0  0  0  0  0  0  0  0  0  0  0
    1.4797   -8.6258   16.2950 C   0  0  0  0  0  0  0  0  0  0  0  0
    9.2861   -1.2743   25.3585 C   0  0  0  0  0  0  0  0  0  0  0  0
    1.8892  -10.3985   17.7511 N   0  0  0  0  0  0  0  0  0  0  0  0
    9.6210   -0.6952   24.0976 C   0  0  0  0  0  0  0  0  0  0  0  0
    7.0792   -9.0217   17.1429 C   0  0  0  0  0  0  0  0  0  0  0  0
    3.1713  -10.1816   17.6634 C   0  0  0  0  0  0  0  0  0  0  0  0
    2.7878   -8.3822   16.2137 C   0  0  0  0  0  0  0  0  0  0  0  0
    9.4601   -2.6590   25.6528 C   0  0  0  0  0  0  0  0  0  0  0  0
   10.1182   -1.5672   23.1165 C   0  0  0  0  0  0  0  0  0  0  0  0
    1.0552   -9.6360   17.0650 C   0  0  0  0  0  0  0  0  0  0  0  0
    3.6519   -9.1783   16.9039 C   0  0  0  0  0  0  0  0  0  0  0  0
    7.8675   -7.0096   15.9415 C   0  0  0  0  0  0  0  0  0  0  0  0
    5.9733   -9.6553   17.3832 N   0  0  0  0  0  0  0  0  0  0  0  0
   10.2411   -2.9363   23.4301 C   0  0  0  0  0  0  0  0  0  0  0  0
   10.7288   -3.8197   19.9525 C   0  0  0  0  0  0  0  0  0  0  0  0
   10.1189   -5.0054   19.6987 C   0  0  0  0  0  0  0  0  0  0  0  0
  1  3  4  0
  1  7  4  0
  2 21  4  0
  2 27  4  0
  3  9  4  0
  3 10  4  0
  4  8  4  0
  4 18  4  0
  4 25  1  0
  5  9  4  0
  5 12  4  0
  6 13  1  0
  6 27  1  0
  7 28  4  0
  8 11  4  0
  9 29  4  0
 10 12  4  0
 11 24  1  0
 11 26  4  0
 12 25  1  0
 13 28  1  0
 14 20  4  0
 14 23  4  0
 15 17  4  0
 15 21  4  0
 16 19  4  0
 16 23  4  0
 17 22  4  0
 18 26  4  0
 19 24  4  0
 20 24  4  0
 22 27  4  0
 28 29  4  0
M  END
$$$$

 Created by Python create_sdf_string function

 29 33  0  0  0  0  0  0  0  0999 V2000
   10.7215   -3.3326   17.6437 C   0  0  0  0  0  0  0  0  0  0  0  0
    9.9489   -3.4675   24.6487 N   0  0  0  0  0  0  0  0  0  0  0  0
   10.0172   -4.4740   17.4101 C   0  0  0  0  0  0  0  0  0  0  0  0
    6.9051   -7.9575   16.4222 C   0  0  0  0  0  0  0  0  0  0  0  0
    8.9969   -6.3552   17.9668 N   0  0  0  0  0  0  0  0  0  0  0  0
   10.6702   -3.9051   22.4070 C   0  0  0  0  0  0  0  0  0  0  0  0
   11.0625   -3.0028   18.8894 C   0  0  0  0  0  0  0  0  0  0  0  0
    5.6180   -7.9194   16.1754 O   0  0  0  0  0  0  0  0  0  0  0  0
    9.7259   -5.3080   18.4485 C   0  0  0  0  0  0  0  0  0  0  0  0
    9.4578   -5.0200   16.3036 N   0  0  0  0  0  0  0  0  0  0  0  0
    5.0287   -8.9365   16.8223 C   0  0  0  0  0  0  0  0  0  0  0  0
    8.7742   -6.1498   16.6764 C   0  0  0  0  0  0  0  0  0  0  0  0
   10.9418   -3.4032   21.2053 O   0  0  0  0  0  0  0  0  0  0  0  0
    1.4797   -8.6258   16.2950 C   0  0  0  0  0  0  0  0  0  0  0  0
    9.2861   -1.2743   25.3585 C   0  0  0  0  0  0  0  0  0  0  0  0
    1.8892  -10.3985   17.7511 N   0  0  0  0  0  0  0  0  0  0  0  0
    9.6210   -0.6952   24.0976 C   0  0  0  0  0  0  0  0  0  0  0  0
    7.0792   -9.0217   17.1429 C   0  0  0  0  0  0  0  0  0  0  0  0
    3.1713  -10.1816   17.6634 C   0  0  0  0  0  0  0  0  0  0  0  0
    2.7878   -8.3822   16.2137 C   0  0  0  0  0  0  0  0  0  0  0  0
    9.4601   -2.6590   25.6528 C   0  0  0  0  0  0  0  0  0  0  0  0
   10.1182   -1.5672   23.1165 C   0  0  0  0  0  0  0  0  0  0  0  0
    1.0552   -9.6360   17.0650 C   0  0  0  0  0  0  0  0  0  0  0  0
    3.6519   -9.1783   16.9039 C   0  0  0  0  0  0  0  0  0  0  0  0
    7.8675   -7.0096   15.9415 C   0  0  0  0  0  0  0  0  0  0  0  0
    5.9733   -9.6553   17.3832 N   0  0  0  0  0  0  0  0  0  0  0  0
   10.2411   -2.9363   23.4301 C   0  0  0  0  0  0  0  0  0  0  0  0
   10.7288   -3.8197   19.9525 C   0  0  0  0  0  0  0  0  0  0  0  0
   10.1189   -5.0054   19.6987 C   0  0  0  0  0  0  0  0  0  0  0  0
  1  3  4  0
  1  7  4  0
  2 21  4  0
  2 27  4  0
  3  9  4  0
  3 10  4  0
  4  8  4  0
  4 18  4  0
  4 25  1  0
  5  9  4  0
  5 12  4  0
  6 13  1  0
  6 27  1  0
  7 28  4  0
  8 11  4  0
  9 29  4  0
 10 12  4  0
 11 24  1  0
 11 26  4  0
 12 25  1  0
 13 28  1  0
 14 20  4  0
 14 23  4  0
 15 17  4  0
 15 21  4  0
 16 19  4  0
 16 23  4  0
 17 22  4  0
 18 26  4  0
 19 24  4  0
 20 24  4  0
 22 27  4  0
 28 29  4  0
M  END
$$$$

 Created by Python create_sdf_string function

 29 33  0  0  0  0  0  0  0  0999 V2000
   10.7215   -3.3326   17.6437 C   0  0  0  0  0  0  0  0  0  0  0  0
    9.9489   -3.4675   24.6487 N   0  0  0  0  0  0  0  0  0  0  0  0
   10.0172   -4.4740   17.4101 C   0  0  0  0  0  0  0  0  0  0  0  0
    6.9051   -7.9575   16.4222 C   0  0  0  0  0  0  0  0  0  0  0  0
    8.9969   -6.3552   17.9668 N   0  0  0  0  0  0  0  0  0  0  0  0
   10.6702   -3.9051   22.4070 C   0  0  0  0  0  0  0  0  0  0  0  0
   11.0625   -3.0028   18.8894 C   0  0  0  0  0  0  0  0  0  0  0  0
    5.6180   -7.9194   16.1754 O   0  0  0  0  0  0  0  0  0  0  0  0
    9.7259   -5.3080   18.4485 C   0  0  0  0  0  0  0  0  0  0  0  0
    9.4578   -5.0200   16.3036 N   0  0  0  0  0  0  0  0  0  0  0  0
    5.0287   -8.9365   16.8223 C   0  0  0  0  0  0  0  0  0  0  0  0
    8.7742   -6.1498   16.6764 C   0  0  0  0  0  0  0  0  0  0  0  0
   10.9418   -3.4032   21.2053 O   0  0  0  0  0  0  0  0  0  0  0  0
    1.4797   -8.6258   16.2950 C   0  0  0  0  0  0  0  0  0  0  0  0
    9.2861   -1.2743   25.3585 C   0  0  0  0  0  0  0  0  0  0  0  0
    1.8892  -10.3985   17.7511 N   0  0  0  0  0  0  0  0  0  0  0  0
    9.6210   -0.6952   24.0976 C   0  0  0  0  0  0  0  0  0  0  0  0
    7.0792   -9.0217   17.1429 C   0  0  0  0  0  0  0  0  0  0  0  0
    3.1713  -10.1816   17.6634 C   0  0  0  0  0  0  0  0  0  0  0  0
    2.7878   -8.3822   16.2137 C   0  0  0  0  0  0  0  0  0  0  0  0
    9.4601   -2.6590   25.6528 C   0  0  0  0  0  0  0  0  0  0  0  0
   10.1182   -1.5672   23.1165 C   0  0  0  0  0  0  0  0  0  0  0  0
    1.0552   -9.6360   17.0650 C   0  0  0  0  0  0  0  0  0  0  0  0
    3.6519   -9.1783   16.9039 C   0  0  0  0  0  0  0  0  0  0  0  0
    7.8675   -7.0096   15.9415 C   0  0  0  0  0  0  0  0  0  0  0  0
    5.9733   -9.6553   17.3832 N   0  0  0  0  0  0  0  0  0  0  0  0
   10.2411   -2.9363   23.4301 C   0  0  0  0  0  0  0  0  0  0  0  0
   10.7288   -3.8197   19.9525 C   0  0  0  0  0  0  0  0  0  0  0  0
   10.1189   -5.0054   19.6987 C   0  0  0  0  0  0  0  0  0  0  0  0
  1  3  4  0
  1  7  4  0
  2 21  4  0
  2 27  4  0
  3  9  4  0
  3 10  4  0
  4  8  4  0
  4 18  4  0
  4 25  1  0
  5  9  4  0
  5 12  4  0
  6 13  1  0
  6 27  1  0
  7 28  4  0
  8 11  4  0
  9 29  4  0
 10 12  4  0
 11 24  1  0
 11 26  4  0
 12 25  1  0
 13 28  1  0
 14 20  4  0
 14 23  4  0
 15 17  4  0
 15 21  4  0
 16 19  4  0
 16 23  4  0
 17 22  4  0
 18 26  4  0
 19 24  4  0
 20 24  4  0
 22 27  4  0
 28 29  4  0
M  END
$$$$

 Created by Python create_sdf_string function

 29 33  0  0  0  0  0  0  0  0999 V2000
   10.7215   -3.3326   17.6437 C   0  0  0  0  0  0  0  0  0  0  0  0
    9.9489   -3.4675   24.6487 N   0  0  0  0  0  0  0  0  0  0  0  0
   10.0172   -4.4740   17.4101 C   0  0  0  0  0  0  0  0  0  0  0  0
    6.9051   -7.9575   16.4222 C   0  0  0  0  0  0  0  0  0  0  0  0
    8.9969   -6.3552   17.9668 N   0  0  0  0  0  0  0  0  0  0  0  0
   10.6702   -3.9051   22.4070 C   0  0  0  0  0  0  0  0  0  0  0  0
   11.0625   -3.0028   18.8894 C   0  0  0  0  0  0  0  0  0  0  0  0
    5.6180   -7.9194   16.1754 O   0  0  0  0  0  0  0  0  0  0  0  0
    9.7259   -5.3080   18.4485 C   0  0  0  0  0  0  0  0  0  0  0  0
    9.4578   -5.0200   16.3036 N   0  0  0  0  0  0  0  0  0  0  0  0
    5.0287   -8.9365   16.8223 C   0  0  0  0  0  0  0  0  0  0  0  0
    8.7742   -6.1498   16.6764 C   0  0  0  0  0  0  0  0  0  0  0  0
   10.9418   -3.4032   21.2053 O   0  0  0  0  0  0  0  0  0  0  0  0
    1.4797   -8.6258   16.2950 C   0  0  0  0  0  0  0  0  0  0  0  0
    9.2861   -1.2743   25.3585 C   0  0  0  0  0  0  0  0  0  0  0  0
    1.8892  -10.3985   17.7511 N   0  0  0  0  0  0  0  0  0  0  0  0
    9.6210   -0.6952   24.0976 C   0  0  0  0  0  0  0  0  0  0  0  0
    7.0792   -9.0217   17.1429 C   0  0  0  0  0  0  0  0  0  0  0  0
    3.1713  -10.1816   17.6634 C   0  0  0  0  0  0  0  0  0  0  0  0
    2.7878   -8.3822   16.2137 C   0  0  0  0  0  0  0  0  0  0  0  0
    9.4601   -2.6590   25.6528 C   0  0  0  0  0  0  0  0  0  0  0  0
   10.1182   -1.5672   23.1165 C   0  0  0  0  0  0  0  0  0  0  0  0
    1.0552   -9.6360   17.0650 C   0  0  0  0  0  0  0  0  0  0  0  0
    3.6519   -9.1783   16.9039 C   0  0  0  0  0  0  0  0  0  0  0  0
    7.8675   -7.0096   15.9415 C   0  0  0  0  0  0  0  0  0  0  0  0
    5.9733   -9.6553   17.3832 N   0  0  0  0  0  0  0  0  0  0  0  0
   10.2411   -2.9363   23.4301 C   0  0  0  0  0  0  0  0  0  0  0  0
   10.7288   -3.8197   19.9525 C   0  0  0  0  0  0  0  0  0  0  0  0
   10.1189   -5.0054   19.6987 C   0  0  0  0  0  0  0  0  0  0  0  0
  1  3  4  0
  1  7  4  0
  2 21  4  0
  2 27  4  0
  3  9  4  0
  3 10  4  0
  4  8  4  0
  4 18  4  0
  4 25  1  0
  5  9  4  0
  5 12  4  0
  6 13  1  0
  6 27  1  0
  7 28  4  0
  8 11  4  0
  9 29  4  0
 10 12  4  0
 11 24  1  0
 11 26  4  0
 12 25  1  0
 13 28  1  0
 14 20  4  0
 14 23  4  0
 15 17  4  0
 15 21  4  0
 16 19  4  0
 16 23  4  0
 17 22  4  0
 18 26  4  0
 19 24  4  0
 20 24  4  0
 22 27  4  0
 28 29  4  0
M  END
$$$$

 Created by Python create_sdf_string function

 29 33  0  0  0  0  0  0  0  0999 V2000
   10.7215   -3.3326   17.6437 C   0  0  0  0  0  0  0  0  0  0  0  0
    9.9489   -3.4675   24.6487 N   0  0  0  0  0  0  0  0  0  0  0  0
   10.0172   -4.4740   17.4101 C   0  0  0  0  0  0  0  0  0  0  0  0
    6.9051   -7.9575   16.4222 C   0  0  0  0  0  0  0  0  0  0  0  0
    8.9969   -6.3552   17.9668 N   0  0  0  0  0  0  0  0  0  0  0  0
   10.6702   -3.9051   22.4070 C   0  0  0  0  0  0  0  0  0  0  0  0
   11.0625   -3.0028   18.8894 C   0  0  0  0  0  0  0  0  0  0  0  0
    5.6180   -7.9194   16.1754 O   0  0  0  0  0  0  0  0  0  0  0  0
    9.7259   -5.3080   18.4485 C   0  0  0  0  0  0  0  0  0  0  0  0
    9.4578   -5.0200   16.3036 N   0  0  0  0  0  0  0  0  0  0  0  0
    5.0287   -8.9365   16.8223 C   0  0  0  0  0  0  0  0  0  0  0  0
    8.7742   -6.1498   16.6764 C   0  0  0  0  0  0  0  0  0  0  0  0
   10.9418   -3.4032   21.2053 O   0  0  0  0  0  0  0  0  0  0  0  0
    1.4797   -8.6258   16.2950 C   0  0  0  0  0  0  0  0  0  0  0  0
    9.2861   -1.2743   25.3585 C   0  0  0  0  0  0  0  0  0  0  0  0
    1.8892  -10.3985   17.7511 N   0  0  0  0  0  0  0  0  0  0  0  0
    9.6210   -0.6952   24.0976 C   0  0  0  0  0  0  0  0  0  0  0  0
    7.0792   -9.0217   17.1429 C   0  0  0  0  0  0  0  0  0  0  0  0
    3.1713  -10.1816   17.6634 C   0  0  0  0  0  0  0  0  0  0  0  0
    2.7878   -8.3822   16.2137 C   0  0  0  0  0  0  0  0  0  0  0  0
    9.4601   -2.6590   25.6528 C   0  0  0  0  0  0  0  0  0  0  0  0
   10.1182   -1.5672   23.1165 C   0  0  0  0  0  0  0  0  0  0  0  0
    1.0552   -9.6360   17.0650 C   0  0  0  0  0  0  0  0  0  0  0  0
    3.6519   -9.1783   16.9039 C   0  0  0  0  0  0  0  0  0  0  0  0
    7.8675   -7.0096   15.9415 C   0  0  0  0  0  0  0  0  0  0  0  0
    5.9733   -9.6553   17.3832 N   0  0  0  0  0  0  0  0  0  0  0  0
   10.2411   -2.9363   23.4301 C   0  0  0  0  0  0  0  0  0  0  0  0
   10.7288   -3.8197   19.9525 C   0  0  0  0  0  0  0  0  0  0  0  0
   10.1189   -5.0054   19.6987 C   0  0  0  0  0  0  0  0  0  0  0  0
  1  3  4  0
  1  7  4  0
  2 21  4  0
  2 27  4  0
  3  9  4  0
  3 10  4  0
  4  8  4  0
  4 18  4  0
  4 25  1  0
  5  9  4  0
  5 12  4  0
  6 13  1  0
  6 27  1  0
  7 28  4  0
  8 11  4  0
  9 29  4  0
 10 12  4  0
 11 24  1  0
 11 26  4  0
 12 25  1  0
 13 28  1  0
 14 20  4  0
 14 23  4  0
 15 17  4  0
 15 21  4  0
 16 19  4  0
 16 23  4  0
 17 22  4  0
 18 26  4  0
 19 24  4  0
 20 24  4  0
 22 27  4  0
 28 29  4  0
M  END
$$$$

 Created by Python create_sdf_string function

 29 33  0  0  0  0  0  0  0  0999 V2000
   10.7215   -3.3326   17.6437 C   0  0  0  0  0  0  0  0  0  0  0  0
    9.9489   -3.4675   24.6487 N   0  0  0  0  0  0  0  0  0  0  0  0
   10.0172   -4.4740   17.4101 C   0  0  0  0  0  0  0  0  0  0  0  0
    6.9051   -7.9575   16.4222 C   0  0  0  0  0  0  0  0  0  0  0  0
    8.9969   -6.3552   17.9668 N   0  0  0  0  0  0  0  0  0  0  0  0
   10.6702   -3.9051   22.4070 C   0  0  0  0  0  0  0  0  0  0  0  0
   11.0625   -3.0028   18.8894 C   0  0  0  0  0  0  0  0  0  0  0  0
    5.6180   -7.9194   16.1754 O   0  0  0  0  0  0  0  0  0  0  0  0
    9.7259   -5.3080   18.4485 C   0  0  0  0  0  0  0  0  0  0  0  0
    9.4578   -5.0200   16.3036 N   0  0  0  0  0  0  0  0  0  0  0  0
    5.0287   -8.9365   16.8223 C   0  0  0  0  0  0  0  0  0  0  0  0
    8.7742   -6.1498   16.6764 C   0  0  0  0  0  0  0  0  0  0  0  0
   10.9418   -3.4032   21.2053 O   0  0  0  0  0  0  0  0  0  0  0  0
    1.4797   -8.6258   16.2950 C   0  0  0  0  0  0  0  0  0  0  0  0
    9.2861   -1.2743   25.3585 C   0  0  0  0  0  0  0  0  0  0  0  0
    1.8892  -10.3985   17.7511 N   0  0  0  0  0  0  0  0  0  0  0  0
    9.6210   -0.6952   24.0976 C   0  0  0  0  0  0  0  0  0  0  0  0
    7.0792   -9.0217   17.1429 C   0  0  0  0  0  0  0  0  0  0  0  0
    3.1713  -10.1816   17.6634 C   0  0  0  0  0  0  0  0  0  0  0  0
    2.7878   -8.3822   16.2137 C   0  0  0  0  0  0  0  0  0  0  0  0
    9.4601   -2.6590   25.6528 C   0  0  0  0  0  0  0  0  0  0  0  0
   10.1182   -1.5672   23.1165 C   0  0  0  0  0  0  0  0  0  0  0  0
    1.0552   -9.6360   17.0650 C   0  0  0  0  0  0  0  0  0  0  0  0
    3.6519   -9.1783   16.9039 C   0  0  0  0  0  0  0  0  0  0  0  0
    7.8675   -7.0096   15.9415 C   0  0  0  0  0  0  0  0  0  0  0  0
    5.9733   -9.6553   17.3832 N   0  0  0  0  0  0  0  0  0  0  0  0
   10.2411   -2.9363   23.4301 C   0  0  0  0  0  0  0  0  0  0  0  0
   10.7288   -3.8197   19.9525 C   0  0  0  0  0  0  0  0  0  0  0  0
   10.1189   -5.0054   19.6987 C   0  0  0  0  0  0  0  0  0  0  0  0
  1  3  4  0
  1  7  4  0
  2 21  4  0
  2 27  4  0
  3  9  4  0
  3 10  4  0
  4  8  4  0
  4 18  4  0
  4 25  1  0
  5  9  4  0
  5 12  4  0
  6 13  1  0
  6 27  1  0
  7 28  4  0
  8 11  4  0
  9 29  4  0
 10 12  4  0
 11 24  1  0
 11 26  4  0
 12 25  1  0
 13 28  1  0
 14 20  4  0
 14 23  4  0
 15 17  4  0
 15 21  4  0
 16 19  4  0
 16 23  4  0
 17 22  4  0
 18 26  4  0
 19 24  4  0
 20 24  4  0
 22 27  4  0
 28 29  4  0
M  END
$$$$

 Created by Python create_sdf_string function

 29 33  0  0  0  0  0  0  0  0999 V2000
   10.7215   -3.3326   17.6437 C   0  0  0  0  0  0  0  0  0  0  0  0
    9.9489   -3.4675   24.6487 N   0  0  0  0  0  0  0  0  0  0  0  0
   10.0172   -4.4740   17.4101 C   0  0  0  0  0  0  0  0  0  0  0  0
    6.9051   -7.9575   16.4222 C   0  0  0  0  0  0  0  0  0  0  0  0
    8.9969   -6.3552   17.9668 N   0  0  0  0  0  0  0  0  0  0  0  0
   10.6702   -3.9051   22.4070 C   0  0  0  0  0  0  0  0  0  0  0  0
   11.0625   -3.0028   18.8894 C   0  0  0  0  0  0  0  0  0  0  0  0
    5.6180   -7.9194   16.1754 O   0  0  0  0  0  0  0  0  0  0  0  0
    9.7259   -5.3080   18.4485 C   0  0  0  0  0  0  0  0  0  0  0  0
    9.4578   -5.0200   16.3036 N   0  0  0  0  0  0  0  0  0  0  0  0
    5.0287   -8.9365   16.8223 C   0  0  0  0  0  0  0  0  0  0  0  0
    8.7742   -6.1498   16.6764 C   0  0  0  0  0  0  0  0  0  0  0  0
   10.9418   -3.4032   21.2053 O   0  0  0  0  0  0  0  0  0  0  0  0
    1.4797   -8.6258   16.2950 C   0  0  0  0  0  0  0  0  0  0  0  0
    9.2861   -1.2743   25.3585 C   0  0  0  0  0  0  0  0  0  0  0  0
    1.8892  -10.3985   17.7511 N   0  0  0  0  0  0  0  0  0  0  0  0
    9.6210   -0.6952   24.0976 C   0  0  0  0  0  0  0  0  0  0  0  0
    7.0792   -9.0217   17.1429 C   0  0  0  0  0  0  0  0  0  0  0  0
    3.1713  -10.1816   17.6634 C   0  0  0  0  0  0  0  0  0  0  0  0
    2.7878   -8.3822   16.2137 C   0  0  0  0  0  0  0  0  0  0  0  0
    9.4601   -2.6590   25.6528 C   0  0  0  0  0  0  0  0  0  0  0  0
   10.1182   -1.5672   23.1165 C   0  0  0  0  0  0  0  0  0  0  0  0
    1.0552   -9.6360   17.0650 C   0  0  0  0  0  0  0  0  0  0  0  0
    3.6519   -9.1783   16.9039 C   0  0  0  0  0  0  0  0  0  0  0  0
    7.8675   -7.0096   15.9415 C   0  0  0  0  0  0  0  0  0  0  0  0
    5.9733   -9.6553   17.3832 N   0  0  0  0  0  0  0  0  0  0  0  0
   10.2411   -2.9363   23.4301 C   0  0  0  0  0  0  0  0  0  0  0  0
   10.7288   -3.8197   19.9525 C   0  0  0  0  0  0  0  0  0  0  0  0
   10.1189   -5.0054   19.6987 C   0  0  0  0  0  0  0  0  0  0  0  0
  1  3  4  0
  1  7  4  0
  2 21  4  0
  2 27  4  0
  3  9  4  0
  3 10  4  0
  4  8  4  0
  4 18  4  0
  4 25  1  0
  5  9  4  0
  5 12  4  0
  6 13  1  0
  6 27  1  0
  7 28  4  0
  8 11  4  0
  9 29  4  0
 10 12  4  0
 11 24  1  0
 11 26  4  0
 12 25  1  0
 13 28  1  0
 14 20  4  0
 14 23  4  0
 15 17  4  0
 15 21  4  0
 16 19  4  0
 16 23  4  0
 17 22  4  0
 18 26  4  0
 19 24  4  0
 20 24  4  0
 22 27  4  0
 28 29  4  0
M  END
$$$$

 Created by Python create_sdf_string function

 29 33  0  0  0  0  0  0  0  0999 V2000
   10.7215   -3.3326   17.6437 C   0  0  0  0  0  0  0  0  0  0  0  0
    9.9489   -3.4675   24.6487 N   0  0  0  0  0  0  0  0  0  0  0  0
   10.0172   -4.4740   17.4101 C   0  0  0  0  0  0  0  0  0  0  0  0
    6.9051   -7.9575   16.4222 C   0  0  0  0  0  0  0  0  0  0  0  0
    8.9969   -6.3552   17.9668 N   0  0  0  0  0  0  0  0  0  0  0  0
   10.6702   -3.9051   22.4070 C   0  0  0  0  0  0  0  0  0  0  0  0
   11.0625   -3.0028   18.8894 C   0  0  0  0  0  0  0  0  0  0  0  0
    5.6180   -7.9194   16.1754 O   0  0  0  0  0  0  0  0  0  0  0  0
    9.7259   -5.3080   18.4485 C   0  0  0  0  0  0  0  0  0  0  0  0
    9.4578   -5.0200   16.3036 N   0  0  0  0  0  0  0  0  0  0  0  0
    5.0287   -8.9365   16.8223 C   0  0  0  0  0  0  0  0  0  0  0  0
    8.7742   -6.1498   16.6764 C   0  0  0  0  0  0  0  0  0  0  0  0
   10.9418   -3.4032   21.2053 O   0  0  0  0  0  0  0  0  0  0  0  0
    1.4797   -8.6258   16.2950 C   0  0  0  0  0  0  0  0  0  0  0  0
    9.2861   -1.2743   25.3585 C   0  0  0  0  0  0  0  0  0  0  0  0
    1.8892  -10.3985   17.7511 N   0  0  0  0  0  0  0  0  0  0  0  0
    9.6210   -0.6952   24.0976 C   0  0  0  0  0  0  0  0  0  0  0  0
    7.0792   -9.0217   17.1429 C   0  0  0  0  0  0  0  0  0  0  0  0
    3.1713  -10.1816   17.6634 C   0  0  0  0  0  0  0  0  0  0  0  0
    2.7878   -8.3822   16.2137 C   0  0  0  0  0  0  0  0  0  0  0  0
    9.4601   -2.6590   25.6528 C   0  0  0  0  0  0  0  0  0  0  0  0
   10.1182   -1.5672   23.1165 C   0  0  0  0  0  0  0  0  0  0  0  0
    1.0552   -9.6360   17.0650 C   0  0  0  0  0  0  0  0  0  0  0  0
    3.6519   -9.1783   16.9039 C   0  0  0  0  0  0  0  0  0  0  0  0
    7.8675   -7.0096   15.9415 C   0  0  0  0  0  0  0  0  0  0  0  0
    5.9733   -9.6553   17.3832 N   0  0  0  0  0  0  0  0  0  0  0  0
   10.2411   -2.9363   23.4301 C   0  0  0  0  0  0  0  0  0  0  0  0
   10.7288   -3.8197   19.9525 C   0  0  0  0  0  0  0  0  0  0  0  0
   10.1189   -5.0054   19.6987 C   0  0  0  0  0  0  0  0  0  0  0  0
  1  3  4  0
  1  7  4  0
  2 21  4  0
  2 27  4  0
  3  9  4  0
  3 10  4  0
  4  8  4  0
  4 18  4  0
  4 25  1  0
  5  9  4  0
  5 12  4  0
  6 13  1  0
  6 27  1  0
  7 28  4  0
  8 11  4  0
  9 29  4  0
 10 12  4  0
 11 24  1  0
 11 26  4  0
 12 25  1  0
 13 28  1  0
 14 20  4  0
 14 23  4  0
 15 17  4  0
 15 21  4  0
 16 19  4  0
 16 23  4  0
 17 22  4  0
 18 26  4  0
 19 24  4  0
 20 24  4  0
 22 27  4  0
 28 29  4  0
M  END
$$$$

 Created by Python create_sdf_string function

 29 33  0  0  0  0  0  0  0  0999 V2000
   10.7215   -3.3326   17.6437 C   0  0  0  0  0  0  0  0  0  0  0  0
    9.9489   -3.4675   24.6487 N   0  0  0  0  0  0  0  0  0  0  0  0
   10.0172   -4.4740   17.4101 C   0  0  0  0  0  0  0  0  0  0  0  0
    6.9051   -7.9575   16.4222 C   0  0  0  0  0  0  0  0  0  0  0  0
    8.9969   -6.3552   17.9668 N   0  0  0  0  0  0  0  0  0  0  0  0
   10.6702   -3.9051   22.4070 C   0  0  0  0  0  0  0  0  0  0  0  0
   11.0625   -3.0028   18.8894 C   0  0  0  0  0  0  0  0  0  0  0  0
    5.6180   -7.9194   16.1754 O   0  0  0  0  0  0  0  0  0  0  0  0
    9.7259   -5.3080   18.4485 C   0  0  0  0  0  0  0  0  0  0  0  0
    9.4578   -5.0200   16.3036 N   0  0  0  0  0  0  0  0  0  0  0  0
    5.0287   -8.9365   16.8223 C   0  0  0  0  0  0  0  0  0  0  0  0
    8.7742   -6.1498   16.6764 C   0  0  0  0  0  0  0  0  0  0  0  0
   10.9418   -3.4032   21.2053 O   0  0  0  0  0  0  0  0  0  0  0  0
    1.4797   -8.6258   16.2950 C   0  0  0  0  0  0  0  0  0  0  0  0
    9.2861   -1.2743   25.3585 C   0  0  0  0  0  0  0  0  0  0  0  0
    1.8892  -10.3985   17.7511 N   0  0  0  0  0  0  0  0  0  0  0  0
    9.6210   -0.6952   24.0976 C   0  0  0  0  0  0  0  0  0  0  0  0
    7.0792   -9.0217   17.1429 C   0  0  0  0  0  0  0  0  0  0  0  0
    3.1713  -10.1816   17.6634 C   0  0  0  0  0  0  0  0  0  0  0  0
    2.7878   -8.3822   16.2137 C   0  0  0  0  0  0  0  0  0  0  0  0
    9.4601   -2.6590   25.6528 C   0  0  0  0  0  0  0  0  0  0  0  0
   10.1182   -1.5672   23.1165 C   0  0  0  0  0  0  0  0  0  0  0  0
    1.0552   -9.6360   17.0650 C   0  0  0  0  0  0  0  0  0  0  0  0
    3.6519   -9.1783   16.9039 C   0  0  0  0  0  0  0  0  0  0  0  0
    7.8675   -7.0096   15.9415 C   0  0  0  0  0  0  0  0  0  0  0  0
    5.9733   -9.6553   17.3832 N   0  0  0  0  0  0  0  0  0  0  0  0
   10.2411   -2.9363   23.4301 C   0  0  0  0  0  0  0  0  0  0  0  0
   10.7288   -3.8197   19.9525 C   0  0  0  0  0  0  0  0  0  0  0  0
   10.1189   -5.0054   19.6987 C   0  0  0  0  0  0  0  0  0  0  0  0
  1  3  4  0
  1  7  4  0
  2 21  4  0
  2 27  4  0
  3  9  4  0
  3 10  4  0
  4  8  4  0
  4 18  4  0
  4 25  1  0
  5  9  4  0
  5 12  4  0
  6 13  1  0
  6 27  1  0
  7 28  4  0
  8 11  4  0
  9 29  4  0
 10 12  4  0
 11 24  1  0
 11 26  4  0
 12 25  1  0
 13 28  1  0
 14 20  4  0
 14 23  4  0
 15 17  4  0
 15 21  4  0
 16 19  4  0
 16 23  4  0
 17 22  4  0
 18 26  4  0
 19 24  4  0
 20 24  4  0
 22 27  4  0
 28 29  4  0
M  END
$$$$

 Created by Python create_sdf_string function

 29 33  0  0  0  0  0  0  0  0999 V2000
   10.7215   -3.3326   17.6437 C   0  0  0  0  0  0  0  0  0  0  0  0
    9.9489   -3.4675   24.6487 N   0  0  0  0  0  0  0  0  0  0  0  0
   10.0172   -4.4740   17.4101 C   0  0  0  0  0  0  0  0  0  0  0  0
    6.9051   -7.9575   16.4222 C   0  0  0  0  0  0  0  0  0  0  0  0
    8.9969   -6.3552   17.9668 N   0  0  0  0  0  0  0  0  0  0  0  0
   10.6702   -3.9051   22.4070 C   0  0  0  0  0  0  0  0  0  0  0  0
   11.0625   -3.0028   18.8894 C   0  0  0  0  0  0  0  0  0  0  0  0
    5.6180   -7.9194   16.1754 O   0  0  0  0  0  0  0  0  0  0  0  0
    9.7259   -5.3080   18.4485 C   0  0  0  0  0  0  0  0  0  0  0  0
    9.4578   -5.0200   16.3036 N   0  0  0  0  0  0  0  0  0  0  0  0
    5.0287   -8.9365   16.8223 C   0  0  0  0  0  0  0  0  0  0  0  0
    8.7742   -6.1498   16.6764 C   0  0  0  0  0  0  0  0  0  0  0  0
   10.9418   -3.4032   21.2053 O   0  0  0  0  0  0  0  0  0  0  0  0
    1.4797   -8.6258   16.2950 C   0  0  0  0  0  0  0  0  0  0  0  0
    9.2861   -1.2743   25.3585 C   0  0  0  0  0  0  0  0  0  0  0  0
    1.8892  -10.3985   17.7511 N   0  0  0  0  0  0  0  0  0  0  0  0
    9.6210   -0.6952   24.0976 C   0  0  0  0  0  0  0  0  0  0  0  0
    7.0792   -9.0217   17.1429 C   0  0  0  0  0  0  0  0  0  0  0  0
    3.1713  -10.1816   17.6634 C   0  0  0  0  0  0  0  0  0  0  0  0
    2.7878   -8.3822   16.2137 C   0  0  0  0  0  0  0  0  0  0  0  0
    9.4601   -2.6590   25.6528 C   0  0  0  0  0  0  0  0  0  0  0  0
   10.1182   -1.5672   23.1165 C   0  0  0  0  0  0  0  0  0  0  0  0
    1.0552   -9.6360   17.0650 C   0  0  0  0  0  0  0  0  0  0  0  0
    3.6519   -9.1783   16.9039 C   0  0  0  0  0  0  0  0  0  0  0  0
    7.8675   -7.0096   15.9415 C   0  0  0  0  0  0  0  0  0  0  0  0
    5.9733   -9.6553   17.3832 N   0  0  0  0  0  0  0  0  0  0  0  0
   10.2411   -2.9363   23.4301 C   0  0  0  0  0  0  0  0  0  0  0  0
   10.7288   -3.8197   19.9525 C   0  0  0  0  0  0  0  0  0  0  0  0
   10.1189   -5.0054   19.6987 C   0  0  0  0  0  0  0  0  0  0  0  0
  1  3  4  0
  1  7  4  0
  2 21  4  0
  2 27  4  0
  3  9  4  0
  3 10  4  0
  4  8  4  0
  4 18  4  0
  4 25  1  0
  5  9  4  0
  5 12  4  0
  6 13  1  0
  6 27  1  0
  7 28  4  0
  8 11  4  0
  9 29  4  0
 10 12  4  0
 11 24  1  0
 11 26  4  0
 12 25  1  0
 13 28  1  0
 14 20  4  0
 14 23  4  0
 15 17  4  0
 15 21  4  0
 16 19  4  0
 16 23  4  0
 17 22  4  0
 18 26  4  0
 19 24  4  0
 20 24  4  0
 22 27  4  0
 28 29  4  0
M  END
$$$$

 Created by Python create_sdf_string function

 29 33  0  0  0  0  0  0  0  0999 V2000
   10.7215   -3.3326   17.6437 C   0  0  0  0  0  0  0  0  0  0  0  0
    9.9489   -3.4675   24.6487 N   0  0  0  0  0  0  0  0  0  0  0  0
   10.0172   -4.4740   17.4101 C   0  0  0  0  0  0  0  0  0  0  0  0
    6.9051   -7.9575   16.4222 C   0  0  0  0  0  0  0  0  0  0  0  0
    8.9969   -6.3552   17.9668 N   0  0  0  0  0  0  0  0  0  0  0  0
   10.6702   -3.9051   22.4070 C   0  0  0  0  0  0  0  0  0  0  0  0
   11.0625   -3.0028   18.8894 C   0  0  0  0  0  0  0  0  0  0  0  0
    5.6180   -7.9194   16.1754 O   0  0  0  0  0  0  0  0  0  0  0  0
    9.7259   -5.3080   18.4485 C   0  0  0  0  0  0  0  0  0  0  0  0
    9.4578   -5.0200   16.3036 N   0  0  0  0  0  0  0  0  0  0  0  0
    5.0287   -8.9365   16.8223 C   0  0  0  0  0  0  0  0  0  0  0  0
    8.7742   -6.1498   16.6764 C   0  0  0  0  0  0  0  0  0  0  0  0
   10.9418   -3.4032   21.2053 O   0  0  0  0  0  0  0  0  0  0  0  0
    1.4797   -8.6258   16.2950 C   0  0  0  0  0  0  0  0  0  0  0  0
    9.2861   -1.2743   25.3585 C   0  0  0  0  0  0  0  0  0  0  0  0
    1.8892  -10.3985   17.7511 N   0  0  0  0  0  0  0  0  0  0  0  0
    9.6210   -0.6952   24.0976 C   0  0  0  0  0  0  0  0  0  0  0  0
    7.0792   -9.0217   17.1429 C   0  0  0  0  0  0  0  0  0  0  0  0
    3.1713  -10.1816   17.6634 C   0  0  0  0  0  0  0  0  0  0  0  0
    2.7878   -8.3822   16.2137 C   0  0  0  0  0  0  0  0  0  0  0  0
    9.4601   -2.6590   25.6528 C   0  0  0  0  0  0  0  0  0  0  0  0
   10.1182   -1.5672   23.1165 C   0  0  0  0  0  0  0  0  0  0  0  0
    1.0552   -9.6360   17.0650 C   0  0  0  0  0  0  0  0  0  0  0  0
    3.6519   -9.1783   16.9039 C   0  0  0  0  0  0  0  0  0  0  0  0
    7.8675   -7.0096   15.9415 C   0  0  0  0  0  0  0  0  0  0  0  0
    5.9733   -9.6553   17.3832 N   0  0  0  0  0  0  0  0  0  0  0  0
   10.2411   -2.9363   23.4301 C   0  0  0  0  0  0  0  0  0  0  0  0
   10.7288   -3.8197   19.9525 C   0  0  0  0  0  0  0  0  0  0  0  0
   10.1189   -5.0054   19.6987 C   0  0  0  0  0  0  0  0  0  0  0  0
  1  3  4  0
  1  7  4  0
  2 21  4  0
  2 27  4  0
  3  9  4  0
  3 10  4  0
  4  8  4  0
  4 18  4  0
  4 25  1  0
  5  9  4  0
  5 12  4  0
  6 13  1  0
  6 27  1  0
  7 28  4  0
  8 11  4  0
  9 29  4  0
 10 12  4  0
 11 24  1  0
 11 26  4  0
 12 25  1  0
 13 28  1  0
 14 20  4  0
 14 23  4  0
 15 17  4  0
 15 21  4  0
 16 19  4  0
 16 23  4  0
 17 22  4  0
 18 26  4  0
 19 24  4  0
 20 24  4  0
 22 27  4  0
 28 29  4  0
M  END
$$$$

 Created by Python create_sdf_string function

 29 33  0  0  0  0  0  0  0  0999 V2000
   10.7215   -3.3326   17.6437 C   0  0  0  0  0  0  0  0  0  0  0  0
    9.9489   -3.4675   24.6487 N   0  0  0  0  0  0  0  0  0  0  0  0
   10.0172   -4.4740   17.4101 C   0  0  0  0  0  0  0  0  0  0  0  0
    6.9051   -7.9575   16.4222 C   0  0  0  0  0  0  0  0  0  0  0  0
    8.9969   -6.3552   17.9668 N   0  0  0  0  0  0  0  0  0  0  0  0
   10.6702   -3.9051   22.4070 C   0  0  0  0  0  0  0  0  0  0  0  0
   11.0625   -3.0028   18.8894 C   0  0  0  0  0  0  0  0  0  0  0  0
    5.6180   -7.9194   16.1754 O   0  0  0  0  0  0  0  0  0  0  0  0
    9.7259   -5.3080   18.4485 C   0  0  0  0  0  0  0  0  0  0  0  0
    9.4578   -5.0200   16.3036 N   0  0  0  0  0  0  0  0  0  0  0  0
    5.0287   -8.9365   16.8223 C   0  0  0  0  0  0  0  0  0  0  0  0
    8.7742   -6.1498   16.6764 C   0  0  0  0  0  0  0  0  0  0  0  0
   10.9418   -3.4032   21.2053 O   0  0  0  0  0  0  0  0  0  0  0  0
    1.4797   -8.6258   16.2950 C   0  0  0  0  0  0  0  0  0  0  0  0
    9.2861   -1.2743   25.3585 C   0  0  0  0  0  0  0  0  0  0  0  0
    1.8892  -10.3985   17.7511 N   0  0  0  0  0  0  0  0  0  0  0  0
    9.6210   -0.6952   24.0976 C   0  0  0  0  0  0  0  0  0  0  0  0
    7.0792   -9.0217   17.1429 C   0  0  0  0  0  0  0  0  0  0  0  0
    3.1713  -10.1816   17.6634 C   0  0  0  0  0  0  0  0  0  0  0  0
    2.7878   -8.3822   16.2137 C   0  0  0  0  0  0  0  0  0  0  0  0
    9.4601   -2.6590   25.6528 C   0  0  0  0  0  0  0  0  0  0  0  0
   10.1182   -1.5672   23.1165 C   0  0  0  0  0  0  0  0  0  0  0  0
    1.0552   -9.6360   17.0650 C   0  0  0  0  0  0  0  0  0  0  0  0
    3.6519   -9.1783   16.9039 C   0  0  0  0  0  0  0  0  0  0  0  0
    7.8675   -7.0096   15.9415 C   0  0  0  0  0  0  0  0  0  0  0  0
    5.9733   -9.6553   17.3832 N   0  0  0  0  0  0  0  0  0  0  0  0
   10.2411   -2.9363   23.4301 C   0  0  0  0  0  0  0  0  0  0  0  0
   10.7288   -3.8197   19.9525 C   0  0  0  0  0  0  0  0  0  0  0  0
   10.1189   -5.0054   19.6987 C   0  0  0  0  0  0  0  0  0  0  0  0
  1  3  4  0
  1  7  4  0
  2 21  4  0
  2 27  4  0
  3  9  4  0
  3 10  4  0
  4  8  4  0
  4 18  4  0
  4 25  1  0
  5  9  4  0
  5 12  4  0
  6 13  1  0
  6 27  1  0
  7 28  4  0
  8 11  4  0
  9 29  4  0
 10 12  4  0
 11 24  1  0
 11 26  4  0
 12 25  1  0
 13 28  1  0
 14 20  4  0
 14 23  4  0
 15 17  4  0
 15 21  4  0
 16 19  4  0
 16 23  4  0
 17 22  4  0
 18 26  4  0
 19 24  4  0
 20 24  4  0
 22 27  4  0
 28 29  4  0
M  END
$$$$

 Created by Python create_sdf_string function

 29 33  0  0  0  0  0  0  0  0999 V2000
   10.7215   -3.3326   17.6437 C   0  0  0  0  0  0  0  0  0  0  0  0
    9.9489   -3.4675   24.6487 N   0  0  0  0  0  0  0  0  0  0  0  0
   10.0172   -4.4740   17.4101 C   0  0  0  0  0  0  0  0  0  0  0  0
    6.9051   -7.9575   16.4222 C   0  0  0  0  0  0  0  0  0  0  0  0
    8.9969   -6.3552   17.9668 N   0  0  0  0  0  0  0  0  0  0  0  0
   10.6702   -3.9051   22.4070 C   0  0  0  0  0  0  0  0  0  0  0  0
   11.0625   -3.0028   18.8894 C   0  0  0  0  0  0  0  0  0  0  0  0
    5.6180   -7.9194   16.1754 O   0  0  0  0  0  0  0  0  0  0  0  0
    9.7259   -5.3080   18.4485 C   0  0  0  0  0  0  0  0  0  0  0  0
    9.4578   -5.0200   16.3036 N   0  0  0  0  0  0  0  0  0  0  0  0
    5.0287   -8.9365   16.8223 C   0  0  0  0  0  0  0  0  0  0  0  0
    8.7742   -6.1498   16.6764 C   0  0  0  0  0  0  0  0  0  0  0  0
   10.9418   -3.4032   21.2053 O   0  0  0  0  0  0  0  0  0  0  0  0
    1.4797   -8.6258   16.2950 C   0  0  0  0  0  0  0  0  0  0  0  0
    9.2861   -1.2743   25.3585 C   0  0  0  0  0  0  0  0  0  0  0  0
    1.8892  -10.3985   17.7511 N   0  0  0  0  0  0  0  0  0  0  0  0
    9.6210   -0.6952   24.0976 C   0  0  0  0  0  0  0  0  0  0  0  0
    7.0792   -9.0217   17.1429 C   0  0  0  0  0  0  0  0  0  0  0  0
    3.1713  -10.1816   17.6634 C   0  0  0  0  0  0  0  0  0  0  0  0
    2.7878   -8.3822   16.2137 C   0  0  0  0  0  0  0  0  0  0  0  0
    9.4601   -2.6590   25.6528 C   0  0  0  0  0  0  0  0  0  0  0  0
   10.1182   -1.5672   23.1165 C   0  0  0  0  0  0  0  0  0  0  0  0
    1.0552   -9.6360   17.0650 C   0  0  0  0  0  0  0  0  0  0  0  0
    3.6519   -9.1783   16.9039 C   0  0  0  0  0  0  0  0  0  0  0  0
    7.8675   -7.0096   15.9415 C   0  0  0  0  0  0  0  0  0  0  0  0
    5.9733   -9.6553   17.3832 N   0  0  0  0  0  0  0  0  0  0  0  0
   10.2411   -2.9363   23.4301 C   0  0  0  0  0  0  0  0  0  0  0  0
   10.7288   -3.8197   19.9525 C   0  0  0  0  0  0  0  0  0  0  0  0
   10.1189   -5.0054   19.6987 C   0  0  0  0  0  0  0  0  0  0  0  0
  1  3  4  0
  1  7  4  0
  2 21  4  0
  2 27  4  0
  3  9  4  0
  3 10  4  0
  4  8  4  0
  4 18  4  0
  4 25  1  0
  5  9  4  0
  5 12  4  0
  6 13  1  0
  6 27  1  0
  7 28  4  0
  8 11  4  0
  9 29  4  0
 10 12  4  0
 11 24  1  0
 11 26  4  0
 12 25  1  0
 13 28  1  0
 14 20  4  0
 14 23  4  0
 15 17  4  0
 15 21  4  0
 16 19  4  0
 16 23  4  0
 17 22  4  0
 18 26  4  0
 19 24  4  0
 20 24  4  0
 22 27  4  0
 28 29  4  0
M  END
$$$$

 Created by Python create_sdf_string function

 29 33  0  0  0  0  0  0  0  0999 V2000
   10.7215   -3.3326   17.6437 C   0  0  0  0  0  0  0  0  0  0  0  0
    9.9489   -3.4675   24.6487 N   0  0  0  0  0  0  0  0  0  0  0  0
   10.0172   -4.4740   17.4101 C   0  0  0  0  0  0  0  0  0  0  0  0
    6.9051   -7.9575   16.4222 C   0  0  0  0  0  0  0  0  0  0  0  0
    8.9969   -6.3552   17.9668 N   0  0  0  0  0  0  0  0  0  0  0  0
   10.6702   -3.9051   22.4070 C   0  0  0  0  0  0  0  0  0  0  0  0
   11.0625   -3.0028   18.8894 C   0  0  0  0  0  0  0  0  0  0  0  0
    5.6180   -7.9194   16.1754 O   0  0  0  0  0  0  0  0  0  0  0  0
    9.7259   -5.3080   18.4485 C   0  0  0  0  0  0  0  0  0  0  0  0
    9.4578   -5.0200   16.3036 N   0  0  0  0  0  0  0  0  0  0  0  0
    5.0287   -8.9365   16.8223 C   0  0  0  0  0  0  0  0  0  0  0  0
    8.7742   -6.1498   16.6764 C   0  0  0  0  0  0  0  0  0  0  0  0
   10.9418   -3.4032   21.2053 O   0  0  0  0  0  0  0  0  0  0  0  0
    1.4797   -8.6258   16.2950 C   0  0  0  0  0  0  0  0  0  0  0  0
    9.2861   -1.2743   25.3585 C   0  0  0  0  0  0  0  0  0  0  0  0
    1.8892  -10.3985   17.7511 N   0  0  0  0  0  0  0  0  0  0  0  0
    9.6210   -0.6952   24.0976 C   0  0  0  0  0  0  0  0  0  0  0  0
    7.0792   -9.0217   17.1429 C   0  0  0  0  0  0  0  0  0  0  0  0
    3.1713  -10.1816   17.6634 C   0  0  0  0  0  0  0  0  0  0  0  0
    2.7878   -8.3822   16.2137 C   0  0  0  0  0  0  0  0  0  0  0  0
    9.4601   -2.6590   25.6528 C   0  0  0  0  0  0  0  0  0  0  0  0
   10.1182   -1.5672   23.1165 C   0  0  0  0  0  0  0  0  0  0  0  0
    1.0552   -9.6360   17.0650 C   0  0  0  0  0  0  0  0  0  0  0  0
    3.6519   -9.1783   16.9039 C   0  0  0  0  0  0  0  0  0  0  0  0
    7.8675   -7.0096   15.9415 C   0  0  0  0  0  0  0  0  0  0  0  0
    5.9733   -9.6553   17.3832 N   0  0  0  0  0  0  0  0  0  0  0  0
   10.2411   -2.9363   23.4301 C   0  0  0  0  0  0  0  0  0  0  0  0
   10.7288   -3.8197   19.9525 C   0  0  0  0  0  0  0  0  0  0  0  0
   10.1189   -5.0054   19.6987 C   0  0  0  0  0  0  0  0  0  0  0  0
  1  3  4  0
  1  7  4  0
  2 21  4  0
  2 27  4  0
  3  9  4  0
  3 10  4  0
  4  8  4  0
  4 18  4  0
  4 25  1  0
  5  9  4  0
  5 12  4  0
  6 13  1  0
  6 27  1  0
  7 28  4  0
  8 11  4  0
  9 29  4  0
 10 12  4  0
 11 24  1  0
 11 26  4  0
 12 25  1  0
 13 28  1  0
 14 20  4  0
 14 23  4  0
 15 17  4  0
 15 21  4  0
 16 19  4  0
 16 23  4  0
 17 22  4  0
 18 26  4  0
 19 24  4  0
 20 24  4  0
 22 27  4  0
 28 29  4  0
M  END
$$$$

 Created by Python create_sdf_string function

 29 33  0  0  0  0  0  0  0  0999 V2000
   10.7215   -3.3326   17.6437 C   0  0  0  0  0  0  0  0  0  0  0  0
    9.9489   -3.4675   24.6487 N   0  0  0  0  0  0  0  0  0  0  0  0
   10.0172   -4.4740   17.4101 C   0  0  0  0  0  0  0  0  0  0  0  0
    6.9051   -7.9575   16.4222 C   0  0  0  0  0  0  0  0  0  0  0  0
    8.9969   -6.3552   17.9668 N   0  0  0  0  0  0  0  0  0  0  0  0
   10.6702   -3.9051   22.4070 C   0  0  0  0  0  0  0  0  0  0  0  0
   11.0625   -3.0028   18.8894 C   0  0  0  0  0  0  0  0  0  0  0  0
    5.6180   -7.9194   16.1754 O   0  0  0  0  0  0  0  0  0  0  0  0
    9.7259   -5.3080   18.4485 C   0  0  0  0  0  0  0  0  0  0  0  0
    9.4578   -5.0200   16.3036 N   0  0  0  0  0  0  0  0  0  0  0  0
    5.0287   -8.9365   16.8223 C   0  0  0  0  0  0  0  0  0  0  0  0
    8.7742   -6.1498   16.6764 C   0  0  0  0  0  0  0  0  0  0  0  0
   10.9418   -3.4032   21.2053 O   0  0  0  0  0  0  0  0  0  0  0  0
    1.4797   -8.6258   16.2950 C   0  0  0  0  0  0  0  0  0  0  0  0
    9.2861   -1.2743   25.3585 C   0  0  0  0  0  0  0  0  0  0  0  0
    1.8892  -10.3985   17.7511 N   0  0  0  0  0  0  0  0  0  0  0  0
    9.6210   -0.6952   24.0976 C   0  0  0  0  0  0  0  0  0  0  0  0
    7.0792   -9.0217   17.1429 C   0  0  0  0  0  0  0  0  0  0  0  0
    3.1713  -10.1816   17.6634 C   0  0  0  0  0  0  0  0  0  0  0  0
    2.7878   -8.3822   16.2137 C   0  0  0  0  0  0  0  0  0  0  0  0
    9.4601   -2.6590   25.6528 C   0  0  0  0  0  0  0  0  0  0  0  0
   10.1182   -1.5672   23.1165 C   0  0  0  0  0  0  0  0  0  0  0  0
    1.0552   -9.6360   17.0650 C   0  0  0  0  0  0  0  0  0  0  0  0
    3.6519   -9.1783   16.9039 C   0  0  0  0  0  0  0  0  0  0  0  0
    7.8675   -7.0096   15.9415 C   0  0  0  0  0  0  0  0  0  0  0  0
    5.9733   -9.6553   17.3832 N   0  0  0  0  0  0  0  0  0  0  0  0
   10.2411   -2.9363   23.4301 C   0  0  0  0  0  0  0  0  0  0  0  0
   10.7288   -3.8197   19.9525 C   0  0  0  0  0  0  0  0  0  0  0  0
   10.1189   -5.0054   19.6987 C   0  0  0  0  0  0  0  0  0  0  0  0
  1  3  4  0
  1  7  4  0
  2 21  4  0
  2 27  4  0
  3  9  4  0
  3 10  4  0
  4  8  4  0
  4 18  4  0
  4 25  1  0
  5  9  4  0
  5 12  4  0
  6 13  1  0
  6 27  1  0
  7 28  4  0
  8 11  4  0
  9 29  4  0
 10 12  4  0
 11 24  1  0
 11 26  4  0
 12 25  1  0
 13 28  1  0
 14 20  4  0
 14 23  4  0
 15 17  4  0
 15 21  4  0
 16 19  4  0
 16 23  4  0
 17 22  4  0
 18 26  4  0
 19 24  4  0
 20 24  4  0
 22 27  4  0
 28 29  4  0
M  END
$$$$

 Created by Python create_sdf_string function

 29 33  0  0  0  0  0  0  0  0999 V2000
   10.7215   -3.3326   17.6437 C   0  0  0  0  0  0  0  0  0  0  0  0
    9.9489   -3.4675   24.6487 N   0  0  0  0  0  0  0  0  0  0  0  0
   10.0172   -4.4740   17.4101 C   0  0  0  0  0  0  0  0  0  0  0  0
    6.9051   -7.9575   16.4222 C   0  0  0  0  0  0  0  0  0  0  0  0
    8.9969   -6.3552   17.9668 N   0  0  0  0  0  0  0  0  0  0  0  0
   10.6702   -3.9051   22.4070 C   0  0  0  0  0  0  0  0  0  0  0  0
   11.0625   -3.0028   18.8894 C   0  0  0  0  0  0  0  0  0  0  0  0
    5.6180   -7.9194   16.1754 O   0  0  0  0  0  0  0  0  0  0  0  0
    9.7259   -5.3080   18.4485 C   0  0  0  0  0  0  0  0  0  0  0  0
    9.4578   -5.0200   16.3036 N   0  0  0  0  0  0  0  0  0  0  0  0
    5.0287   -8.9365   16.8223 C   0  0  0  0  0  0  0  0  0  0  0  0
    8.7742   -6.1498   16.6764 C   0  0  0  0  0  0  0  0  0  0  0  0
   10.9418   -3.4032   21.2053 O   0  0  0  0  0  0  0  0  0  0  0  0
    1.4797   -8.6258   16.2950 C   0  0  0  0  0  0  0  0  0  0  0  0
    9.2861   -1.2743   25.3585 C   0  0  0  0  0  0  0  0  0  0  0  0
    1.8892  -10.3985   17.7511 N   0  0  0  0  0  0  0  0  0  0  0  0
    9.6210   -0.6952   24.0976 C   0  0  0  0  0  0  0  0  0  0  0  0
    7.0792   -9.0217   17.1429 C   0  0  0  0  0  0  0  0  0  0  0  0
    3.1713  -10.1816   17.6634 C   0  0  0  0  0  0  0  0  0  0  0  0
    2.7878   -8.3822   16.2137 C   0  0  0  0  0  0  0  0  0  0  0  0
    9.4601   -2.6590   25.6528 C   0  0  0  0  0  0  0  0  0  0  0  0
   10.1182   -1.5672   23.1165 C   0  0  0  0  0  0  0  0  0  0  0  0
    1.0552   -9.6360   17.0650 C   0  0  0  0  0  0  0  0  0  0  0  0
    3.6519   -9.1783   16.9039 C   0  0  0  0  0  0  0  0  0  0  0  0
    7.8675   -7.0096   15.9415 C   0  0  0  0  0  0  0  0  0  0  0  0
    5.9733   -9.6553   17.3832 N   0  0  0  0  0  0  0  0  0  0  0  0
   10.2411   -2.9363   23.4301 C   0  0  0  0  0  0  0  0  0  0  0  0
   10.7288   -3.8197   19.9525 C   0  0  0  0  0  0  0  0  0  0  0  0
   10.1189   -5.0054   19.6987 C   0  0  0  0  0  0  0  0  0  0  0  0
  1  3  4  0
  1  7  4  0
  2 21  4  0
  2 27  4  0
  3  9  4  0
  3 10  4  0
  4  8  4  0
  4 18  4  0
  4 25  1  0
  5  9  4  0
  5 12  4  0
  6 13  1  0
  6 27  1  0
  7 28  4  0
  8 11  4  0
  9 29  4  0
 10 12  4  0
 11 24  1  0
 11 26  4  0
 12 25  1  0
 13 28  1  0
 14 20  4  0
 14 23  4  0
 15 17  4  0
 15 21  4  0
 16 19  4  0
 16 23  4  0
 17 22  4  0
 18 26  4  0
 19 24  4  0
 20 24  4  0
 22 27  4  0
 28 29  4  0
M  END
$$$$

 Created by Python create_sdf_string function

 29 33  0  0  0  0  0  0  0  0999 V2000
   10.7215   -3.3326   17.6437 C   0  0  0  0  0  0  0  0  0  0  0  0
    9.9489   -3.4675   24.6487 N   0  0  0  0  0  0  0  0  0  0  0  0
   10.0172   -4.4740   17.4101 C   0  0  0  0  0  0  0  0  0  0  0  0
    6.9051   -7.9575   16.4222 C   0  0  0  0  0  0  0  0  0  0  0  0
    8.9969   -6.3552   17.9668 N   0  0  0  0  0  0  0  0  0  0  0  0
   10.6702   -3.9051   22.4070 C   0  0  0  0  0  0  0  0  0  0  0  0
   11.0625   -3.0028   18.8894 C   0  0  0  0  0  0  0  0  0  0  0  0
    5.6180   -7.9194   16.1754 O   0  0  0  0  0  0  0  0  0  0  0  0
    9.7259   -5.3080   18.4485 C   0  0  0  0  0  0  0  0  0  0  0  0
    9.4578   -5.0200   16.3036 N   0  0  0  0  0  0  0  0  0  0  0  0
    5.0287   -8.9365   16.8223 C   0  0  0  0  0  0  0  0  0  0  0  0
    8.7742   -6.1498   16.6764 C   0  0  0  0  0  0  0  0  0  0  0  0
   10.9418   -3.4032   21.2053 O   0  0  0  0  0  0  0  0  0  0  0  0
    1.4797   -8.6258   16.2950 C   0  0  0  0  0  0  0  0  0  0  0  0
    9.2861   -1.2743   25.3585 C   0  0  0  0  0  0  0  0  0  0  0  0
    1.8892  -10.3985   17.7511 N   0  0  0  0  0  0  0  0  0  0  0  0
    9.6210   -0.6952   24.0976 C   0  0  0  0  0  0  0  0  0  0  0  0
    7.0792   -9.0217   17.1429 C   0  0  0  0  0  0  0  0  0  0  0  0
    3.1713  -10.1816   17.6634 C   0  0  0  0  0  0  0  0  0  0  0  0
    2.7878   -8.3822   16.2137 C   0  0  0  0  0  0  0  0  0  0  0  0
    9.4601   -2.6590   25.6528 C   0  0  0  0  0  0  0  0  0  0  0  0
   10.1182   -1.5672   23.1165 C   0  0  0  0  0  0  0  0  0  0  0  0
    1.0552   -9.6360   17.0650 C   0  0  0  0  0  0  0  0  0  0  0  0
    3.6519   -9.1783   16.9039 C   0  0  0  0  0  0  0  0  0  0  0  0
    7.8675   -7.0096   15.9415 C   0  0  0  0  0  0  0  0  0  0  0  0
    5.9733   -9.6553   17.3832 N   0  0  0  0  0  0  0  0  0  0  0  0
   10.2411   -2.9363   23.4301 C   0  0  0  0  0  0  0  0  0  0  0  0
   10.7288   -3.8197   19.9525 C   0  0  0  0  0  0  0  0  0  0  0  0
   10.1189   -5.0054   19.6987 C   0  0  0  0  0  0  0  0  0  0  0  0
  1  3  4  0
  1  7  4  0
  2 21  4  0
  2 27  4  0
  3  9  4  0
  3 10  4  0
  4  8  4  0
  4 18  4  0
  4 25  1  0
  5  9  4  0
  5 12  4  0
  6 13  1  0
  6 27  1  0
  7 28  4  0
  8 11  4  0
  9 29  4  0
 10 12  4  0
 11 24  1  0
 11 26  4  0
 12 25  1  0
 13 28  1  0
 14 20  4  0
 14 23  4  0
 15 17  4  0
 15 21  4  0
 16 19  4  0
 16 23  4  0
 17 22  4  0
 18 26  4  0
 19 24  4  0
 20 24  4  0
 22 27  4  0
 28 29  4  0
M  END
$$$$

 Created by Python create_sdf_string function

 29 33  0  0  0  0  0  0  0  0999 V2000
   10.7215   -3.3326   17.6437 C   0  0  0  0  0  0  0  0  0  0  0  0
    9.9489   -3.4675   24.6487 N   0  0  0  0  0  0  0  0  0  0  0  0
   10.0172   -4.4740   17.4101 C   0  0  0  0  0  0  0  0  0  0  0  0
    6.9051   -7.9575   16.4222 C   0  0  0  0  0  0  0  0  0  0  0  0
    8.9969   -6.3552   17.9668 N   0  0  0  0  0  0  0  0  0  0  0  0
   10.6702   -3.9051   22.4070 C   0  0  0  0  0  0  0  0  0  0  0  0
   11.0625   -3.0028   18.8894 C   0  0  0  0  0  0  0  0  0  0  0  0
    5.6180   -7.9194   16.1754 O   0  0  0  0  0  0  0  0  0  0  0  0
    9.7259   -5.3080   18.4485 C   0  0  0  0  0  0  0  0  0  0  0  0
    9.4578   -5.0200   16.3036 N   0  0  0  0  0  0  0  0  0  0  0  0
    5.0287   -8.9365   16.8223 C   0  0  0  0  0  0  0  0  0  0  0  0
    8.7742   -6.1498   16.6764 C   0  0  0  0  0  0  0  0  0  0  0  0
   10.9418   -3.4032   21.2053 O   0  0  0  0  0  0  0  0  0  0  0  0
    1.4797   -8.6258   16.2950 C   0  0  0  0  0  0  0  0  0  0  0  0
    9.2861   -1.2743   25.3585 C   0  0  0  0  0  0  0  0  0  0  0  0
    1.8892  -10.3985   17.7511 N   0  0  0  0  0  0  0  0  0  0  0  0
    9.6210   -0.6952   24.0976 C   0  0  0  0  0  0  0  0  0  0  0  0
    7.0792   -9.0217   17.1429 C   0  0  0  0  0  0  0  0  0  0  0  0
    3.1713  -10.1816   17.6634 C   0  0  0  0  0  0  0  0  0  0  0  0
    2.7878   -8.3822   16.2137 C   0  0  0  0  0  0  0  0  0  0  0  0
    9.4601   -2.6590   25.6528 C   0  0  0  0  0  0  0  0  0  0  0  0
   10.1182   -1.5672   23.1165 C   0  0  0  0  0  0  0  0  0  0  0  0
    1.0552   -9.6360   17.0650 C   0  0  0  0  0  0  0  0  0  0  0  0
    3.6519   -9.1783   16.9039 C   0  0  0  0  0  0  0  0  0  0  0  0
    7.8675   -7.0096   15.9415 C   0  0  0  0  0  0  0  0  0  0  0  0
    5.9733   -9.6553   17.3832 N   0  0  0  0  0  0  0  0  0  0  0  0
   10.2411   -2.9363   23.4301 C   0  0  0  0  0  0  0  0  0  0  0  0
   10.7288   -3.8197   19.9525 C   0  0  0  0  0  0  0  0  0  0  0  0
   10.1189   -5.0054   19.6987 C   0  0  0  0  0  0  0  0  0  0  0  0
  1  3  4  0
  1  7  4  0
  2 21  4  0
  2 27  4  0
  3  9  4  0
  3 10  4  0
  4  8  4  0
  4 18  4  0
  4 25  1  0
  5  9  4  0
  5 12  4  0
  6 13  1  0
  6 27  1  0
  7 28  4  0
  8 11  4  0
  9 29  4  0
 10 12  4  0
 11 24  1  0
 11 26  4  0
 12 25  1  0
 13 28  1  0
 14 20  4  0
 14 23  4  0
 15 17  4  0
 15 21  4  0
 16 19  4  0
 16 23  4  0
 17 22  4  0
 18 26  4  0
 19 24  4  0
 20 24  4  0
 22 27  4  0
 28 29  4  0
M  END
$$$$

 Created by Python create_sdf_string function

 29 33  0  0  0  0  0  0  0  0999 V2000
   10.7215   -3.3326   17.6437 C   0  0  0  0  0  0  0  0  0  0  0  0
    9.9489   -3.4675   24.6487 N   0  0  0  0  0  0  0  0  0  0  0  0
   10.0172   -4.4740   17.4101 C   0  0  0  0  0  0  0  0  0  0  0  0
    6.9051   -7.9575   16.4222 C   0  0  0  0  0  0  0  0  0  0  0  0
    8.9969   -6.3552   17.9668 N   0  0  0  0  0  0  0  0  0  0  0  0
   10.6702   -3.9051   22.4070 C   0  0  0  0  0  0  0  0  0  0  0  0
   11.0625   -3.0028   18.8894 C   0  0  0  0  0  0  0  0  0  0  0  0
    5.6180   -7.9194   16.1754 O   0  0  0  0  0  0  0  0  0  0  0  0
    9.7259   -5.3080   18.4485 C   0  0  0  0  0  0  0  0  0  0  0  0
    9.4578   -5.0200   16.3036 N   0  0  0  0  0  0  0  0  0  0  0  0
    5.0287   -8.9365   16.8223 C   0  0  0  0  0  0  0  0  0  0  0  0
    8.7742   -6.1498   16.6764 C   0  0  0  0  0  0  0  0  0  0  0  0
   10.9418   -3.4032   21.2053 O   0  0  0  0  0  0  0  0  0  0  0  0
    1.4797   -8.6258   16.2950 C   0  0  0  0  0  0  0  0  0  0  0  0
    9.2861   -1.2743   25.3585 C   0  0  0  0  0  0  0  0  0  0  0  0
    1.8892  -10.3985   17.7511 N   0  0  0  0  0  0  0  0  0  0  0  0
    9.6210   -0.6952   24.0976 C   0  0  0  0  0  0  0  0  0  0  0  0
    7.0792   -9.0217   17.1429 C   0  0  0  0  0  0  0  0  0  0  0  0
    3.1713  -10.1816   17.6634 C   0  0  0  0  0  0  0  0  0  0  0  0
    2.7878   -8.3822   16.2137 C   0  0  0  0  0  0  0  0  0  0  0  0
    9.4601   -2.6590   25.6528 C   0  0  0  0  0  0  0  0  0  0  0  0
   10.1182   -1.5672   23.1165 C   0  0  0  0  0  0  0  0  0  0  0  0
    1.0552   -9.6360   17.0650 C   0  0  0  0  0  0  0  0  0  0  0  0
    3.6519   -9.1783   16.9039 C   0  0  0  0  0  0  0  0  0  0  0  0
    7.8675   -7.0096   15.9415 C   0  0  0  0  0  0  0  0  0  0  0  0
    5.9733   -9.6553   17.3832 N   0  0  0  0  0  0  0  0  0  0  0  0
   10.2411   -2.9363   23.4301 C   0  0  0  0  0  0  0  0  0  0  0  0
   10.7288   -3.8197   19.9525 C   0  0  0  0  0  0  0  0  0  0  0  0
   10.1189   -5.0054   19.6987 C   0  0  0  0  0  0  0  0  0  0  0  0
  1  3  4  0
  1  7  4  0
  2 21  4  0
  2 27  4  0
  3  9  4  0
  3 10  4  0
  4  8  4  0
  4 18  4  0
  4 25  1  0
  5  9  4  0
  5 12  4  0
  6 13  1  0
  6 27  1  0
  7 28  4  0
  8 11  4  0
  9 29  4  0
 10 12  4  0
 11 24  1  0
 11 26  4  0
 12 25  1  0
 13 28  1  0
 14 20  4  0
 14 23  4  0
 15 17  4  0
 15 21  4  0
 16 19  4  0
 16 23  4  0
 17 22  4  0
 18 26  4  0
 19 24  4  0
 20 24  4  0
 22 27  4  0
 28 29  4  0
M  END
$$$$

 Created by Python create_sdf_string function

 29 33  0  0  0  0  0  0  0  0999 V2000
   10.7215   -3.3326   17.6437 C   0  0  0  0  0  0  0  0  0  0  0  0
    9.9489   -3.4675   24.6487 N   0  0  0  0  0  0  0  0  0  0  0  0
   10.0172   -4.4740   17.4101 C   0  0  0  0  0  0  0  0  0  0  0  0
    6.9051   -7.9575   16.4222 C   0  0  0  0  0  0  0  0  0  0  0  0
    8.9969   -6.3552   17.9668 N   0  0  0  0  0  0  0  0  0  0  0  0
   10.6702   -3.9051   22.4070 C   0  0  0  0  0  0  0  0  0  0  0  0
   11.0625   -3.0028   18.8894 C   0  0  0  0  0  0  0  0  0  0  0  0
    5.6180   -7.9194   16.1754 O   0  0  0  0  0  0  0  0  0  0  0  0
    9.7259   -5.3080   18.4485 C   0  0  0  0  0  0  0  0  0  0  0  0
    9.4578   -5.0200   16.3036 N   0  0  0  0  0  0  0  0  0  0  0  0
    5.0287   -8.9365   16.8223 C   0  0  0  0  0  0  0  0  0  0  0  0
    8.7742   -6.1498   16.6764 C   0  0  0  0  0  0  0  0  0  0  0  0
   10.9418   -3.4032   21.2053 O   0  0  0  0  0  0  0  0  0  0  0  0
    1.4797   -8.6258   16.2950 C   0  0  0  0  0  0  0  0  0  0  0  0
    9.2861   -1.2743   25.3585 C   0  0  0  0  0  0  0  0  0  0  0  0
    1.8892  -10.3985   17.7511 N   0  0  0  0  0  0  0  0  0  0  0  0
    9.6210   -0.6952   24.0976 C   0  0  0  0  0  0  0  0  0  0  0  0
    7.0792   -9.0217   17.1429 C   0  0  0  0  0  0  0  0  0  0  0  0
    3.1713  -10.1816   17.6634 C   0  0  0  0  0  0  0  0  0  0  0  0
    2.7878   -8.3822   16.2137 C   0  0  0  0  0  0  0  0  0  0  0  0
    9.4601   -2.6590   25.6528 C   0  0  0  0  0  0  0  0  0  0  0  0
   10.1182   -1.5672   23.1165 C   0  0  0  0  0  0  0  0  0  0  0  0
    1.0552   -9.6360   17.0650 C   0  0  0  0  0  0  0  0  0  0  0  0
    3.6519   -9.1783   16.9039 C   0  0  0  0  0  0  0  0  0  0  0  0
    7.8675   -7.0096   15.9415 C   0  0  0  0  0  0  0  0  0  0  0  0
    5.9733   -9.6553   17.3832 N   0  0  0  0  0  0  0  0  0  0  0  0
   10.2411   -2.9363   23.4301 C   0  0  0  0  0  0  0  0  0  0  0  0
   10.7288   -3.8197   19.9525 C   0  0  0  0  0  0  0  0  0  0  0  0
   10.1189   -5.0054   19.6987 C   0  0  0  0  0  0  0  0  0  0  0  0
  1  3  4  0
  1  7  4  0
  2 21  4  0
  2 27  4  0
  3  9  4  0
  3 10  4  0
  4  8  4  0
  4 18  4  0
  4 25  1  0
  5  9  4  0
  5 12  4  0
  6 13  1  0
  6 27  1  0
  7 28  4  0
  8 11  4  0
  9 29  4  0
 10 12  4  0
 11 24  1  0
 11 26  4  0
 12 25  1  0
 13 28  1  0
 14 20  4  0
 14 23  4  0
 15 17  4  0
 15 21  4  0
 16 19  4  0
 16 23  4  0
 17 22  4  0
 18 26  4  0
 19 24  4  0
 20 24  4  0
 22 27  4  0
 28 29  4  0
M  END
$$$$

 Created by Python create_sdf_string function

 29 33  0  0  0  0  0  0  0  0999 V2000
   10.7215   -3.3326   17.6437 C   0  0  0  0  0  0  0  0  0  0  0  0
    9.9489   -3.4675   24.6487 N   0  0  0  0  0  0  0  0  0  0  0  0
   10.0172   -4.4740   17.4101 C   0  0  0  0  0  0  0  0  0  0  0  0
    6.9051   -7.9575   16.4222 C   0  0  0  0  0  0  0  0  0  0  0  0
    8.9969   -6.3552   17.9668 N   0  0  0  0  0  0  0  0  0  0  0  0
   10.6702   -3.9051   22.4070 C   0  0  0  0  0  0  0  0  0  0  0  0
   11.0625   -3.0028   18.8894 C   0  0  0  0  0  0  0  0  0  0  0  0
    5.6180   -7.9194   16.1754 O   0  0  0  0  0  0  0  0  0  0  0  0
    9.7259   -5.3080   18.4485 C   0  0  0  0  0  0  0  0  0  0  0  0
    9.4578   -5.0200   16.3036 N   0  0  0  0  0  0  0  0  0  0  0  0
    5.0287   -8.9365   16.8223 C   0  0  0  0  0  0  0  0  0  0  0  0
    8.7742   -6.1498   16.6764 C   0  0  0  0  0  0  0  0  0  0  0  0
   10.9418   -3.4032   21.2053 O   0  0  0  0  0  0  0  0  0  0  0  0
    1.4797   -8.6258   16.2950 C   0  0  0  0  0  0  0  0  0  0  0  0
    9.2861   -1.2743   25.3585 C   0  0  0  0  0  0  0  0  0  0  0  0
    1.8892  -10.3985   17.7511 N   0  0  0  0  0  0  0  0  0  0  0  0
    9.6210   -0.6952   24.0976 C   0  0  0  0  0  0  0  0  0  0  0  0
    7.0792   -9.0217   17.1429 C   0  0  0  0  0  0  0  0  0  0  0  0
    3.1713  -10.1816   17.6634 C   0  0  0  0  0  0  0  0  0  0  0  0
    2.7878   -8.3822   16.2137 C   0  0  0  0  0  0  0  0  0  0  0  0
    9.4601   -2.6590   25.6528 C   0  0  0  0  0  0  0  0  0  0  0  0
   10.1182   -1.5672   23.1165 C   0  0  0  0  0  0  0  0  0  0  0  0
    1.0552   -9.6360   17.0650 C   0  0  0  0  0  0  0  0  0  0  0  0
    3.6519   -9.1783   16.9039 C   0  0  0  0  0  0  0  0  0  0  0  0
    7.8675   -7.0096   15.9415 C   0  0  0  0  0  0  0  0  0  0  0  0
    5.9733   -9.6553   17.3832 N   0  0  0  0  0  0  0  0  0  0  0  0
   10.2411   -2.9363   23.4301 C   0  0  0  0  0  0  0  0  0  0  0  0
   10.7288   -3.8197   19.9525 C   0  0  0  0  0  0  0  0  0  0  0  0
   10.1189   -5.0054   19.6987 C   0  0  0  0  0  0  0  0  0  0  0  0
  1  3  4  0
  1  7  4  0
  2 21  4  0
  2 27  4  0
  3  9  4  0
  3 10  4  0
  4  8  4  0
  4 18  4  0
  4 25  1  0
  5  9  4  0
  5 12  4  0
  6 13  1  0
  6 27  1  0
  7 28  4  0
  8 11  4  0
  9 29  4  0
 10 12  4  0
 11 24  1  0
 11 26  4  0
 12 25  1  0
 13 28  1  0
 14 20  4  0
 14 23  4  0
 15 17  4  0
 15 21  4  0
 16 19  4  0
 16 23  4  0
 17 22  4  0
 18 26  4  0
 19 24  4  0
 20 24  4  0
 22 27  4  0
 28 29  4  0
M  END
$$$$

 Created by Python create_sdf_string function

 29 33  0  0  0  0  0  0  0  0999 V2000
   10.7215   -3.3326   17.6437 C   0  0  0  0  0  0  0  0  0  0  0  0
    9.9489   -3.4675   24.6487 N   0  0  0  0  0  0  0  0  0  0  0  0
   10.0172   -4.4740   17.4101 C   0  0  0  0  0  0  0  0  0  0  0  0
    6.9051   -7.9575   16.4222 C   0  0  0  0  0  0  0  0  0  0  0  0
    8.9969   -6.3552   17.9668 N   0  0  0  0  0  0  0  0  0  0  0  0
   10.6702   -3.9051   22.4070 C   0  0  0  0  0  0  0  0  0  0  0  0
   11.0625   -3.0028   18.8894 C   0  0  0  0  0  0  0  0  0  0  0  0
    5.6180   -7.9194   16.1754 O   0  0  0  0  0  0  0  0  0  0  0  0
    9.7259   -5.3080   18.4485 C   0  0  0  0  0  0  0  0  0  0  0  0
    9.4578   -5.0200   16.3036 N   0  0  0  0  0  0  0  0  0  0  0  0
    5.0287   -8.9365   16.8223 C   0  0  0  0  0  0  0  0  0  0  0  0
    8.7742   -6.1498   16.6764 C   0  0  0  0  0  0  0  0  0  0  0  0
   10.9418   -3.4032   21.2053 O   0  0  0  0  0  0  0  0  0  0  0  0
    1.4797   -8.6258   16.2950 C   0  0  0  0  0  0  0  0  0  0  0  0
    9.2861   -1.2743   25.3585 C   0  0  0  0  0  0  0  0  0  0  0  0
    1.8892  -10.3985   17.7511 N   0  0  0  0  0  0  0  0  0  0  0  0
    9.6210   -0.6952   24.0976 C   0  0  0  0  0  0  0  0  0  0  0  0
    7.0792   -9.0217   17.1429 C   0  0  0  0  0  0  0  0  0  0  0  0
    3.1713  -10.1816   17.6634 C   0  0  0  0  0  0  0  0  0  0  0  0
    2.7878   -8.3822   16.2137 C   0  0  0  0  0  0  0  0  0  0  0  0
    9.4601   -2.6590   25.6528 C   0  0  0  0  0  0  0  0  0  0  0  0
   10.1182   -1.5672   23.1165 C   0  0  0  0  0  0  0  0  0  0  0  0
    1.0552   -9.6360   17.0650 C   0  0  0  0  0  0  0  0  0  0  0  0
    3.6519   -9.1783   16.9039 C   0  0  0  0  0  0  0  0  0  0  0  0
    7.8675   -7.0096   15.9415 C   0  0  0  0  0  0  0  0  0  0  0  0
    5.9733   -9.6553   17.3832 N   0  0  0  0  0  0  0  0  0  0  0  0
   10.2411   -2.9363   23.4301 C   0  0  0  0  0  0  0  0  0  0  0  0
   10.7288   -3.8197   19.9525 C   0  0  0  0  0  0  0  0  0  0  0  0
   10.1189   -5.0054   19.6987 C   0  0  0  0  0  0  0  0  0  0  0  0
  1  3  4  0
  1  7  4  0
  2 21  4  0
  2 27  4  0
  3  9  4  0
  3 10  4  0
  4  8  4  0
  4 18  4  0
  4 25  1  0
  5  9  4  0
  5 12  4  0
  6 13  1  0
  6 27  1  0
  7 28  4  0
  8 11  4  0
  9 29  4  0
 10 12  4  0
 11 24  1  0
 11 26  4  0
 12 25  1  0
 13 28  1  0
 14 20  4  0
 14 23  4  0
 15 17  4  0
 15 21  4  0
 16 19  4  0
 16 23  4  0
 17 22  4  0
 18 26  4  0
 19 24  4  0
 20 24  4  0
 22 27  4  0
 28 29  4  0
M  END
$$$$

 Created by Python create_sdf_string function

 29 33  0  0  0  0  0  0  0  0999 V2000
   10.7215   -3.3326   17.6437 C   0  0  0  0  0  0  0  0  0  0  0  0
    9.9489   -3.4675   24.6487 N   0  0  0  0  0  0  0  0  0  0  0  0
   10.0172   -4.4740   17.4101 C   0  0  0  0  0  0  0  0  0  0  0  0
    6.9051   -7.9575   16.4222 C   0  0  0  0  0  0  0  0  0  0  0  0
    8.9969   -6.3552   17.9668 N   0  0  0  0  0  0  0  0  0  0  0  0
   10.6702   -3.9051   22.4070 C   0  0  0  0  0  0  0  0  0  0  0  0
   11.0625   -3.0028   18.8894 C   0  0  0  0  0  0  0  0  0  0  0  0
    5.6180   -7.9194   16.1754 O   0  0  0  0  0  0  0  0  0  0  0  0
    9.7259   -5.3080   18.4485 C   0  0  0  0  0  0  0  0  0  0  0  0
    9.4578   -5.0200   16.3036 N   0  0  0  0  0  0  0  0  0  0  0  0
    5.0287   -8.9365   16.8223 C   0  0  0  0  0  0  0  0  0  0  0  0
    8.7742   -6.1498   16.6764 C   0  0  0  0  0  0  0  0  0  0  0  0
   10.9418   -3.4032   21.2053 O   0  0  0  0  0  0  0  0  0  0  0  0
    1.4797   -8.6258   16.2950 C   0  0  0  0  0  0  0  0  0  0  0  0
    9.2861   -1.2743   25.3585 C   0  0  0  0  0  0  0  0  0  0  0  0
    1.8892  -10.3985   17.7511 N   0  0  0  0  0  0  0  0  0  0  0  0
    9.6210   -0.6952   24.0976 C   0  0  0  0  0  0  0  0  0  0  0  0
    7.0792   -9.0217   17.1429 C   0  0  0  0  0  0  0  0  0  0  0  0
    3.1713  -10.1816   17.6634 C   0  0  0  0  0  0  0  0  0  0  0  0
    2.7878   -8.3822   16.2137 C   0  0  0  0  0  0  0  0  0  0  0  0
    9.4601   -2.6590   25.6528 C   0  0  0  0  0  0  0  0  0  0  0  0
   10.1182   -1.5672   23.1165 C   0  0  0  0  0  0  0  0  0  0  0  0
    1.0552   -9.6360   17.0650 C   0  0  0  0  0  0  0  0  0  0  0  0
    3.6519   -9.1783   16.9039 C   0  0  0  0  0  0  0  0  0  0  0  0
    7.8675   -7.0096   15.9415 C   0  0  0  0  0  0  0  0  0  0  0  0
    5.9733   -9.6553   17.3832 N   0  0  0  0  0  0  0  0  0  0  0  0
   10.2411   -2.9363   23.4301 C   0  0  0  0  0  0  0  0  0  0  0  0
   10.7288   -3.8197   19.9525 C   0  0  0  0  0  0  0  0  0  0  0  0
   10.1189   -5.0054   19.6987 C   0  0  0  0  0  0  0  0  0  0  0  0
  1  3  4  0
  1  7  4  0
  2 21  4  0
  2 27  4  0
  3  9  4  0
  3 10  4  0
  4  8  4  0
  4 18  4  0
  4 25  1  0
  5  9  4  0
  5 12  4  0
  6 13  1  0
  6 27  1  0
  7 28  4  0
  8 11  4  0
  9 29  4  0
 10 12  4  0
 11 24  1  0
 11 26  4  0
 12 25  1  0
 13 28  1  0
 14 20  4  0
 14 23  4  0
 15 17  4  0
 15 21  4  0
 16 19  4  0
 16 23  4  0
 17 22  4  0
 18 26  4  0
 19 24  4  0
 20 24  4  0
 22 27  4  0
 28 29  4  0
M  END
$$$$

 Created by Python create_sdf_string function

 29 33  0  0  0  0  0  0  0  0999 V2000
   10.7215   -3.3326   17.6437 C   0  0  0  0  0  0  0  0  0  0  0  0
    9.9489   -3.4675   24.6487 N   0  0  0  0  0  0  0  0  0  0  0  0
   10.0172   -4.4740   17.4101 C   0  0  0  0  0  0  0  0  0  0  0  0
    6.9051   -7.9575   16.4222 C   0  0  0  0  0  0  0  0  0  0  0  0
    8.9969   -6.3552   17.9668 N   0  0  0  0  0  0  0  0  0  0  0  0
   10.6702   -3.9051   22.4070 C   0  0  0  0  0  0  0  0  0  0  0  0
   11.0625   -3.0028   18.8894 C   0  0  0  0  0  0  0  0  0  0  0  0
    5.6180   -7.9194   16.1754 O   0  0  0  0  0  0  0  0  0  0  0  0
    9.7259   -5.3080   18.4485 C   0  0  0  0  0  0  0  0  0  0  0  0
    9.4578   -5.0200   16.3036 N   0  0  0  0  0  0  0  0  0  0  0  0
    5.0287   -8.9365   16.8223 C   0  0  0  0  0  0  0  0  0  0  0  0
    8.7742   -6.1498   16.6764 C   0  0  0  0  0  0  0  0  0  0  0  0
   10.9418   -3.4032   21.2053 O   0  0  0  0  0  0  0  0  0  0  0  0
    1.4797   -8.6258   16.2950 C   0  0  0  0  0  0  0  0  0  0  0  0
    9.2861   -1.2743   25.3585 C   0  0  0  0  0  0  0  0  0  0  0  0
    1.8892  -10.3985   17.7511 N   0  0  0  0  0  0  0  0  0  0  0  0
    9.6210   -0.6952   24.0976 C   0  0  0  0  0  0  0  0  0  0  0  0
    7.0792   -9.0217   17.1429 C   0  0  0  0  0  0  0  0  0  0  0  0
    3.1713  -10.1816   17.6634 C   0  0  0  0  0  0  0  0  0  0  0  0
    2.7878   -8.3822   16.2137 C   0  0  0  0  0  0  0  0  0  0  0  0
    9.4601   -2.6590   25.6528 C   0  0  0  0  0  0  0  0  0  0  0  0
   10.1182   -1.5672   23.1165 C   0  0  0  0  0  0  0  0  0  0  0  0
    1.0552   -9.6360   17.0650 C   0  0  0  0  0  0  0  0  0  0  0  0
    3.6519   -9.1783   16.9039 C   0  0  0  0  0  0  0  0  0  0  0  0
    7.8675   -7.0096   15.9415 C   0  0  0  0  0  0  0  0  0  0  0  0
    5.9733   -9.6553   17.3832 N   0  0  0  0  0  0  0  0  0  0  0  0
   10.2411   -2.9363   23.4301 C   0  0  0  0  0  0  0  0  0  0  0  0
   10.7288   -3.8197   19.9525 C   0  0  0  0  0  0  0  0  0  0  0  0
   10.1189   -5.0054   19.6987 C   0  0  0  0  0  0  0  0  0  0  0  0
  1  3  4  0
  1  7  4  0
  2 21  4  0
  2 27  4  0
  3  9  4  0
  3 10  4  0
  4  8  4  0
  4 18  4  0
  4 25  1  0
  5  9  4  0
  5 12  4  0
  6 13  1  0
  6 27  1  0
  7 28  4  0
  8 11  4  0
  9 29  4  0
 10 12  4  0
 11 24  1  0
 11 26  4  0
 12 25  1  0
 13 28  1  0
 14 20  4  0
 14 23  4  0
 15 17  4  0
 15 21  4  0
 16 19  4  0
 16 23  4  0
 17 22  4  0
 18 26  4  0
 19 24  4  0
 20 24  4  0
 22 27  4  0
 28 29  4  0
M  END
$$$$

 Created by Python create_sdf_string function

 29 33  0  0  0  0  0  0  0  0999 V2000
   10.7215   -3.3326   17.6437 C   0  0  0  0  0  0  0  0  0  0  0  0
    9.9489   -3.4675   24.6487 N   0  0  0  0  0  0  0  0  0  0  0  0
   10.0172   -4.4740   17.4101 C   0  0  0  0  0  0  0  0  0  0  0  0
    6.9051   -7.9575   16.4222 C   0  0  0  0  0  0  0  0  0  0  0  0
    8.9969   -6.3552   17.9668 N   0  0  0  0  0  0  0  0  0  0  0  0
   10.6702   -3.9051   22.4070 C   0  0  0  0  0  0  0  0  0  0  0  0
   11.0625   -3.0028   18.8894 C   0  0  0  0  0  0  0  0  0  0  0  0
    5.6180   -7.9194   16.1754 O   0  0  0  0  0  0  0  0  0  0  0  0
    9.7259   -5.3080   18.4485 C   0  0  0  0  0  0  0  0  0  0  0  0
    9.4578   -5.0200   16.3036 N   0  0  0  0  0  0  0  0  0  0  0  0
    5.0287   -8.9365   16.8223 C   0  0  0  0  0  0  0  0  0  0  0  0
    8.7742   -6.1498   16.6764 C   0  0  0  0  0  0  0  0  0  0  0  0
   10.9418   -3.4032   21.2053 O   0  0  0  0  0  0  0  0  0  0  0  0
    1.4797   -8.6258   16.2950 C   0  0  0  0  0  0  0  0  0  0  0  0
    9.2861   -1.2743   25.3585 C   0  0  0  0  0  0  0  0  0  0  0  0
    1.8892  -10.3985   17.7511 N   0  0  0  0  0  0  0  0  0  0  0  0
    9.6210   -0.6952   24.0976 C   0  0  0  0  0  0  0  0  0  0  0  0
    7.0792   -9.0217   17.1429 C   0  0  0  0  0  0  0  0  0  0  0  0
    3.1713  -10.1816   17.6634 C   0  0  0  0  0  0  0  0  0  0  0  0
    2.7878   -8.3822   16.2137 C   0  0  0  0  0  0  0  0  0  0  0  0
    9.4601   -2.6590   25.6528 C   0  0  0  0  0  0  0  0  0  0  0  0
   10.1182   -1.5672   23.1165 C   0  0  0  0  0  0  0  0  0  0  0  0
    1.0552   -9.6360   17.0650 C   0  0  0  0  0  0  0  0  0  0  0  0
    3.6519   -9.1783   16.9039 C   0  0  0  0  0  0  0  0  0  0  0  0
    7.8675   -7.0096   15.9415 C   0  0  0  0  0  0  0  0  0  0  0  0
    5.9733   -9.6553   17.3832 N   0  0  0  0  0  0  0  0  0  0  0  0
   10.2411   -2.9363   23.4301 C   0  0  0  0  0  0  0  0  0  0  0  0
   10.7288   -3.8197   19.9525 C   0  0  0  0  0  0  0  0  0  0  0  0
   10.1189   -5.0054   19.6987 C   0  0  0  0  0  0  0  0  0  0  0  0
  1  3  4  0
  1  7  4  0
  2 21  4  0
  2 27  4  0
  3  9  4  0
  3 10  4  0
  4  8  4  0
  4 18  4  0
  4 25  1  0
  5  9  4  0
  5 12  4  0
  6 13  1  0
  6 27  1  0
  7 28  4  0
  8 11  4  0
  9 29  4  0
 10 12  4  0
 11 24  1  0
 11 26  4  0
 12 25  1  0
 13 28  1  0
 14 20  4  0
 14 23  4  0
 15 17  4  0
 15 21  4  0
 16 19  4  0
 16 23  4  0
 17 22  4  0
 18 26  4  0
 19 24  4  0
 20 24  4  0
 22 27  4  0
 28 29  4  0
M  END
$$$$

 Created by Python create_sdf_string function

 29 33  0  0  0  0  0  0  0  0999 V2000
   10.7215   -3.3326   17.6437 C   0  0  0  0  0  0  0  0  0  0  0  0
    9.9489   -3.4675   24.6487 N   0  0  0  0  0  0  0  0  0  0  0  0
   10.0172   -4.4740   17.4101 C   0  0  0  0  0  0  0  0  0  0  0  0
    6.9051   -7.9575   16.4222 C   0  0  0  0  0  0  0  0  0  0  0  0
    8.9969   -6.3552   17.9668 N   0  0  0  0  0  0  0  0  0  0  0  0
   10.6702   -3.9051   22.4070 C   0  0  0  0  0  0  0  0  0  0  0  0
   11.0625   -3.0028   18.8894 C   0  0  0  0  0  0  0  0  0  0  0  0
    5.6180   -7.9194   16.1754 O   0  0  0  0  0  0  0  0  0  0  0  0
    9.7259   -5.3080   18.4485 C   0  0  0  0  0  0  0  0  0  0  0  0
    9.4578   -5.0200   16.3036 N   0  0  0  0  0  0  0  0  0  0  0  0
    5.0287   -8.9365   16.8223 C   0  0  0  0  0  0  0  0  0  0  0  0
    8.7742   -6.1498   16.6764 C   0  0  0  0  0  0  0  0  0  0  0  0
   10.9418   -3.4032   21.2053 O   0  0  0  0  0  0  0  0  0  0  0  0
    1.4797   -8.6258   16.2950 C   0  0  0  0  0  0  0  0  0  0  0  0
    9.2861   -1.2743   25.3585 C   0  0  0  0  0  0  0  0  0  0  0  0
    1.8892  -10.3985   17.7511 N   0  0  0  0  0  0  0  0  0  0  0  0
    9.6210   -0.6952   24.0976 C   0  0  0  0  0  0  0  0  0  0  0  0
    7.0792   -9.0217   17.1429 C   0  0  0  0  0  0  0  0  0  0  0  0
    3.1713  -10.1816   17.6634 C   0  0  0  0  0  0  0  0  0  0  0  0
    2.7878   -8.3822   16.2137 C   0  0  0  0  0  0  0  0  0  0  0  0
    9.4601   -2.6590   25.6528 C   0  0  0  0  0  0  0  0  0  0  0  0
   10.1182   -1.5672   23.1165 C   0  0  0  0  0  0  0  0  0  0  0  0
    1.0552   -9.6360   17.0650 C   0  0  0  0  0  0  0  0  0  0  0  0
    3.6519   -9.1783   16.9039 C   0  0  0  0  0  0  0  0  0  0  0  0
    7.8675   -7.0096   15.9415 C   0  0  0  0  0  0  0  0  0  0  0  0
    5.9733   -9.6553   17.3832 N   0  0  0  0  0  0  0  0  0  0  0  0
   10.2411   -2.9363   23.4301 C   0  0  0  0  0  0  0  0  0  0  0  0
   10.7288   -3.8197   19.9525 C   0  0  0  0  0  0  0  0  0  0  0  0
   10.1189   -5.0054   19.6987 C   0  0  0  0  0  0  0  0  0  0  0  0
  1  3  4  0
  1  7  4  0
  2 21  4  0
  2 27  4  0
  3  9  4  0
  3 10  4  0
  4  8  4  0
  4 18  4  0
  4 25  1  0
  5  9  4  0
  5 12  4  0
  6 13  1  0
  6 27  1  0
  7 28  4  0
  8 11  4  0
  9 29  4  0
 10 12  4  0
 11 24  1  0
 11 26  4  0
 12 25  1  0
 13 28  1  0
 14 20  4  0
 14 23  4  0
 15 17  4  0
 15 21  4  0
 16 19  4  0
 16 23  4  0
 17 22  4  0
 18 26  4  0
 19 24  4  0
 20 24  4  0
 22 27  4  0
 28 29  4  0
M  END
$$$$

 Created by Python create_sdf_string function

 29 33  0  0  0  0  0  0  0  0999 V2000
   10.7215   -3.3326   17.6437 C   0  0  0  0  0  0  0  0  0  0  0  0
    9.9489   -3.4675   24.6487 N   0  0  0  0  0  0  0  0  0  0  0  0
   10.0172   -4.4740   17.4101 C   0  0  0  0  0  0  0  0  0  0  0  0
    6.9051   -7.9575   16.4222 C   0  0  0  0  0  0  0  0  0  0  0  0
    8.9969   -6.3552   17.9668 N   0  0  0  0  0  0  0  0  0  0  0  0
   10.6702   -3.9051   22.4070 C   0  0  0  0  0  0  0  0  0  0  0  0
   11.0625   -3.0028   18.8894 C   0  0  0  0  0  0  0  0  0  0  0  0
    5.6180   -7.9194   16.1754 O   0  0  0  0  0  0  0  0  0  0  0  0
    9.7259   -5.3080   18.4485 C   0  0  0  0  0  0  0  0  0  0  0  0
    9.4578   -5.0200   16.3036 N   0  0  0  0  0  0  0  0  0  0  0  0
    5.0287   -8.9365   16.8223 C   0  0  0  0  0  0  0  0  0  0  0  0
    8.7742   -6.1498   16.6764 C   0  0  0  0  0  0  0  0  0  0  0  0
   10.9418   -3.4032   21.2053 O   0  0  0  0  0  0  0  0  0  0  0  0
    1.4797   -8.6258   16.2950 C   0  0  0  0  0  0  0  0  0  0  0  0
    9.2861   -1.2743   25.3585 C   0  0  0  0  0  0  0  0  0  0  0  0
    1.8892  -10.3985   17.7511 N   0  0  0  0  0  0  0  0  0  0  0  0
    9.6210   -0.6952   24.0976 C   0  0  0  0  0  0  0  0  0  0  0  0
    7.0792   -9.0217   17.1429 C   0  0  0  0  0  0  0  0  0  0  0  0
    3.1713  -10.1816   17.6634 C   0  0  0  0  0  0  0  0  0  0  0  0
    2.7878   -8.3822   16.2137 C   0  0  0  0  0  0  0  0  0  0  0  0
    9.4601   -2.6590   25.6528 C   0  0  0  0  0  0  0  0  0  0  0  0
   10.1182   -1.5672   23.1165 C   0  0  0  0  0  0  0  0  0  0  0  0
    1.0552   -9.6360   17.0650 C   0  0  0  0  0  0  0  0  0  0  0  0
    3.6519   -9.1783   16.9039 C   0  0  0  0  0  0  0  0  0  0  0  0
    7.8675   -7.0096   15.9415 C   0  0  0  0  0  0  0  0  0  0  0  0
    5.9733   -9.6553   17.3832 N   0  0  0  0  0  0  0  0  0  0  0  0
   10.2411   -2.9363   23.4301 C   0  0  0  0  0  0  0  0  0  0  0  0
   10.7288   -3.8197   19.9525 C   0  0  0  0  0  0  0  0  0  0  0  0
   10.1189   -5.0054   19.6987 C   0  0  0  0  0  0  0  0  0  0  0  0
  1  3  4  0
  1  7  4  0
  2 21  4  0
  2 27  4  0
  3  9  4  0
  3 10  4  0
  4  8  4  0
  4 18  4  0
  4 25  1  0
  5  9  4  0
  5 12  4  0
  6 13  1  0
  6 27  1  0
  7 28  4  0
  8 11  4  0
  9 29  4  0
 10 12  4  0
 11 24  1  0
 11 26  4  0
 12 25  1  0
 13 28  1  0
 14 20  4  0
 14 23  4  0
 15 17  4  0
 15 21  4  0
 16 19  4  0
 16 23  4  0
 17 22  4  0
 18 26  4  0
 19 24  4  0
 20 24  4  0
 22 27  4  0
 28 29  4  0
M  END
$$$$

 Created by Python create_sdf_string function

 29 33  0  0  0  0  0  0  0  0999 V2000
   10.7215   -3.3326   17.6437 C   0  0  0  0  0  0  0  0  0  0  0  0
    9.9489   -3.4675   24.6487 N   0  0  0  0  0  0  0  0  0  0  0  0
   10.0172   -4.4740   17.4101 C   0  0  0  0  0  0  0  0  0  0  0  0
    6.9051   -7.9575   16.4222 C   0  0  0  0  0  0  0  0  0  0  0  0
    8.9969   -6.3552   17.9668 N   0  0  0  0  0  0  0  0  0  0  0  0
   10.6702   -3.9051   22.4070 C   0  0  0  0  0  0  0  0  0  0  0  0
   11.0625   -3.0028   18.8894 C   0  0  0  0  0  0  0  0  0  0  0  0
    5.6180   -7.9194   16.1754 O   0  0  0  0  0  0  0  0  0  0  0  0
    9.7259   -5.3080   18.4485 C   0  0  0  0  0  0  0  0  0  0  0  0
    9.4578   -5.0200   16.3036 N   0  0  0  0  0  0  0  0  0  0  0  0
    5.0287   -8.9365   16.8223 C   0  0  0  0  0  0  0  0  0  0  0  0
    8.7742   -6.1498   16.6764 C   0  0  0  0  0  0  0  0  0  0  0  0
   10.9418   -3.4032   21.2053 O   0  0  0  0  0  0  0  0  0  0  0  0
    1.4797   -8.6258   16.2950 C   0  0  0  0  0  0  0  0  0  0  0  0
    9.2861   -1.2743   25.3585 C   0  0  0  0  0  0  0  0  0  0  0  0
    1.8892  -10.3985   17.7511 N   0  0  0  0  0  0  0  0  0  0  0  0
    9.6210   -0.6952   24.0976 C   0  0  0  0  0  0  0  0  0  0  0  0
    7.0792   -9.0217   17.1429 C   0  0  0  0  0  0  0  0  0  0  0  0
    3.1713  -10.1816   17.6634 C   0  0  0  0  0  0  0  0  0  0  0  0
    2.7878   -8.3822   16.2137 C   0  0  0  0  0  0  0  0  0  0  0  0
    9.4601   -2.6590   25.6528 C   0  0  0  0  0  0  0  0  0  0  0  0
   10.1182   -1.5672   23.1165 C   0  0  0  0  0  0  0  0  0  0  0  0
    1.0552   -9.6360   17.0650 C   0  0  0  0  0  0  0  0  0  0  0  0
    3.6519   -9.1783   16.9039 C   0  0  0  0  0  0  0  0  0  0  0  0
    7.8675   -7.0096   15.9415 C   0  0  0  0  0  0  0  0  0  0  0  0
    5.9733   -9.6553   17.3832 N   0  0  0  0  0  0  0  0  0  0  0  0
   10.2411   -2.9363   23.4301 C   0  0  0  0  0  0  0  0  0  0  0  0
   10.7288   -3.8197   19.9525 C   0  0  0  0  0  0  0  0  0  0  0  0
   10.1189   -5.0054   19.6987 C   0  0  0  0  0  0  0  0  0  0  0  0
  1  3  4  0
  1  7  4  0
  2 21  4  0
  2 27  4  0
  3  9  4  0
  3 10  4  0
  4  8  4  0
  4 18  4  0
  4 25  1  0
  5  9  4  0
  5 12  4  0
  6 13  1  0
  6 27  1  0
  7 28  4  0
  8 11  4  0
  9 29  4  0
 10 12  4  0
 11 24  1  0
 11 26  4  0
 12 25  1  0
 13 28  1  0
 14 20  4  0
 14 23  4  0
 15 17  4  0
 15 21  4  0
 16 19  4  0
 16 23  4  0
 17 22  4  0
 18 26  4  0
 19 24  4  0
 20 24  4  0
 22 27  4  0
 28 29  4  0
M  END
$$$$

 Created by Python create_sdf_string function

 29 33  0  0  0  0  0  0  0  0999 V2000
   10.7215   -3.3326   17.6437 C   0  0  0  0  0  0  0  0  0  0  0  0
    9.9489   -3.4675   24.6487 N   0  0  0  0  0  0  0  0  0  0  0  0
   10.0172   -4.4740   17.4101 C   0  0  0  0  0  0  0  0  0  0  0  0
    6.9051   -7.9575   16.4222 C   0  0  0  0  0  0  0  0  0  0  0  0
    8.9969   -6.3552   17.9668 N   0  0  0  0  0  0  0  0  0  0  0  0
   10.6702   -3.9051   22.4070 C   0  0  0  0  0  0  0  0  0  0  0  0
   11.0625   -3.0028   18.8894 C   0  0  0  0  0  0  0  0  0  0  0  0
    5.6180   -7.9194   16.1754 O   0  0  0  0  0  0  0  0  0  0  0  0
    9.7259   -5.3080   18.4485 C   0  0  0  0  0  0  0  0  0  0  0  0
    9.4578   -5.0200   16.3036 N   0  0  0  0  0  0  0  0  0  0  0  0
    5.0287   -8.9365   16.8223 C   0  0  0  0  0  0  0  0  0  0  0  0
    8.7742   -6.1498   16.6764 C   0  0  0  0  0  0  0  0  0  0  0  0
   10.9418   -3.4032   21.2053 O   0  0  0  0  0  0  0  0  0  0  0  0
    1.4797   -8.6258   16.2950 C   0  0  0  0  0  0  0  0  0  0  0  0
    9.2861   -1.2743   25.3585 C   0  0  0  0  0  0  0  0  0  0  0  0
    1.8892  -10.3985   17.7511 N   0  0  0  0  0  0  0  0  0  0  0  0
    9.6210   -0.6952   24.0976 C   0  0  0  0  0  0  0  0  0  0  0  0
    7.0792   -9.0217   17.1429 C   0  0  0  0  0  0  0  0  0  0  0  0
    3.1713  -10.1816   17.6634 C   0  0  0  0  0  0  0  0  0  0  0  0
    2.7878   -8.3822   16.2137 C   0  0  0  0  0  0  0  0  0  0  0  0
    9.4601   -2.6590   25.6528 C   0  0  0  0  0  0  0  0  0  0  0  0
   10.1182   -1.5672   23.1165 C   0  0  0  0  0  0  0  0  0  0  0  0
    1.0552   -9.6360   17.0650 C   0  0  0  0  0  0  0  0  0  0  0  0
    3.6519   -9.1783   16.9039 C   0  0  0  0  0  0  0  0  0  0  0  0
    7.8675   -7.0096   15.9415 C   0  0  0  0  0  0  0  0  0  0  0  0
    5.9733   -9.6553   17.3832 N   0  0  0  0  0  0  0  0  0  0  0  0
   10.2411   -2.9363   23.4301 C   0  0  0  0  0  0  0  0  0  0  0  0
   10.7288   -3.8197   19.9525 C   0  0  0  0  0  0  0  0  0  0  0  0
   10.1189   -5.0054   19.6987 C   0  0  0  0  0  0  0  0  0  0  0  0
  1  3  4  0
  1  7  4  0
  2 21  4  0
  2 27  4  0
  3  9  4  0
  3 10  4  0
  4  8  4  0
  4 18  4  0
  4 25  1  0
  5  9  4  0
  5 12  4  0
  6 13  1  0
  6 27  1  0
  7 28  4  0
  8 11  4  0
  9 29  4  0
 10 12  4  0
 11 24  1  0
 11 26  4  0
 12 25  1  0
 13 28  1  0
 14 20  4  0
 14 23  4  0
 15 17  4  0
 15 21  4  0
 16 19  4  0
 16 23  4  0
 17 22  4  0
 18 26  4  0
 19 24  4  0
 20 24  4  0
 22 27  4  0
 28 29  4  0
M  END
$$$$

 Created by Python create_sdf_string function

 29 33  0  0  0  0  0  0  0  0999 V2000
   10.7215   -3.3326   17.6437 C   0  0  0  0  0  0  0  0  0  0  0  0
    9.9489   -3.4675   24.6487 N   0  0  0  0  0  0  0  0  0  0  0  0
   10.0172   -4.4740   17.4101 C   0  0  0  0  0  0  0  0  0  0  0  0
    6.9051   -7.9575   16.4222 C   0  0  0  0  0  0  0  0  0  0  0  0
    8.9969   -6.3552   17.9668 N   0  0  0  0  0  0  0  0  0  0  0  0
   10.6702   -3.9051   22.4070 C   0  0  0  0  0  0  0  0  0  0  0  0
   11.0625   -3.0028   18.8894 C   0  0  0  0  0  0  0  0  0  0  0  0
    5.6180   -7.9194   16.1754 O   0  0  0  0  0  0  0  0  0  0  0  0
    9.7259   -5.3080   18.4485 C   0  0  0  0  0  0  0  0  0  0  0  0
    9.4578   -5.0200   16.3036 N   0  0  0  0  0  0  0  0  0  0  0  0
    5.0287   -8.9365   16.8223 C   0  0  0  0  0  0  0  0  0  0  0  0
    8.7742   -6.1498   16.6764 C   0  0  0  0  0  0  0  0  0  0  0  0
   10.9418   -3.4032   21.2053 O   0  0  0  0  0  0  0  0  0  0  0  0
    1.4797   -8.6258   16.2950 C   0  0  0  0  0  0  0  0  0  0  0  0
    9.2861   -1.2743   25.3585 C   0  0  0  0  0  0  0  0  0  0  0  0
    1.8892  -10.3985   17.7511 N   0  0  0  0  0  0  0  0  0  0  0  0
    9.6210   -0.6952   24.0976 C   0  0  0  0  0  0  0  0  0  0  0  0
    7.0792   -9.0217   17.1429 C   0  0  0  0  0  0  0  0  0  0  0  0
    3.1713  -10.1816   17.6634 C   0  0  0  0  0  0  0  0  0  0  0  0
    2.7878   -8.3822   16.2137 C   0  0  0  0  0  0  0  0  0  0  0  0
    9.4601   -2.6590   25.6528 C   0  0  0  0  0  0  0  0  0  0  0  0
   10.1182   -1.5672   23.1165 C   0  0  0  0  0  0  0  0  0  0  0  0
    1.0552   -9.6360   17.0650 C   0  0  0  0  0  0  0  0  0  0  0  0
    3.6519   -9.1783   16.9039 C   0  0  0  0  0  0  0  0  0  0  0  0
    7.8675   -7.0096   15.9415 C   0  0  0  0  0  0  0  0  0  0  0  0
    5.9733   -9.6553   17.3832 N   0  0  0  0  0  0  0  0  0  0  0  0
   10.2411   -2.9363   23.4301 C   0  0  0  0  0  0  0  0  0  0  0  0
   10.7288   -3.8197   19.9525 C   0  0  0  0  0  0  0  0  0  0  0  0
   10.1189   -5.0054   19.6987 C   0  0  0  0  0  0  0  0  0  0  0  0
  1  3  4  0
  1  7  4  0
  2 21  4  0
  2 27  4  0
  3  9  4  0
  3 10  4  0
  4  8  4  0
  4 18  4  0
  4 25  1  0
  5  9  4  0
  5 12  4  0
  6 13  1  0
  6 27  1  0
  7 28  4  0
  8 11  4  0
  9 29  4  0
 10 12  4  0
 11 24  1  0
 11 26  4  0
 12 25  1  0
 13 28  1  0
 14 20  4  0
 14 23  4  0
 15 17  4  0
 15 21  4  0
 16 19  4  0
 16 23  4  0
 17 22  4  0
 18 26  4  0
 19 24  4  0
 20 24  4  0
 22 27  4  0
 28 29  4  0
M  END
$$$$

 Created by Python create_sdf_string function

 29 33  0  0  0  0  0  0  0  0999 V2000
   10.7215   -3.3326   17.6437 C   0  0  0  0  0  0  0  0  0  0  0  0
    9.9489   -3.4675   24.6487 N   0  0  0  0  0  0  0  0  0  0  0  0
   10.0172   -4.4740   17.4101 C   0  0  0  0  0  0  0  0  0  0  0  0
    6.9051   -7.9575   16.4222 C   0  0  0  0  0  0  0  0  0  0  0  0
    8.9969   -6.3552   17.9668 N   0  0  0  0  0  0  0  0  0  0  0  0
   10.6702   -3.9051   22.4070 C   0  0  0  0  0  0  0  0  0  0  0  0
   11.0625   -3.0028   18.8894 C   0  0  0  0  0  0  0  0  0  0  0  0
    5.6180   -7.9194   16.1754 O   0  0  0  0  0  0  0  0  0  0  0  0
    9.7259   -5.3080   18.4485 C   0  0  0  0  0  0  0  0  0  0  0  0
    9.4578   -5.0200   16.3036 N   0  0  0  0  0  0  0  0  0  0  0  0
    5.0287   -8.9365   16.8223 C   0  0  0  0  0  0  0  0  0  0  0  0
    8.7742   -6.1498   16.6764 C   0  0  0  0  0  0  0  0  0  0  0  0
   10.9418   -3.4032   21.2053 O   0  0  0  0  0  0  0  0  0  0  0  0
    1.4797   -8.6258   16.2950 C   0  0  0  0  0  0  0  0  0  0  0  0
    9.2861   -1.2743   25.3585 C   0  0  0  0  0  0  0  0  0  0  0  0
    1.8892  -10.3985   17.7511 N   0  0  0  0  0  0  0  0  0  0  0  0
    9.6210   -0.6952   24.0976 C   0  0  0  0  0  0  0  0  0  0  0  0
    7.0792   -9.0217   17.1429 C   0  0  0  0  0  0  0  0  0  0  0  0
    3.1713  -10.1816   17.6634 C   0  0  0  0  0  0  0  0  0  0  0  0
    2.7878   -8.3822   16.2137 C   0  0  0  0  0  0  0  0  0  0  0  0
    9.4601   -2.6590   25.6528 C   0  0  0  0  0  0  0  0  0  0  0  0
   10.1182   -1.5672   23.1165 C   0  0  0  0  0  0  0  0  0  0  0  0
    1.0552   -9.6360   17.0650 C   0  0  0  0  0  0  0  0  0  0  0  0
    3.6519   -9.1783   16.9039 C   0  0  0  0  0  0  0  0  0  0  0  0
    7.8675   -7.0096   15.9415 C   0  0  0  0  0  0  0  0  0  0  0  0
    5.9733   -9.6553   17.3832 N   0  0  0  0  0  0  0  0  0  0  0  0
   10.2411   -2.9363   23.4301 C   0  0  0  0  0  0  0  0  0  0  0  0
   10.7288   -3.8197   19.9525 C   0  0  0  0  0  0  0  0  0  0  0  0
   10.1189   -5.0054   19.6987 C   0  0  0  0  0  0  0  0  0  0  0  0
  1  3  4  0
  1  7  4  0
  2 21  4  0
  2 27  4  0
  3  9  4  0
  3 10  4  0
  4  8  4  0
  4 18  4  0
  4 25  1  0
  5  9  4  0
  5 12  4  0
  6 13  1  0
  6 27  1  0
  7 28  4  0
  8 11  4  0
  9 29  4  0
 10 12  4  0
 11 24  1  0
 11 26  4  0
 12 25  1  0
 13 28  1  0
 14 20  4  0
 14 23  4  0
 15 17  4  0
 15 21  4  0
 16 19  4  0
 16 23  4  0
 17 22  4  0
 18 26  4  0
 19 24  4  0
 20 24  4  0
 22 27  4  0
 28 29  4  0
M  END
$$$$

 Created by Python create_sdf_string function

 29 33  0  0  0  0  0  0  0  0999 V2000
   10.7215   -3.3326   17.6437 C   0  0  0  0  0  0  0  0  0  0  0  0
    9.9489   -3.4675   24.6487 N   0  0  0  0  0  0  0  0  0  0  0  0
   10.0172   -4.4740   17.4101 C   0  0  0  0  0  0  0  0  0  0  0  0
    6.9051   -7.9575   16.4222 C   0  0  0  0  0  0  0  0  0  0  0  0
    8.9969   -6.3552   17.9668 N   0  0  0  0  0  0  0  0  0  0  0  0
   10.6702   -3.9051   22.4070 C   0  0  0  0  0  0  0  0  0  0  0  0
   11.0625   -3.0028   18.8894 C   0  0  0  0  0  0  0  0  0  0  0  0
    5.6180   -7.9194   16.1754 O   0  0  0  0  0  0  0  0  0  0  0  0
    9.7259   -5.3080   18.4485 C   0  0  0  0  0  0  0  0  0  0  0  0
    9.4578   -5.0200   16.3036 N   0  0  0  0  0  0  0  0  0  0  0  0
    5.0287   -8.9365   16.8223 C   0  0  0  0  0  0  0  0  0  0  0  0
    8.7742   -6.1498   16.6764 C   0  0  0  0  0  0  0  0  0  0  0  0
   10.9418   -3.4032   21.2053 O   0  0  0  0  0  0  0  0  0  0  0  0
    1.4797   -8.6258   16.2950 C   0  0  0  0  0  0  0  0  0  0  0  0
    9.2861   -1.2743   25.3585 C   0  0  0  0  0  0  0  0  0  0  0  0
    1.8892  -10.3985   17.7511 N   0  0  0  0  0  0  0  0  0  0  0  0
    9.6210   -0.6952   24.0976 C   0  0  0  0  0  0  0  0  0  0  0  0
    7.0792   -9.0217   17.1429 C   0  0  0  0  0  0  0  0  0  0  0  0
    3.1713  -10.1816   17.6634 C   0  0  0  0  0  0  0  0  0  0  0  0
    2.7878   -8.3822   16.2137 C   0  0  0  0  0  0  0  0  0  0  0  0
    9.4601   -2.6590   25.6528 C   0  0  0  0  0  0  0  0  0  0  0  0
   10.1182   -1.5672   23.1165 C   0  0  0  0  0  0  0  0  0  0  0  0
    1.0552   -9.6360   17.0650 C   0  0  0  0  0  0  0  0  0  0  0  0
    3.6519   -9.1783   16.9039 C   0  0  0  0  0  0  0  0  0  0  0  0
    7.8675   -7.0096   15.9415 C   0  0  0  0  0  0  0  0  0  0  0  0
    5.9733   -9.6553   17.3832 N   0  0  0  0  0  0  0  0  0  0  0  0
   10.2411   -2.9363   23.4301 C   0  0  0  0  0  0  0  0  0  0  0  0
   10.7288   -3.8197   19.9525 C   0  0  0  0  0  0  0  0  0  0  0  0
   10.1189   -5.0054   19.6987 C   0  0  0  0  0  0  0  0  0  0  0  0
  1  3  4  0
  1  7  4  0
  2 21  4  0
  2 27  4  0
  3  9  4  0
  3 10  4  0
  4  8  4  0
  4 18  4  0
  4 25  1  0
  5  9  4  0
  5 12  4  0
  6 13  1  0
  6 27  1  0
  7 28  4  0
  8 11  4  0
  9 29  4  0
 10 12  4  0
 11 24  1  0
 11 26  4  0
 12 25  1  0
 13 28  1  0
 14 20  4  0
 14 23  4  0
 15 17  4  0
 15 21  4  0
 16 19  4  0
 16 23  4  0
 17 22  4  0
 18 26  4  0
 19 24  4  0
 20 24  4  0
 22 27  4  0
 28 29  4  0
M  END
$$$$

 Created by Python create_sdf_string function

 29 33  0  0  0  0  0  0  0  0999 V2000
   10.7215   -3.3326   17.6437 C   0  0  0  0  0  0  0  0  0  0  0  0
    9.9489   -3.4675   24.6487 N   0  0  0  0  0  0  0  0  0  0  0  0
   10.0172   -4.4740   17.4101 C   0  0  0  0  0  0  0  0  0  0  0  0
    6.9051   -7.9575   16.4222 C   0  0  0  0  0  0  0  0  0  0  0  0
    8.9969   -6.3552   17.9668 N   0  0  0  0  0  0  0  0  0  0  0  0
   10.6702   -3.9051   22.4070 C   0  0  0  0  0  0  0  0  0  0  0  0
   11.0625   -3.0028   18.8894 C   0  0  0  0  0  0  0  0  0  0  0  0
    5.6180   -7.9194   16.1754 O   0  0  0  0  0  0  0  0  0  0  0  0
    9.7259   -5.3080   18.4485 C   0  0  0  0  0  0  0  0  0  0  0  0
    9.4578   -5.0200   16.3036 N   0  0  0  0  0  0  0  0  0  0  0  0
    5.0287   -8.9365   16.8223 C   0  0  0  0  0  0  0  0  0  0  0  0
    8.7742   -6.1498   16.6764 C   0  0  0  0  0  0  0  0  0  0  0  0
   10.9418   -3.4032   21.2053 O   0  0  0  0  0  0  0  0  0  0  0  0
    1.4797   -8.6258   16.2950 C   0  0  0  0  0  0  0  0  0  0  0  0
    9.2861   -1.2743   25.3585 C   0  0  0  0  0  0  0  0  0  0  0  0
    1.8892  -10.3985   17.7511 N   0  0  0  0  0  0  0  0  0  0  0  0
    9.6210   -0.6952   24.0976 C   0  0  0  0  0  0  0  0  0  0  0  0
    7.0792   -9.0217   17.1429 C   0  0  0  0  0  0  0  0  0  0  0  0
    3.1713  -10.1816   17.6634 C   0  0  0  0  0  0  0  0  0  0  0  0
    2.7878   -8.3822   16.2137 C   0  0  0  0  0  0  0  0  0  0  0  0
    9.4601   -2.6590   25.6528 C   0  0  0  0  0  0  0  0  0  0  0  0
   10.1182   -1.5672   23.1165 C   0  0  0  0  0  0  0  0  0  0  0  0
    1.0552   -9.6360   17.0650 C   0  0  0  0  0  0  0  0  0  0  0  0
    3.6519   -9.1783   16.9039 C   0  0  0  0  0  0  0  0  0  0  0  0
    7.8675   -7.0096   15.9415 C   0  0  0  0  0  0  0  0  0  0  0  0
    5.9733   -9.6553   17.3832 N   0  0  0  0  0  0  0  0  0  0  0  0
   10.2411   -2.9363   23.4301 C   0  0  0  0  0  0  0  0  0  0  0  0
   10.7288   -3.8197   19.9525 C   0  0  0  0  0  0  0  0  0  0  0  0
   10.1189   -5.0054   19.6987 C   0  0  0  0  0  0  0  0  0  0  0  0
  1  3  4  0
  1  7  4  0
  2 21  4  0
  2 27  4  0
  3  9  4  0
  3 10  4  0
  4  8  4  0
  4 18  4  0
  4 25  1  0
  5  9  4  0
  5 12  4  0
  6 13  1  0
  6 27  1  0
  7 28  4  0
  8 11  4  0
  9 29  4  0
 10 12  4  0
 11 24  1  0
 11 26  4  0
 12 25  1  0
 13 28  1  0
 14 20  4  0
 14 23  4  0
 15 17  4  0
 15 21  4  0
 16 19  4  0
 16 23  4  0
 17 22  4  0
 18 26  4  0
 19 24  4  0
 20 24  4  0
 22 27  4  0
 28 29  4  0
M  END
$$$$

 Created by Python create_sdf_string function

 29 33  0  0  0  0  0  0  0  0999 V2000
   10.7215   -3.3326   17.6437 C   0  0  0  0  0  0  0  0  0  0  0  0
    9.9489   -3.4675   24.6487 N   0  0  0  0  0  0  0  0  0  0  0  0
   10.0172   -4.4740   17.4101 C   0  0  0  0  0  0  0  0  0  0  0  0
    6.9051   -7.9575   16.4222 C   0  0  0  0  0  0  0  0  0  0  0  0
    8.9969   -6.3552   17.9668 N   0  0  0  0  0  0  0  0  0  0  0  0
   10.6702   -3.9051   22.4070 C   0  0  0  0  0  0  0  0  0  0  0  0
   11.0625   -3.0028   18.8894 C   0  0  0  0  0  0  0  0  0  0  0  0
    5.6180   -7.9194   16.1754 O   0  0  0  0  0  0  0  0  0  0  0  0
    9.7259   -5.3080   18.4485 C   0  0  0  0  0  0  0  0  0  0  0  0
    9.4578   -5.0200   16.3036 N   0  0  0  0  0  0  0  0  0  0  0  0
    5.0287   -8.9365   16.8223 C   0  0  0  0  0  0  0  0  0  0  0  0
    8.7742   -6.1498   16.6764 C   0  0  0  0  0  0  0  0  0  0  0  0
   10.9418   -3.4032   21.2053 O   0  0  0  0  0  0  0  0  0  0  0  0
    1.4797   -8.6258   16.2950 C   0  0  0  0  0  0  0  0  0  0  0  0
    9.2861   -1.2743   25.3585 C   0  0  0  0  0  0  0  0  0  0  0  0
    1.8892  -10.3985   17.7511 N   0  0  0  0  0  0  0  0  0  0  0  0
    9.6210   -0.6952   24.0976 C   0  0  0  0  0  0  0  0  0  0  0  0
    7.0792   -9.0217   17.1429 C   0  0  0  0  0  0  0  0  0  0  0  0
    3.1713  -10.1816   17.6634 C   0  0  0  0  0  0  0  0  0  0  0  0
    2.7878   -8.3822   16.2137 C   0  0  0  0  0  0  0  0  0  0  0  0
    9.4601   -2.6590   25.6528 C   0  0  0  0  0  0  0  0  0  0  0  0
   10.1182   -1.5672   23.1165 C   0  0  0  0  0  0  0  0  0  0  0  0
    1.0552   -9.6360   17.0650 C   0  0  0  0  0  0  0  0  0  0  0  0
    3.6519   -9.1783   16.9039 C   0  0  0  0  0  0  0  0  0  0  0  0
    7.8675   -7.0096   15.9415 C   0  0  0  0  0  0  0  0  0  0  0  0
    5.9733   -9.6553   17.3832 N   0  0  0  0  0  0  0  0  0  0  0  0
   10.2411   -2.9363   23.4301 C   0  0  0  0  0  0  0  0  0  0  0  0
   10.7288   -3.8197   19.9525 C   0  0  0  0  0  0  0  0  0  0  0  0
   10.1189   -5.0054   19.6987 C   0  0  0  0  0  0  0  0  0  0  0  0
  1  3  4  0
  1  7  4  0
  2 21  4  0
  2 27  4  0
  3  9  4  0
  3 10  4  0
  4  8  4  0
  4 18  4  0
  4 25  1  0
  5  9  4  0
  5 12  4  0
  6 13  1  0
  6 27  1  0
  7 28  4  0
  8 11  4  0
  9 29  4  0
 10 12  4  0
 11 24  1  0
 11 26  4  0
 12 25  1  0
 13 28  1  0
 14 20  4  0
 14 23  4  0
 15 17  4  0
 15 21  4  0
 16 19  4  0
 16 23  4  0
 17 22  4  0
 18 26  4  0
 19 24  4  0
 20 24  4  0
 22 27  4  0
 28 29  4  0
M  END
$$$$

 Created by Python create_sdf_string function

 29 33  0  0  0  0  0  0  0  0999 V2000
   10.7215   -3.3326   17.6437 C   0  0  0  0  0  0  0  0  0  0  0  0
    9.9489   -3.4675   24.6487 N   0  0  0  0  0  0  0  0  0  0  0  0
   10.0172   -4.4740   17.4101 C   0  0  0  0  0  0  0  0  0  0  0  0
    6.9051   -7.9575   16.4222 C   0  0  0  0  0  0  0  0  0  0  0  0
    8.9969   -6.3552   17.9668 N   0  0  0  0  0  0  0  0  0  0  0  0
   10.6702   -3.9051   22.4070 C   0  0  0  0  0  0  0  0  0  0  0  0
   11.0625   -3.0028   18.8894 C   0  0  0  0  0  0  0  0  0  0  0  0
    5.6180   -7.9194   16.1754 O   0  0  0  0  0  0  0  0  0  0  0  0
    9.7259   -5.3080   18.4485 C   0  0  0  0  0  0  0  0  0  0  0  0
    9.4578   -5.0200   16.3036 N   0  0  0  0  0  0  0  0  0  0  0  0
    5.0287   -8.9365   16.8223 C   0  0  0  0  0  0  0  0  0  0  0  0
    8.7742   -6.1498   16.6764 C   0  0  0  0  0  0  0  0  0  0  0  0
   10.9418   -3.4032   21.2053 O   0  0  0  0  0  0  0  0  0  0  0  0
    1.4797   -8.6258   16.2950 C   0  0  0  0  0  0  0  0  0  0  0  0
    9.2861   -1.2743   25.3585 C   0  0  0  0  0  0  0  0  0  0  0  0
    1.8892  -10.3985   17.7511 N   0  0  0  0  0  0  0  0  0  0  0  0
    9.6210   -0.6952   24.0976 C   0  0  0  0  0  0  0  0  0  0  0  0
    7.0792   -9.0217   17.1429 C   0  0  0  0  0  0  0  0  0  0  0  0
    3.1713  -10.1816   17.6634 C   0  0  0  0  0  0  0  0  0  0  0  0
    2.7878   -8.3822   16.2137 C   0  0  0  0  0  0  0  0  0  0  0  0
    9.4601   -2.6590   25.6528 C   0  0  0  0  0  0  0  0  0  0  0  0
   10.1182   -1.5672   23.1165 C   0  0  0  0  0  0  0  0  0  0  0  0
    1.0552   -9.6360   17.0650 C   0  0  0  0  0  0  0  0  0  0  0  0
    3.6519   -9.1783   16.9039 C   0  0  0  0  0  0  0  0  0  0  0  0
    7.8675   -7.0096   15.9415 C   0  0  0  0  0  0  0  0  0  0  0  0
    5.9733   -9.6553   17.3832 N   0  0  0  0  0  0  0  0  0  0  0  0
   10.2411   -2.9363   23.4301 C   0  0  0  0  0  0  0  0  0  0  0  0
   10.7288   -3.8197   19.9525 C   0  0  0  0  0  0  0  0  0  0  0  0
   10.1189   -5.0054   19.6987 C   0  0  0  0  0  0  0  0  0  0  0  0
  1  3  4  0
  1  7  4  0
  2 21  4  0
  2 27  4  0
  3  9  4  0
  3 10  4  0
  4  8  4  0
  4 18  4  0
  4 25  1  0
  5  9  4  0
  5 12  4  0
  6 13  1  0
  6 27  1  0
  7 28  4  0
  8 11  4  0
  9 29  4  0
 10 12  4  0
 11 24  1  0
 11 26  4  0
 12 25  1  0
 13 28  1  0
 14 20  4  0
 14 23  4  0
 15 17  4  0
 15 21  4  0
 16 19  4  0
 16 23  4  0
 17 22  4  0
 18 26  4  0
 19 24  4  0
 20 24  4  0
 22 27  4  0
 28 29  4  0
M  END
$$$$

 Created by Python create_sdf_string function

 29 33  0  0  0  0  0  0  0  0999 V2000
   10.7215   -3.3326   17.6437 C   0  0  0  0  0  0  0  0  0  0  0  0
    9.9489   -3.4675   24.6487 N   0  0  0  0  0  0  0  0  0  0  0  0
   10.0172   -4.4740   17.4101 C   0  0  0  0  0  0  0  0  0  0  0  0
    6.9051   -7.9575   16.4222 C   0  0  0  0  0  0  0  0  0  0  0  0
    8.9969   -6.3552   17.9668 N   0  0  0  0  0  0  0  0  0  0  0  0
   10.6702   -3.9051   22.4070 C   0  0  0  0  0  0  0  0  0  0  0  0
   11.0625   -3.0028   18.8894 C   0  0  0  0  0  0  0  0  0  0  0  0
    5.6180   -7.9194   16.1754 O   0  0  0  0  0  0  0  0  0  0  0  0
    9.7259   -5.3080   18.4485 C   0  0  0  0  0  0  0  0  0  0  0  0
    9.4578   -5.0200   16.3036 N   0  0  0  0  0  0  0  0  0  0  0  0
    5.0287   -8.9365   16.8223 C   0  0  0  0  0  0  0  0  0  0  0  0
    8.7742   -6.1498   16.6764 C   0  0  0  0  0  0  0  0  0  0  0  0
   10.9418   -3.4032   21.2053 O   0  0  0  0  0  0  0  0  0  0  0  0
    1.4797   -8.6258   16.2950 C   0  0  0  0  0  0  0  0  0  0  0  0
    9.2861   -1.2743   25.3585 C   0  0  0  0  0  0  0  0  0  0  0  0
    1.8892  -10.3985   17.7511 N   0  0  0  0  0  0  0  0  0  0  0  0
    9.6210   -0.6952   24.0976 C   0  0  0  0  0  0  0  0  0  0  0  0
    7.0792   -9.0217   17.1429 C   0  0  0  0  0  0  0  0  0  0  0  0
    3.1713  -10.1816   17.6634 C   0  0  0  0  0  0  0  0  0  0  0  0
    2.7878   -8.3822   16.2137 C   0  0  0  0  0  0  0  0  0  0  0  0
    9.4601   -2.6590   25.6528 C   0  0  0  0  0  0  0  0  0  0  0  0
   10.1182   -1.5672   23.1165 C   0  0  0  0  0  0  0  0  0  0  0  0
    1.0552   -9.6360   17.0650 C   0  0  0  0  0  0  0  0  0  0  0  0
    3.6519   -9.1783   16.9039 C   0  0  0  0  0  0  0  0  0  0  0  0
    7.8675   -7.0096   15.9415 C   0  0  0  0  0  0  0  0  0  0  0  0
    5.9733   -9.6553   17.3832 N   0  0  0  0  0  0  0  0  0  0  0  0
   10.2411   -2.9363   23.4301 C   0  0  0  0  0  0  0  0  0  0  0  0
   10.7288   -3.8197   19.9525 C   0  0  0  0  0  0  0  0  0  0  0  0
   10.1189   -5.0054   19.6987 C   0  0  0  0  0  0  0  0  0  0  0  0
  1  3  4  0
  1  7  4  0
  2 21  4  0
  2 27  4  0
  3  9  4  0
  3 10  4  0
  4  8  4  0
  4 18  4  0
  4 25  1  0
  5  9  4  0
  5 12  4  0
  6 13  1  0
  6 27  1  0
  7 28  4  0
  8 11  4  0
  9 29  4  0
 10 12  4  0
 11 24  1  0
 11 26  4  0
 12 25  1  0
 13 28  1  0
 14 20  4  0
 14 23  4  0
 15 17  4  0
 15 21  4  0
 16 19  4  0
 16 23  4  0
 17 22  4  0
 18 26  4  0
 19 24  4  0
 20 24  4  0
 22 27  4  0
 28 29  4  0
M  END
$$$$

 Created by Python create_sdf_string function

 29 33  0  0  0  0  0  0  0  0999 V2000
   10.7215   -3.3326   17.6437 C   0  0  0  0  0  0  0  0  0  0  0  0
    9.9489   -3.4675   24.6487 N   0  0  0  0  0  0  0  0  0  0  0  0
   10.0172   -4.4740   17.4101 C   0  0  0  0  0  0  0  0  0  0  0  0
    6.9051   -7.9575   16.4222 C   0  0  0  0  0  0  0  0  0  0  0  0
    8.9969   -6.3552   17.9668 N   0  0  0  0  0  0  0  0  0  0  0  0
   10.6702   -3.9051   22.4070 C   0  0  0  0  0  0  0  0  0  0  0  0
   11.0625   -3.0028   18.8894 C   0  0  0  0  0  0  0  0  0  0  0  0
    5.6180   -7.9194   16.1754 O   0  0  0  0  0  0  0  0  0  0  0  0
    9.7259   -5.3080   18.4485 C   0  0  0  0  0  0  0  0  0  0  0  0
    9.4578   -5.0200   16.3036 N   0  0  0  0  0  0  0  0  0  0  0  0
    5.0287   -8.9365   16.8223 C   0  0  0  0  0  0  0  0  0  0  0  0
    8.7742   -6.1498   16.6764 C   0  0  0  0  0  0  0  0  0  0  0  0
   10.9418   -3.4032   21.2053 O   0  0  0  0  0  0  0  0  0  0  0  0
    1.4797   -8.6258   16.2950 C   0  0  0  0  0  0  0  0  0  0  0  0
    9.2861   -1.2743   25.3585 C   0  0  0  0  0  0  0  0  0  0  0  0
    1.8892  -10.3985   17.7511 N   0  0  0  0  0  0  0  0  0  0  0  0
    9.6210   -0.6952   24.0976 C   0  0  0  0  0  0  0  0  0  0  0  0
    7.0792   -9.0217   17.1429 C   0  0  0  0  0  0  0  0  0  0  0  0
    3.1713  -10.1816   17.6634 C   0  0  0  0  0  0  0  0  0  0  0  0
    2.7878   -8.3822   16.2137 C   0  0  0  0  0  0  0  0  0  0  0  0
    9.4601   -2.6590   25.6528 C   0  0  0  0  0  0  0  0  0  0  0  0
   10.1182   -1.5672   23.1165 C   0  0  0  0  0  0  0  0  0  0  0  0
    1.0552   -9.6360   17.0650 C   0  0  0  0  0  0  0  0  0  0  0  0
    3.6519   -9.1783   16.9039 C   0  0  0  0  0  0  0  0  0  0  0  0
    7.8675   -7.0096   15.9415 C   0  0  0  0  0  0  0  0  0  0  0  0
    5.9733   -9.6553   17.3832 N   0  0  0  0  0  0  0  0  0  0  0  0
   10.2411   -2.9363   23.4301 C   0  0  0  0  0  0  0  0  0  0  0  0
   10.7288   -3.8197   19.9525 C   0  0  0  0  0  0  0  0  0  0  0  0
   10.1189   -5.0054   19.6987 C   0  0  0  0  0  0  0  0  0  0  0  0
  1  3  4  0
  1  7  4  0
  2 21  4  0
  2 27  4  0
  3  9  4  0
  3 10  4  0
  4  8  4  0
  4 18  4  0
  4 25  1  0
  5  9  4  0
  5 12  4  0
  6 13  1  0
  6 27  1  0
  7 28  4  0
  8 11  4  0
  9 29  4  0
 10 12  4  0
 11 24  1  0
 11 26  4  0
 12 25  1  0
 13 28  1  0
 14 20  4  0
 14 23  4  0
 15 17  4  0
 15 21  4  0
 16 19  4  0
 16 23  4  0
 17 22  4  0
 18 26  4  0
 19 24  4  0
 20 24  4  0
 22 27  4  0
 28 29  4  0
M  END
$$$$

 Created by Python create_sdf_string function

 29 33  0  0  0  0  0  0  0  0999 V2000
   10.7215   -3.3326   17.6437 C   0  0  0  0  0  0  0  0  0  0  0  0
    9.9489   -3.4675   24.6487 N   0  0  0  0  0  0  0  0  0  0  0  0
   10.0172   -4.4740   17.4101 C   0  0  0  0  0  0  0  0  0  0  0  0
    6.9051   -7.9575   16.4222 C   0  0  0  0  0  0  0  0  0  0  0  0
    8.9969   -6.3552   17.9668 N   0  0  0  0  0  0  0  0  0  0  0  0
   10.6702   -3.9051   22.4070 C   0  0  0  0  0  0  0  0  0  0  0  0
   11.0625   -3.0028   18.8894 C   0  0  0  0  0  0  0  0  0  0  0  0
    5.6180   -7.9194   16.1754 O   0  0  0  0  0  0  0  0  0  0  0  0
    9.7259   -5.3080   18.4485 C   0  0  0  0  0  0  0  0  0  0  0  0
    9.4578   -5.0200   16.3036 N   0  0  0  0  0  0  0  0  0  0  0  0
    5.0287   -8.9365   16.8223 C   0  0  0  0  0  0  0  0  0  0  0  0
    8.7742   -6.1498   16.6764 C   0  0  0  0  0  0  0  0  0  0  0  0
   10.9418   -3.4032   21.2053 O   0  0  0  0  0  0  0  0  0  0  0  0
    1.4797   -8.6258   16.2950 C   0  0  0  0  0  0  0  0  0  0  0  0
    9.2861   -1.2743   25.3585 C   0  0  0  0  0  0  0  0  0  0  0  0
    1.8892  -10.3985   17.7511 N   0  0  0  0  0  0  0  0  0  0  0  0
    9.6210   -0.6952   24.0976 C   0  0  0  0  0  0  0  0  0  0  0  0
    7.0792   -9.0217   17.1429 C   0  0  0  0  0  0  0  0  0  0  0  0
    3.1713  -10.1816   17.6634 C   0  0  0  0  0  0  0  0  0  0  0  0
    2.7878   -8.3822   16.2137 C   0  0  0  0  0  0  0  0  0  0  0  0
    9.4601   -2.6590   25.6528 C   0  0  0  0  0  0  0  0  0  0  0  0
   10.1182   -1.5672   23.1165 C   0  0  0  0  0  0  0  0  0  0  0  0
    1.0552   -9.6360   17.0650 C   0  0  0  0  0  0  0  0  0  0  0  0
    3.6519   -9.1783   16.9039 C   0  0  0  0  0  0  0  0  0  0  0  0
    7.8675   -7.0096   15.9415 C   0  0  0  0  0  0  0  0  0  0  0  0
    5.9733   -9.6553   17.3832 N   0  0  0  0  0  0  0  0  0  0  0  0
   10.2411   -2.9363   23.4301 C   0  0  0  0  0  0  0  0  0  0  0  0
   10.7288   -3.8197   19.9525 C   0  0  0  0  0  0  0  0  0  0  0  0
   10.1189   -5.0054   19.6987 C   0  0  0  0  0  0  0  0  0  0  0  0
  1  3  4  0
  1  7  4  0
  2 21  4  0
  2 27  4  0
  3  9  4  0
  3 10  4  0
  4  8  4  0
  4 18  4  0
  4 25  1  0
  5  9  4  0
  5 12  4  0
  6 13  1  0
  6 27  1  0
  7 28  4  0
  8 11  4  0
  9 29  4  0
 10 12  4  0
 11 24  1  0
 11 26  4  0
 12 25  1  0
 13 28  1  0
 14 20  4  0
 14 23  4  0
 15 17  4  0
 15 21  4  0
 16 19  4  0
 16 23  4  0
 17 22  4  0
 18 26  4  0
 19 24  4  0
 20 24  4  0
 22 27  4  0
 28 29  4  0
M  END
$$$$

 Created by Python create_sdf_string function

 29 33  0  0  0  0  0  0  0  0999 V2000
   10.7215   -3.3326   17.6437 C   0  0  0  0  0  0  0  0  0  0  0  0
    9.9489   -3.4675   24.6487 N   0  0  0  0  0  0  0  0  0  0  0  0
   10.0172   -4.4740   17.4101 C   0  0  0  0  0  0  0  0  0  0  0  0
    6.9051   -7.9575   16.4222 C   0  0  0  0  0  0  0  0  0  0  0  0
    8.9969   -6.3552   17.9668 N   0  0  0  0  0  0  0  0  0  0  0  0
   10.6702   -3.9051   22.4070 C   0  0  0  0  0  0  0  0  0  0  0  0
   11.0625   -3.0028   18.8894 C   0  0  0  0  0  0  0  0  0  0  0  0
    5.6180   -7.9194   16.1754 O   0  0  0  0  0  0  0  0  0  0  0  0
    9.7259   -5.3080   18.4485 C   0  0  0  0  0  0  0  0  0  0  0  0
    9.4578   -5.0200   16.3036 N   0  0  0  0  0  0  0  0  0  0  0  0
    5.0287   -8.9365   16.8223 C   0  0  0  0  0  0  0  0  0  0  0  0
    8.7742   -6.1498   16.6764 C   0  0  0  0  0  0  0  0  0  0  0  0
   10.9418   -3.4032   21.2053 O   0  0  0  0  0  0  0  0  0  0  0  0
    1.4797   -8.6258   16.2950 C   0  0  0  0  0  0  0  0  0  0  0  0
    9.2861   -1.2743   25.3585 C   0  0  0  0  0  0  0  0  0  0  0  0
    1.8892  -10.3985   17.7511 N   0  0  0  0  0  0  0  0  0  0  0  0
    9.6210   -0.6952   24.0976 C   0  0  0  0  0  0  0  0  0  0  0  0
    7.0792   -9.0217   17.1429 C   0  0  0  0  0  0  0  0  0  0  0  0
    3.1713  -10.1816   17.6634 C   0  0  0  0  0  0  0  0  0  0  0  0
    2.7878   -8.3822   16.2137 C   0  0  0  0  0  0  0  0  0  0  0  0
    9.4601   -2.6590   25.6528 C   0  0  0  0  0  0  0  0  0  0  0  0
   10.1182   -1.5672   23.1165 C   0  0  0  0  0  0  0  0  0  0  0  0
    1.0552   -9.6360   17.0650 C   0  0  0  0  0  0  0  0  0  0  0  0
    3.6519   -9.1783   16.9039 C   0  0  0  0  0  0  0  0  0  0  0  0
    7.8675   -7.0096   15.9415 C   0  0  0  0  0  0  0  0  0  0  0  0
    5.9733   -9.6553   17.3832 N   0  0  0  0  0  0  0  0  0  0  0  0
   10.2411   -2.9363   23.4301 C   0  0  0  0  0  0  0  0  0  0  0  0
   10.7288   -3.8197   19.9525 C   0  0  0  0  0  0  0  0  0  0  0  0
   10.1189   -5.0054   19.6987 C   0  0  0  0  0  0  0  0  0  0  0  0
  1  3  4  0
  1  7  4  0
  2 21  4  0
  2 27  4  0
  3  9  4  0
  3 10  4  0
  4  8  4  0
  4 18  4  0
  4 25  1  0
  5  9  4  0
  5 12  4  0
  6 13  1  0
  6 27  1  0
  7 28  4  0
  8 11  4  0
  9 29  4  0
 10 12  4  0
 11 24  1  0
 11 26  4  0
 12 25  1  0
 13 28  1  0
 14 20  4  0
 14 23  4  0
 15 17  4  0
 15 21  4  0
 16 19  4  0
 16 23  4  0
 17 22  4  0
 18 26  4  0
 19 24  4  0
 20 24  4  0
 22 27  4  0
 28 29  4  0
M  END
$$$$

 Created by Python create_sdf_string function

 29 33  0  0  0  0  0  0  0  0999 V2000
   10.7215   -3.3326   17.6437 C   0  0  0  0  0  0  0  0  0  0  0  0
    9.9489   -3.4675   24.6487 N   0  0  0  0  0  0  0  0  0  0  0  0
   10.0172   -4.4740   17.4101 C   0  0  0  0  0  0  0  0  0  0  0  0
    6.9051   -7.9575   16.4222 C   0  0  0  0  0  0  0  0  0  0  0  0
    8.9969   -6.3552   17.9668 N   0  0  0  0  0  0  0  0  0  0  0  0
   10.6702   -3.9051   22.4070 C   0  0  0  0  0  0  0  0  0  0  0  0
   11.0625   -3.0028   18.8894 C   0  0  0  0  0  0  0  0  0  0  0  0
    5.6180   -7.9194   16.1754 O   0  0  0  0  0  0  0  0  0  0  0  0
    9.7259   -5.3080   18.4485 C   0  0  0  0  0  0  0  0  0  0  0  0
    9.4578   -5.0200   16.3036 N   0  0  0  0  0  0  0  0  0  0  0  0
    5.0287   -8.9365   16.8223 C   0  0  0  0  0  0  0  0  0  0  0  0
    8.7742   -6.1498   16.6764 C   0  0  0  0  0  0  0  0  0  0  0  0
   10.9418   -3.4032   21.2053 O   0  0  0  0  0  0  0  0  0  0  0  0
    1.4797   -8.6258   16.2950 C   0  0  0  0  0  0  0  0  0  0  0  0
    9.2861   -1.2743   25.3585 C   0  0  0  0  0  0  0  0  0  0  0  0
    1.8892  -10.3985   17.7511 N   0  0  0  0  0  0  0  0  0  0  0  0
    9.6210   -0.6952   24.0976 C   0  0  0  0  0  0  0  0  0  0  0  0
    7.0792   -9.0217   17.1429 C   0  0  0  0  0  0  0  0  0  0  0  0
    3.1713  -10.1816   17.6634 C   0  0  0  0  0  0  0  0  0  0  0  0
    2.7878   -8.3822   16.2137 C   0  0  0  0  0  0  0  0  0  0  0  0
    9.4601   -2.6590   25.6528 C   0  0  0  0  0  0  0  0  0  0  0  0
   10.1182   -1.5672   23.1165 C   0  0  0  0  0  0  0  0  0  0  0  0
    1.0552   -9.6360   17.0650 C   0  0  0  0  0  0  0  0  0  0  0  0
    3.6519   -9.1783   16.9039 C   0  0  0  0  0  0  0  0  0  0  0  0
    7.8675   -7.0096   15.9415 C   0  0  0  0  0  0  0  0  0  0  0  0
    5.9733   -9.6553   17.3832 N   0  0  0  0  0  0  0  0  0  0  0  0
   10.2411   -2.9363   23.4301 C   0  0  0  0  0  0  0  0  0  0  0  0
   10.7288   -3.8197   19.9525 C   0  0  0  0  0  0  0  0  0  0  0  0
   10.1189   -5.0054   19.6987 C   0  0  0  0  0  0  0  0  0  0  0  0
  1  3  4  0
  1  7  4  0
  2 21  4  0
  2 27  4  0
  3  9  4  0
  3 10  4  0
  4  8  4  0
  4 18  4  0
  4 25  1  0
  5  9  4  0
  5 12  4  0
  6 13  1  0
  6 27  1  0
  7 28  4  0
  8 11  4  0
  9 29  4  0
 10 12  4  0
 11 24  1  0
 11 26  4  0
 12 25  1  0
 13 28  1  0
 14 20  4  0
 14 23  4  0
 15 17  4  0
 15 21  4  0
 16 19  4  0
 16 23  4  0
 17 22  4  0
 18 26  4  0
 19 24  4  0
 20 24  4  0
 22 27  4  0
 28 29  4  0
M  END
$$$$

 Created by Python create_sdf_string function

 29 33  0  0  0  0  0  0  0  0999 V2000
   10.7215   -3.3326   17.6437 C   0  0  0  0  0  0  0  0  0  0  0  0
    9.9489   -3.4675   24.6487 N   0  0  0  0  0  0  0  0  0  0  0  0
   10.0172   -4.4740   17.4101 C   0  0  0  0  0  0  0  0  0  0  0  0
    6.9051   -7.9575   16.4222 C   0  0  0  0  0  0  0  0  0  0  0  0
    8.9969   -6.3552   17.9668 N   0  0  0  0  0  0  0  0  0  0  0  0
   10.6702   -3.9051   22.4070 C   0  0  0  0  0  0  0  0  0  0  0  0
   11.0625   -3.0028   18.8894 C   0  0  0  0  0  0  0  0  0  0  0  0
    5.6180   -7.9194   16.1754 O   0  0  0  0  0  0  0  0  0  0  0  0
    9.7259   -5.3080   18.4485 C   0  0  0  0  0  0  0  0  0  0  0  0
    9.4578   -5.0200   16.3036 N   0  0  0  0  0  0  0  0  0  0  0  0
    5.0287   -8.9365   16.8223 C   0  0  0  0  0  0  0  0  0  0  0  0
    8.7742   -6.1498   16.6764 C   0  0  0  0  0  0  0  0  0  0  0  0
   10.9418   -3.4032   21.2053 O   0  0  0  0  0  0  0  0  0  0  0  0
    1.4797   -8.6258   16.2950 C   0  0  0  0  0  0  0  0  0  0  0  0
    9.2861   -1.2743   25.3585 C   0  0  0  0  0  0  0  0  0  0  0  0
    1.8892  -10.3985   17.7511 N   0  0  0  0  0  0  0  0  0  0  0  0
    9.6210   -0.6952   24.0976 C   0  0  0  0  0  0  0  0  0  0  0  0
    7.0792   -9.0217   17.1429 C   0  0  0  0  0  0  0  0  0  0  0  0
    3.1713  -10.1816   17.6634 C   0  0  0  0  0  0  0  0  0  0  0  0
    2.7878   -8.3822   16.2137 C   0  0  0  0  0  0  0  0  0  0  0  0
    9.4601   -2.6590   25.6528 C   0  0  0  0  0  0  0  0  0  0  0  0
   10.1182   -1.5672   23.1165 C   0  0  0  0  0  0  0  0  0  0  0  0
    1.0552   -9.6360   17.0650 C   0  0  0  0  0  0  0  0  0  0  0  0
    3.6519   -9.1783   16.9039 C   0  0  0  0  0  0  0  0  0  0  0  0
    7.8675   -7.0096   15.9415 C   0  0  0  0  0  0  0  0  0  0  0  0
    5.9733   -9.6553   17.3832 N   0  0  0  0  0  0  0  0  0  0  0  0
   10.2411   -2.9363   23.4301 C   0  0  0  0  0  0  0  0  0  0  0  0
   10.7288   -3.8197   19.9525 C   0  0  0  0  0  0  0  0  0  0  0  0
   10.1189   -5.0054   19.6987 C   0  0  0  0  0  0  0  0  0  0  0  0
  1  3  4  0
  1  7  4  0
  2 21  4  0
  2 27  4  0
  3  9  4  0
  3 10  4  0
  4  8  4  0
  4 18  4  0
  4 25  1  0
  5  9  4  0
  5 12  4  0
  6 13  1  0
  6 27  1  0
  7 28  4  0
  8 11  4  0
  9 29  4  0
 10 12  4  0
 11 24  1  0
 11 26  4  0
 12 25  1  0
 13 28  1  0
 14 20  4  0
 14 23  4  0
 15 17  4  0
 15 21  4  0
 16 19  4  0
 16 23  4  0
 17 22  4  0
 18 26  4  0
 19 24  4  0
 20 24  4  0
 22 27  4  0
 28 29  4  0
M  END
$$$$

 Created by Python create_sdf_string function

 29 33  0  0  0  0  0  0  0  0999 V2000
   10.7215   -3.3326   17.6437 C   0  0  0  0  0  0  0  0  0  0  0  0
    9.9489   -3.4675   24.6487 N   0  0  0  0  0  0  0  0  0  0  0  0
   10.0172   -4.4740   17.4101 C   0  0  0  0  0  0  0  0  0  0  0  0
    6.9051   -7.9575   16.4222 C   0  0  0  0  0  0  0  0  0  0  0  0
    8.9969   -6.3552   17.9668 N   0  0  0  0  0  0  0  0  0  0  0  0
   10.6702   -3.9051   22.4070 C   0  0  0  0  0  0  0  0  0  0  0  0
   11.0625   -3.0028   18.8894 C   0  0  0  0  0  0  0  0  0  0  0  0
    5.6180   -7.9194   16.1754 O   0  0  0  0  0  0  0  0  0  0  0  0
    9.7259   -5.3080   18.4485 C   0  0  0  0  0  0  0  0  0  0  0  0
    9.4578   -5.0200   16.3036 N   0  0  0  0  0  0  0  0  0  0  0  0
    5.0287   -8.9365   16.8223 C   0  0  0  0  0  0  0  0  0  0  0  0
    8.7742   -6.1498   16.6764 C   0  0  0  0  0  0  0  0  0  0  0  0
   10.9418   -3.4032   21.2053 O   0  0  0  0  0  0  0  0  0  0  0  0
    1.4797   -8.6258   16.2950 C   0  0  0  0  0  0  0  0  0  0  0  0
    9.2861   -1.2743   25.3585 C   0  0  0  0  0  0  0  0  0  0  0  0
    1.8892  -10.3985   17.7511 N   0  0  0  0  0  0  0  0  0  0  0  0
    9.6210   -0.6952   24.0976 C   0  0  0  0  0  0  0  0  0  0  0  0
    7.0792   -9.0217   17.1429 C   0  0  0  0  0  0  0  0  0  0  0  0
    3.1713  -10.1816   17.6634 C   0  0  0  0  0  0  0  0  0  0  0  0
    2.7878   -8.3822   16.2137 C   0  0  0  0  0  0  0  0  0  0  0  0
    9.4601   -2.6590   25.6528 C   0  0  0  0  0  0  0  0  0  0  0  0
   10.1182   -1.5672   23.1165 C   0  0  0  0  0  0  0  0  0  0  0  0
    1.0552   -9.6360   17.0650 C   0  0  0  0  0  0  0  0  0  0  0  0
    3.6519   -9.1783   16.9039 C   0  0  0  0  0  0  0  0  0  0  0  0
    7.8675   -7.0096   15.9415 C   0  0  0  0  0  0  0  0  0  0  0  0
    5.9733   -9.6553   17.3832 N   0  0  0  0  0  0  0  0  0  0  0  0
   10.2411   -2.9363   23.4301 C   0  0  0  0  0  0  0  0  0  0  0  0
   10.7288   -3.8197   19.9525 C   0  0  0  0  0  0  0  0  0  0  0  0
   10.1189   -5.0054   19.6987 C   0  0  0  0  0  0  0  0  0  0  0  0
  1  3  4  0
  1  7  4  0
  2 21  4  0
  2 27  4  0
  3  9  4  0
  3 10  4  0
  4  8  4  0
  4 18  4  0
  4 25  1  0
  5  9  4  0
  5 12  4  0
  6 13  1  0
  6 27  1  0
  7 28  4  0
  8 11  4  0
  9 29  4  0
 10 12  4  0
 11 24  1  0
 11 26  4  0
 12 25  1  0
 13 28  1  0
 14 20  4  0
 14 23  4  0
 15 17  4  0
 15 21  4  0
 16 19  4  0
 16 23  4  0
 17 22  4  0
 18 26  4  0
 19 24  4  0
 20 24  4  0
 22 27  4  0
 28 29  4  0
M  END
$$$$

 Created by Python create_sdf_string function

 29 33  0  0  0  0  0  0  0  0999 V2000
   10.7215   -3.3326   17.6437 C   0  0  0  0  0  0  0  0  0  0  0  0
    9.9489   -3.4675   24.6487 N   0  0  0  0  0  0  0  0  0  0  0  0
   10.0172   -4.4740   17.4101 C   0  0  0  0  0  0  0  0  0  0  0  0
    6.9051   -7.9575   16.4222 C   0  0  0  0  0  0  0  0  0  0  0  0
    8.9969   -6.3552   17.9668 N   0  0  0  0  0  0  0  0  0  0  0  0
   10.6702   -3.9051   22.4070 C   0  0  0  0  0  0  0  0  0  0  0  0
   11.0625   -3.0028   18.8894 C   0  0  0  0  0  0  0  0  0  0  0  0
    5.6180   -7.9194   16.1754 O   0  0  0  0  0  0  0  0  0  0  0  0
    9.7259   -5.3080   18.4485 C   0  0  0  0  0  0  0  0  0  0  0  0
    9.4578   -5.0200   16.3036 N   0  0  0  0  0  0  0  0  0  0  0  0
    5.0287   -8.9365   16.8223 C   0  0  0  0  0  0  0  0  0  0  0  0
    8.7742   -6.1498   16.6764 C   0  0  0  0  0  0  0  0  0  0  0  0
   10.9418   -3.4032   21.2053 O   0  0  0  0  0  0  0  0  0  0  0  0
    1.4797   -8.6258   16.2950 C   0  0  0  0  0  0  0  0  0  0  0  0
    9.2861   -1.2743   25.3585 C   0  0  0  0  0  0  0  0  0  0  0  0
    1.8892  -10.3985   17.7511 N   0  0  0  0  0  0  0  0  0  0  0  0
    9.6210   -0.6952   24.0976 C   0  0  0  0  0  0  0  0  0  0  0  0
    7.0792   -9.0217   17.1429 C   0  0  0  0  0  0  0  0  0  0  0  0
    3.1713  -10.1816   17.6634 C   0  0  0  0  0  0  0  0  0  0  0  0
    2.7878   -8.3822   16.2137 C   0  0  0  0  0  0  0  0  0  0  0  0
    9.4601   -2.6590   25.6528 C   0  0  0  0  0  0  0  0  0  0  0  0
   10.1182   -1.5672   23.1165 C   0  0  0  0  0  0  0  0  0  0  0  0
    1.0552   -9.6360   17.0650 C   0  0  0  0  0  0  0  0  0  0  0  0
    3.6519   -9.1783   16.9039 C   0  0  0  0  0  0  0  0  0  0  0  0
    7.8675   -7.0096   15.9415 C   0  0  0  0  0  0  0  0  0  0  0  0
    5.9733   -9.6553   17.3832 N   0  0  0  0  0  0  0  0  0  0  0  0
   10.2411   -2.9363   23.4301 C   0  0  0  0  0  0  0  0  0  0  0  0
   10.7288   -3.8197   19.9525 C   0  0  0  0  0  0  0  0  0  0  0  0
   10.1189   -5.0054   19.6987 C   0  0  0  0  0  0  0  0  0  0  0  0
  1  3  4  0
  1  7  4  0
  2 21  4  0
  2 27  4  0
  3  9  4  0
  3 10  4  0
  4  8  4  0
  4 18  4  0
  4 25  1  0
  5  9  4  0
  5 12  4  0
  6 13  1  0
  6 27  1  0
  7 28  4  0
  8 11  4  0
  9 29  4  0
 10 12  4  0
 11 24  1  0
 11 26  4  0
 12 25  1  0
 13 28  1  0
 14 20  4  0
 14 23  4  0
 15 17  4  0
 15 21  4  0
 16 19  4  0
 16 23  4  0
 17 22  4  0
 18 26  4  0
 19 24  4  0
 20 24  4  0
 22 27  4  0
 28 29  4  0
M  END
$$$$

 Created by Python create_sdf_string function

 29 33  0  0  0  0  0  0  0  0999 V2000
   10.7215   -3.3326   17.6437 C   0  0  0  0  0  0  0  0  0  0  0  0
    9.9489   -3.4675   24.6487 N   0  0  0  0  0  0  0  0  0  0  0  0
   10.0172   -4.4740   17.4101 C   0  0  0  0  0  0  0  0  0  0  0  0
    6.9051   -7.9575   16.4222 C   0  0  0  0  0  0  0  0  0  0  0  0
    8.9969   -6.3552   17.9668 N   0  0  0  0  0  0  0  0  0  0  0  0
   10.6702   -3.9051   22.4070 C   0  0  0  0  0  0  0  0  0  0  0  0
   11.0625   -3.0028   18.8894 C   0  0  0  0  0  0  0  0  0  0  0  0
    5.6180   -7.9194   16.1754 O   0  0  0  0  0  0  0  0  0  0  0  0
    9.7259   -5.3080   18.4485 C   0  0  0  0  0  0  0  0  0  0  0  0
    9.4578   -5.0200   16.3036 N   0  0  0  0  0  0  0  0  0  0  0  0
    5.0287   -8.9365   16.8223 C   0  0  0  0  0  0  0  0  0  0  0  0
    8.7742   -6.1498   16.6764 C   0  0  0  0  0  0  0  0  0  0  0  0
   10.9418   -3.4032   21.2053 O   0  0  0  0  0  0  0  0  0  0  0  0
    1.4797   -8.6258   16.2950 C   0  0  0  0  0  0  0  0  0  0  0  0
    9.2861   -1.2743   25.3585 C   0  0  0  0  0  0  0  0  0  0  0  0
    1.8892  -10.3985   17.7511 N   0  0  0  0  0  0  0  0  0  0  0  0
    9.6210   -0.6952   24.0976 C   0  0  0  0  0  0  0  0  0  0  0  0
    7.0792   -9.0217   17.1429 C   0  0  0  0  0  0  0  0  0  0  0  0
    3.1713  -10.1816   17.6634 C   0  0  0  0  0  0  0  0  0  0  0  0
    2.7878   -8.3822   16.2137 C   0  0  0  0  0  0  0  0  0  0  0  0
    9.4601   -2.6590   25.6528 C   0  0  0  0  0  0  0  0  0  0  0  0
   10.1182   -1.5672   23.1165 C   0  0  0  0  0  0  0  0  0  0  0  0
    1.0552   -9.6360   17.0650 C   0  0  0  0  0  0  0  0  0  0  0  0
    3.6519   -9.1783   16.9039 C   0  0  0  0  0  0  0  0  0  0  0  0
    7.8675   -7.0096   15.9415 C   0  0  0  0  0  0  0  0  0  0  0  0
    5.9733   -9.6553   17.3832 N   0  0  0  0  0  0  0  0  0  0  0  0
   10.2411   -2.9363   23.4301 C   0  0  0  0  0  0  0  0  0  0  0  0
   10.7288   -3.8197   19.9525 C   0  0  0  0  0  0  0  0  0  0  0  0
   10.1189   -5.0054   19.6987 C   0  0  0  0  0  0  0  0  0  0  0  0
  1  3  4  0
  1  7  4  0
  2 21  4  0
  2 27  4  0
  3  9  4  0
  3 10  4  0
  4  8  4  0
  4 18  4  0
  4 25  1  0
  5  9  4  0
  5 12  4  0
  6 13  1  0
  6 27  1  0
  7 28  4  0
  8 11  4  0
  9 29  4  0
 10 12  4  0
 11 24  1  0
 11 26  4  0
 12 25  1  0
 13 28  1  0
 14 20  4  0
 14 23  4  0
 15 17  4  0
 15 21  4  0
 16 19  4  0
 16 23  4  0
 17 22  4  0
 18 26  4  0
 19 24  4  0
 20 24  4  0
 22 27  4  0
 28 29  4  0
M  END
$$$$

 Created by Python create_sdf_string function

 29 33  0  0  0  0  0  0  0  0999 V2000
   10.7215   -3.3326   17.6437 C   0  0  0  0  0  0  0  0  0  0  0  0
    9.9489   -3.4675   24.6487 N   0  0  0  0  0  0  0  0  0  0  0  0
   10.0172   -4.4740   17.4101 C   0  0  0  0  0  0  0  0  0  0  0  0
    6.9051   -7.9575   16.4222 C   0  0  0  0  0  0  0  0  0  0  0  0
    8.9969   -6.3552   17.9668 N   0  0  0  0  0  0  0  0  0  0  0  0
   10.6702   -3.9051   22.4070 C   0  0  0  0  0  0  0  0  0  0  0  0
   11.0625   -3.0028   18.8894 C   0  0  0  0  0  0  0  0  0  0  0  0
    5.6180   -7.9194   16.1754 O   0  0  0  0  0  0  0  0  0  0  0  0
    9.7259   -5.3080   18.4485 C   0  0  0  0  0  0  0  0  0  0  0  0
    9.4578   -5.0200   16.3036 N   0  0  0  0  0  0  0  0  0  0  0  0
    5.0287   -8.9365   16.8223 C   0  0  0  0  0  0  0  0  0  0  0  0
    8.7742   -6.1498   16.6764 C   0  0  0  0  0  0  0  0  0  0  0  0
   10.9418   -3.4032   21.2053 O   0  0  0  0  0  0  0  0  0  0  0  0
    1.4797   -8.6258   16.2950 C   0  0  0  0  0  0  0  0  0  0  0  0
    9.2861   -1.2743   25.3585 C   0  0  0  0  0  0  0  0  0  0  0  0
    1.8892  -10.3985   17.7511 N   0  0  0  0  0  0  0  0  0  0  0  0
    9.6210   -0.6952   24.0976 C   0  0  0  0  0  0  0  0  0  0  0  0
    7.0792   -9.0217   17.1429 C   0  0  0  0  0  0  0  0  0  0  0  0
    3.1713  -10.1816   17.6634 C   0  0  0  0  0  0  0  0  0  0  0  0
    2.7878   -8.3822   16.2137 C   0  0  0  0  0  0  0  0  0  0  0  0
    9.4601   -2.6590   25.6528 C   0  0  0  0  0  0  0  0  0  0  0  0
   10.1182   -1.5672   23.1165 C   0  0  0  0  0  0  0  0  0  0  0  0
    1.0552   -9.6360   17.0650 C   0  0  0  0  0  0  0  0  0  0  0  0
    3.6519   -9.1783   16.9039 C   0  0  0  0  0  0  0  0  0  0  0  0
    7.8675   -7.0096   15.9415 C   0  0  0  0  0  0  0  0  0  0  0  0
    5.9733   -9.6553   17.3832 N   0  0  0  0  0  0  0  0  0  0  0  0
   10.2411   -2.9363   23.4301 C   0  0  0  0  0  0  0  0  0  0  0  0
   10.7288   -3.8197   19.9525 C   0  0  0  0  0  0  0  0  0  0  0  0
   10.1189   -5.0054   19.6987 C   0  0  0  0  0  0  0  0  0  0  0  0
  1  3  4  0
  1  7  4  0
  2 21  4  0
  2 27  4  0
  3  9  4  0
  3 10  4  0
  4  8  4  0
  4 18  4  0
  4 25  1  0
  5  9  4  0
  5 12  4  0
  6 13  1  0
  6 27  1  0
  7 28  4  0
  8 11  4  0
  9 29  4  0
 10 12  4  0
 11 24  1  0
 11 26  4  0
 12 25  1  0
 13 28  1  0
 14 20  4  0
 14 23  4  0
 15 17  4  0
 15 21  4  0
 16 19  4  0
 16 23  4  0
 17 22  4  0
 18 26  4  0
 19 24  4  0
 20 24  4  0
 22 27  4  0
 28 29  4  0
M  END
$$$$

 Created by Python create_sdf_string function

 29 33  0  0  0  0  0  0  0  0999 V2000
   10.7215   -3.3326   17.6437 C   0  0  0  0  0  0  0  0  0  0  0  0
    9.9489   -3.4675   24.6487 N   0  0  0  0  0  0  0  0  0  0  0  0
   10.0172   -4.4740   17.4101 C   0  0  0  0  0  0  0  0  0  0  0  0
    6.9051   -7.9575   16.4222 C   0  0  0  0  0  0  0  0  0  0  0  0
    8.9969   -6.3552   17.9668 N   0  0  0  0  0  0  0  0  0  0  0  0
   10.6702   -3.9051   22.4070 C   0  0  0  0  0  0  0  0  0  0  0  0
   11.0625   -3.0028   18.8894 C   0  0  0  0  0  0  0  0  0  0  0  0
    5.6180   -7.9194   16.1754 O   0  0  0  0  0  0  0  0  0  0  0  0
    9.7259   -5.3080   18.4485 C   0  0  0  0  0  0  0  0  0  0  0  0
    9.4578   -5.0200   16.3036 N   0  0  0  0  0  0  0  0  0  0  0  0
    5.0287   -8.9365   16.8223 C   0  0  0  0  0  0  0  0  0  0  0  0
    8.7742   -6.1498   16.6764 C   0  0  0  0  0  0  0  0  0  0  0  0
   10.9418   -3.4032   21.2053 O   0  0  0  0  0  0  0  0  0  0  0  0
    1.4797   -8.6258   16.2950 C   0  0  0  0  0  0  0  0  0  0  0  0
    9.2861   -1.2743   25.3585 C   0  0  0  0  0  0  0  0  0  0  0  0
    1.8892  -10.3985   17.7511 N   0  0  0  0  0  0  0  0  0  0  0  0
    9.6210   -0.6952   24.0976 C   0  0  0  0  0  0  0  0  0  0  0  0
    7.0792   -9.0217   17.1429 C   0  0  0  0  0  0  0  0  0  0  0  0
    3.1713  -10.1816   17.6634 C   0  0  0  0  0  0  0  0  0  0  0  0
    2.7878   -8.3822   16.2137 C   0  0  0  0  0  0  0  0  0  0  0  0
    9.4601   -2.6590   25.6528 C   0  0  0  0  0  0  0  0  0  0  0  0
   10.1182   -1.5672   23.1165 C   0  0  0  0  0  0  0  0  0  0  0  0
    1.0552   -9.6360   17.0650 C   0  0  0  0  0  0  0  0  0  0  0  0
    3.6519   -9.1783   16.9039 C   0  0  0  0  0  0  0  0  0  0  0  0
    7.8675   -7.0096   15.9415 C   0  0  0  0  0  0  0  0  0  0  0  0
    5.9733   -9.6553   17.3832 N   0  0  0  0  0  0  0  0  0  0  0  0
   10.2411   -2.9363   23.4301 C   0  0  0  0  0  0  0  0  0  0  0  0
   10.7288   -3.8197   19.9525 C   0  0  0  0  0  0  0  0  0  0  0  0
   10.1189   -5.0054   19.6987 C   0  0  0  0  0  0  0  0  0  0  0  0
  1  3  4  0
  1  7  4  0
  2 21  4  0
  2 27  4  0
  3  9  4  0
  3 10  4  0
  4  8  4  0
  4 18  4  0
  4 25  1  0
  5  9  4  0
  5 12  4  0
  6 13  1  0
  6 27  1  0
  7 28  4  0
  8 11  4  0
  9 29  4  0
 10 12  4  0
 11 24  1  0
 11 26  4  0
 12 25  1  0
 13 28  1  0
 14 20  4  0
 14 23  4  0
 15 17  4  0
 15 21  4  0
 16 19  4  0
 16 23  4  0
 17 22  4  0
 18 26  4  0
 19 24  4  0
 20 24  4  0
 22 27  4  0
 28 29  4  0
M  END
$$$$

 Created by Python create_sdf_string function

 29 33  0  0  0  0  0  0  0  0999 V2000
   10.7215   -3.3326   17.6437 C   0  0  0  0  0  0  0  0  0  0  0  0
    9.9489   -3.4675   24.6487 N   0  0  0  0  0  0  0  0  0  0  0  0
   10.0172   -4.4740   17.4101 C   0  0  0  0  0  0  0  0  0  0  0  0
    6.9051   -7.9575   16.4222 C   0  0  0  0  0  0  0  0  0  0  0  0
    8.9969   -6.3552   17.9668 N   0  0  0  0  0  0  0  0  0  0  0  0
   10.6702   -3.9051   22.4070 C   0  0  0  0  0  0  0  0  0  0  0  0
   11.0625   -3.0028   18.8894 C   0  0  0  0  0  0  0  0  0  0  0  0
    5.6180   -7.9194   16.1754 O   0  0  0  0  0  0  0  0  0  0  0  0
    9.7259   -5.3080   18.4485 C   0  0  0  0  0  0  0  0  0  0  0  0
    9.4578   -5.0200   16.3036 N   0  0  0  0  0  0  0  0  0  0  0  0
    5.0287   -8.9365   16.8223 C   0  0  0  0  0  0  0  0  0  0  0  0
    8.7742   -6.1498   16.6764 C   0  0  0  0  0  0  0  0  0  0  0  0
   10.9418   -3.4032   21.2053 O   0  0  0  0  0  0  0  0  0  0  0  0
    1.4797   -8.6258   16.2950 C   0  0  0  0  0  0  0  0  0  0  0  0
    9.2861   -1.2743   25.3585 C   0  0  0  0  0  0  0  0  0  0  0  0
    1.8892  -10.3985   17.7511 N   0  0  0  0  0  0  0  0  0  0  0  0
    9.6210   -0.6952   24.0976 C   0  0  0  0  0  0  0  0  0  0  0  0
    7.0792   -9.0217   17.1429 C   0  0  0  0  0  0  0  0  0  0  0  0
    3.1713  -10.1816   17.6634 C   0  0  0  0  0  0  0  0  0  0  0  0
    2.7878   -8.3822   16.2137 C   0  0  0  0  0  0  0  0  0  0  0  0
    9.4601   -2.6590   25.6528 C   0  0  0  0  0  0  0  0  0  0  0  0
   10.1182   -1.5672   23.1165 C   0  0  0  0  0  0  0  0  0  0  0  0
    1.0552   -9.6360   17.0650 C   0  0  0  0  0  0  0  0  0  0  0  0
    3.6519   -9.1783   16.9039 C   0  0  0  0  0  0  0  0  0  0  0  0
    7.8675   -7.0096   15.9415 C   0  0  0  0  0  0  0  0  0  0  0  0
    5.9733   -9.6553   17.3832 N   0  0  0  0  0  0  0  0  0  0  0  0
   10.2411   -2.9363   23.4301 C   0  0  0  0  0  0  0  0  0  0  0  0
   10.7288   -3.8197   19.9525 C   0  0  0  0  0  0  0  0  0  0  0  0
   10.1189   -5.0054   19.6987 C   0  0  0  0  0  0  0  0  0  0  0  0
  1  3  4  0
  1  7  4  0
  2 21  4  0
  2 27  4  0
  3  9  4  0
  3 10  4  0
  4  8  4  0
  4 18  4  0
  4 25  1  0
  5  9  4  0
  5 12  4  0
  6 13  1  0
  6 27  1  0
  7 28  4  0
  8 11  4  0
  9 29  4  0
 10 12  4  0
 11 24  1  0
 11 26  4  0
 12 25  1  0
 13 28  1  0
 14 20  4  0
 14 23  4  0
 15 17  4  0
 15 21  4  0
 16 19  4  0
 16 23  4  0
 17 22  4  0
 18 26  4  0
 19 24  4  0
 20 24  4  0
 22 27  4  0
 28 29  4  0
M  END
$$$$

 Created by Python create_sdf_string function

 29 33  0  0  0  0  0  0  0  0999 V2000
   10.7215   -3.3326   17.6437 C   0  0  0  0  0  0  0  0  0  0  0  0
    9.9489   -3.4675   24.6487 N   0  0  0  0  0  0  0  0  0  0  0  0
   10.0172   -4.4740   17.4101 C   0  0  0  0  0  0  0  0  0  0  0  0
    6.9051   -7.9575   16.4222 C   0  0  0  0  0  0  0  0  0  0  0  0
    8.9969   -6.3552   17.9668 N   0  0  0  0  0  0  0  0  0  0  0  0
   10.6702   -3.9051   22.4070 C   0  0  0  0  0  0  0  0  0  0  0  0
   11.0625   -3.0028   18.8894 C   0  0  0  0  0  0  0  0  0  0  0  0
    5.6180   -7.9194   16.1754 O   0  0  0  0  0  0  0  0  0  0  0  0
    9.7259   -5.3080   18.4485 C   0  0  0  0  0  0  0  0  0  0  0  0
    9.4578   -5.0200   16.3036 N   0  0  0  0  0  0  0  0  0  0  0  0
    5.0287   -8.9365   16.8223 C   0  0  0  0  0  0  0  0  0  0  0  0
    8.7742   -6.1498   16.6764 C   0  0  0  0  0  0  0  0  0  0  0  0
   10.9418   -3.4032   21.2053 O   0  0  0  0  0  0  0  0  0  0  0  0
    1.4797   -8.6258   16.2950 C   0  0  0  0  0  0  0  0  0  0  0  0
    9.2861   -1.2743   25.3585 C   0  0  0  0  0  0  0  0  0  0  0  0
    1.8892  -10.3985   17.7511 N   0  0  0  0  0  0  0  0  0  0  0  0
    9.6210   -0.6952   24.0976 C   0  0  0  0  0  0  0  0  0  0  0  0
    7.0792   -9.0217   17.1429 C   0  0  0  0  0  0  0  0  0  0  0  0
    3.1713  -10.1816   17.6634 C   0  0  0  0  0  0  0  0  0  0  0  0
    2.7878   -8.3822   16.2137 C   0  0  0  0  0  0  0  0  0  0  0  0
    9.4601   -2.6590   25.6528 C   0  0  0  0  0  0  0  0  0  0  0  0
   10.1182   -1.5672   23.1165 C   0  0  0  0  0  0  0  0  0  0  0  0
    1.0552   -9.6360   17.0650 C   0  0  0  0  0  0  0  0  0  0  0  0
    3.6519   -9.1783   16.9039 C   0  0  0  0  0  0  0  0  0  0  0  0
    7.8675   -7.0096   15.9415 C   0  0  0  0  0  0  0  0  0  0  0  0
    5.9733   -9.6553   17.3832 N   0  0  0  0  0  0  0  0  0  0  0  0
   10.2411   -2.9363   23.4301 C   0  0  0  0  0  0  0  0  0  0  0  0
   10.7288   -3.8197   19.9525 C   0  0  0  0  0  0  0  0  0  0  0  0
   10.1189   -5.0054   19.6987 C   0  0  0  0  0  0  0  0  0  0  0  0
  1  3  4  0
  1  7  4  0
  2 21  4  0
  2 27  4  0
  3  9  4  0
  3 10  4  0
  4  8  4  0
  4 18  4  0
  4 25  1  0
  5  9  4  0
  5 12  4  0
  6 13  1  0
  6 27  1  0
  7 28  4  0
  8 11  4  0
  9 29  4  0
 10 12  4  0
 11 24  1  0
 11 26  4  0
 12 25  1  0
 13 28  1  0
 14 20  4  0
 14 23  4  0
 15 17  4  0
 15 21  4  0
 16 19  4  0
 16 23  4  0
 17 22  4  0
 18 26  4  0
 19 24  4  0
 20 24  4  0
 22 27  4  0
 28 29  4  0
M  END
$$$$

 Created by Python create_sdf_string function

 29 33  0  0  0  0  0  0  0  0999 V2000
   10.7215   -3.3326   17.6437 C   0  0  0  0  0  0  0  0  0  0  0  0
    9.9489   -3.4675   24.6487 N   0  0  0  0  0  0  0  0  0  0  0  0
   10.0172   -4.4740   17.4101 C   0  0  0  0  0  0  0  0  0  0  0  0
    6.9051   -7.9575   16.4222 C   0  0  0  0  0  0  0  0  0  0  0  0
    8.9969   -6.3552   17.9668 N   0  0  0  0  0  0  0  0  0  0  0  0
   10.6702   -3.9051   22.4070 C   0  0  0  0  0  0  0  0  0  0  0  0
   11.0625   -3.0028   18.8894 C   0  0  0  0  0  0  0  0  0  0  0  0
    5.6180   -7.9194   16.1754 O   0  0  0  0  0  0  0  0  0  0  0  0
    9.7259   -5.3080   18.4485 C   0  0  0  0  0  0  0  0  0  0  0  0
    9.4578   -5.0200   16.3036 N   0  0  0  0  0  0  0  0  0  0  0  0
    5.0287   -8.9365   16.8223 C   0  0  0  0  0  0  0  0  0  0  0  0
    8.7742   -6.1498   16.6764 C   0  0  0  0  0  0  0  0  0  0  0  0
   10.9418   -3.4032   21.2053 O   0  0  0  0  0  0  0  0  0  0  0  0
    1.4797   -8.6258   16.2950 C   0  0  0  0  0  0  0  0  0  0  0  0
    9.2861   -1.2743   25.3585 C   0  0  0  0  0  0  0  0  0  0  0  0
    1.8892  -10.3985   17.7511 N   0  0  0  0  0  0  0  0  0  0  0  0
    9.6210   -0.6952   24.0976 C   0  0  0  0  0  0  0  0  0  0  0  0
    7.0792   -9.0217   17.1429 C   0  0  0  0  0  0  0  0  0  0  0  0
    3.1713  -10.1816   17.6634 C   0  0  0  0  0  0  0  0  0  0  0  0
    2.7878   -8.3822   16.2137 C   0  0  0  0  0  0  0  0  0  0  0  0
    9.4601   -2.6590   25.6528 C   0  0  0  0  0  0  0  0  0  0  0  0
   10.1182   -1.5672   23.1165 C   0  0  0  0  0  0  0  0  0  0  0  0
    1.0552   -9.6360   17.0650 C   0  0  0  0  0  0  0  0  0  0  0  0
    3.6519   -9.1783   16.9039 C   0  0  0  0  0  0  0  0  0  0  0  0
    7.8675   -7.0096   15.9415 C   0  0  0  0  0  0  0  0  0  0  0  0
    5.9733   -9.6553   17.3832 N   0  0  0  0  0  0  0  0  0  0  0  0
   10.2411   -2.9363   23.4301 C   0  0  0  0  0  0  0  0  0  0  0  0
   10.7288   -3.8197   19.9525 C   0  0  0  0  0  0  0  0  0  0  0  0
   10.1189   -5.0054   19.6987 C   0  0  0  0  0  0  0  0  0  0  0  0
  1  3  4  0
  1  7  4  0
  2 21  4  0
  2 27  4  0
  3  9  4  0
  3 10  4  0
  4  8  4  0
  4 18  4  0
  4 25  1  0
  5  9  4  0
  5 12  4  0
  6 13  1  0
  6 27  1  0
  7 28  4  0
  8 11  4  0
  9 29  4  0
 10 12  4  0
 11 24  1  0
 11 26  4  0
 12 25  1  0
 13 28  1  0
 14 20  4  0
 14 23  4  0
 15 17  4  0
 15 21  4  0
 16 19  4  0
 16 23  4  0
 17 22  4  0
 18 26  4  0
 19 24  4  0
 20 24  4  0
 22 27  4  0
 28 29  4  0
M  END
$$$$

 Created by Python create_sdf_string function

 29 33  0  0  0  0  0  0  0  0999 V2000
   10.7215   -3.3326   17.6437 C   0  0  0  0  0  0  0  0  0  0  0  0
    9.9489   -3.4675   24.6487 N   0  0  0  0  0  0  0  0  0  0  0  0
   10.0172   -4.4740   17.4101 C   0  0  0  0  0  0  0  0  0  0  0  0
    6.9051   -7.9575   16.4222 C   0  0  0  0  0  0  0  0  0  0  0  0
    8.9969   -6.3552   17.9668 N   0  0  0  0  0  0  0  0  0  0  0  0
   10.6702   -3.9051   22.4070 C   0  0  0  0  0  0  0  0  0  0  0  0
   11.0625   -3.0028   18.8894 C   0  0  0  0  0  0  0  0  0  0  0  0
    5.6180   -7.9194   16.1754 O   0  0  0  0  0  0  0  0  0  0  0  0
    9.7259   -5.3080   18.4485 C   0  0  0  0  0  0  0  0  0  0  0  0
    9.4578   -5.0200   16.3036 N   0  0  0  0  0  0  0  0  0  0  0  0
    5.0287   -8.9365   16.8223 C   0  0  0  0  0  0  0  0  0  0  0  0
    8.7742   -6.1498   16.6764 C   0  0  0  0  0  0  0  0  0  0  0  0
   10.9418   -3.4032   21.2053 O   0  0  0  0  0  0  0  0  0  0  0  0
    1.4797   -8.6258   16.2950 C   0  0  0  0  0  0  0  0  0  0  0  0
    9.2861   -1.2743   25.3585 C   0  0  0  0  0  0  0  0  0  0  0  0
    1.8892  -10.3985   17.7511 N   0  0  0  0  0  0  0  0  0  0  0  0
    9.6210   -0.6952   24.0976 C   0  0  0  0  0  0  0  0  0  0  0  0
    7.0792   -9.0217   17.1429 C   0  0  0  0  0  0  0  0  0  0  0  0
    3.1713  -10.1816   17.6634 C   0  0  0  0  0  0  0  0  0  0  0  0
    2.7878   -8.3822   16.2137 C   0  0  0  0  0  0  0  0  0  0  0  0
    9.4601   -2.6590   25.6528 C   0  0  0  0  0  0  0  0  0  0  0  0
   10.1182   -1.5672   23.1165 C   0  0  0  0  0  0  0  0  0  0  0  0
    1.0552   -9.6360   17.0650 C   0  0  0  0  0  0  0  0  0  0  0  0
    3.6519   -9.1783   16.9039 C   0  0  0  0  0  0  0  0  0  0  0  0
    7.8675   -7.0096   15.9415 C   0  0  0  0  0  0  0  0  0  0  0  0
    5.9733   -9.6553   17.3832 N   0  0  0  0  0  0  0  0  0  0  0  0
   10.2411   -2.9363   23.4301 C   0  0  0  0  0  0  0  0  0  0  0  0
   10.7288   -3.8197   19.9525 C   0  0  0  0  0  0  0  0  0  0  0  0
   10.1189   -5.0054   19.6987 C   0  0  0  0  0  0  0  0  0  0  0  0
  1  3  4  0
  1  7  4  0
  2 21  4  0
  2 27  4  0
  3  9  4  0
  3 10  4  0
  4  8  4  0
  4 18  4  0
  4 25  1  0
  5  9  4  0
  5 12  4  0
  6 13  1  0
  6 27  1  0
  7 28  4  0
  8 11  4  0
  9 29  4  0
 10 12  4  0
 11 24  1  0
 11 26  4  0
 12 25  1  0
 13 28  1  0
 14 20  4  0
 14 23  4  0
 15 17  4  0
 15 21  4  0
 16 19  4  0
 16 23  4  0
 17 22  4  0
 18 26  4  0
 19 24  4  0
 20 24  4  0
 22 27  4  0
 28 29  4  0
M  END
$$$$

 Created by Python create_sdf_string function

 29 33  0  0  0  0  0  0  0  0999 V2000
   10.7215   -3.3326   17.6437 C   0  0  0  0  0  0  0  0  0  0  0  0
    9.9489   -3.4675   24.6487 N   0  0  0  0  0  0  0  0  0  0  0  0
   10.0172   -4.4740   17.4101 C   0  0  0  0  0  0  0  0  0  0  0  0
    6.9051   -7.9575   16.4222 C   0  0  0  0  0  0  0  0  0  0  0  0
    8.9969   -6.3552   17.9668 N   0  0  0  0  0  0  0  0  0  0  0  0
   10.6702   -3.9051   22.4070 C   0  0  0  0  0  0  0  0  0  0  0  0
   11.0625   -3.0028   18.8894 C   0  0  0  0  0  0  0  0  0  0  0  0
    5.6180   -7.9194   16.1754 O   0  0  0  0  0  0  0  0  0  0  0  0
    9.7259   -5.3080   18.4485 C   0  0  0  0  0  0  0  0  0  0  0  0
    9.4578   -5.0200   16.3036 N   0  0  0  0  0  0  0  0  0  0  0  0
    5.0287   -8.9365   16.8223 C   0  0  0  0  0  0  0  0  0  0  0  0
    8.7742   -6.1498   16.6764 C   0  0  0  0  0  0  0  0  0  0  0  0
   10.9418   -3.4032   21.2053 O   0  0  0  0  0  0  0  0  0  0  0  0
    1.4797   -8.6258   16.2950 C   0  0  0  0  0  0  0  0  0  0  0  0
    9.2861   -1.2743   25.3585 C   0  0  0  0  0  0  0  0  0  0  0  0
    1.8892  -10.3985   17.7511 N   0  0  0  0  0  0  0  0  0  0  0  0
    9.6210   -0.6952   24.0976 C   0  0  0  0  0  0  0  0  0  0  0  0
    7.0792   -9.0217   17.1429 C   0  0  0  0  0  0  0  0  0  0  0  0
    3.1713  -10.1816   17.6634 C   0  0  0  0  0  0  0  0  0  0  0  0
    2.7878   -8.3822   16.2137 C   0  0  0  0  0  0  0  0  0  0  0  0
    9.4601   -2.6590   25.6528 C   0  0  0  0  0  0  0  0  0  0  0  0
   10.1182   -1.5672   23.1165 C   0  0  0  0  0  0  0  0  0  0  0  0
    1.0552   -9.6360   17.0650 C   0  0  0  0  0  0  0  0  0  0  0  0
    3.6519   -9.1783   16.9039 C   0  0  0  0  0  0  0  0  0  0  0  0
    7.8675   -7.0096   15.9415 C   0  0  0  0  0  0  0  0  0  0  0  0
    5.9733   -9.6553   17.3832 N   0  0  0  0  0  0  0  0  0  0  0  0
   10.2411   -2.9363   23.4301 C   0  0  0  0  0  0  0  0  0  0  0  0
   10.7288   -3.8197   19.9525 C   0  0  0  0  0  0  0  0  0  0  0  0
   10.1189   -5.0054   19.6987 C   0  0  0  0  0  0  0  0  0  0  0  0
  1  3  4  0
  1  7  4  0
  2 21  4  0
  2 27  4  0
  3  9  4  0
  3 10  4  0
  4  8  4  0
  4 18  4  0
  4 25  1  0
  5  9  4  0
  5 12  4  0
  6 13  1  0
  6 27  1  0
  7 28  4  0
  8 11  4  0
  9 29  4  0
 10 12  4  0
 11 24  1  0
 11 26  4  0
 12 25  1  0
 13 28  1  0
 14 20  4  0
 14 23  4  0
 15 17  4  0
 15 21  4  0
 16 19  4  0
 16 23  4  0
 17 22  4  0
 18 26  4  0
 19 24  4  0
 20 24  4  0
 22 27  4  0
 28 29  4  0
M  END
$$$$

 Created by Python create_sdf_string function

 29 33  0  0  0  0  0  0  0  0999 V2000
   10.7215   -3.3326   17.6437 C   0  0  0  0  0  0  0  0  0  0  0  0
    9.9489   -3.4675   24.6487 N   0  0  0  0  0  0  0  0  0  0  0  0
   10.0172   -4.4740   17.4101 C   0  0  0  0  0  0  0  0  0  0  0  0
    6.9051   -7.9575   16.4222 C   0  0  0  0  0  0  0  0  0  0  0  0
    8.9969   -6.3552   17.9668 N   0  0  0  0  0  0  0  0  0  0  0  0
   10.6702   -3.9051   22.4070 C   0  0  0  0  0  0  0  0  0  0  0  0
   11.0625   -3.0028   18.8894 C   0  0  0  0  0  0  0  0  0  0  0  0
    5.6180   -7.9194   16.1754 O   0  0  0  0  0  0  0  0  0  0  0  0
    9.7259   -5.3080   18.4485 C   0  0  0  0  0  0  0  0  0  0  0  0
    9.4578   -5.0200   16.3036 N   0  0  0  0  0  0  0  0  0  0  0  0
    5.0287   -8.9365   16.8223 C   0  0  0  0  0  0  0  0  0  0  0  0
    8.7742   -6.1498   16.6764 C   0  0  0  0  0  0  0  0  0  0  0  0
   10.9418   -3.4032   21.2053 O   0  0  0  0  0  0  0  0  0  0  0  0
    1.4797   -8.6258   16.2950 C   0  0  0  0  0  0  0  0  0  0  0  0
    9.2861   -1.2743   25.3585 C   0  0  0  0  0  0  0  0  0  0  0  0
    1.8892  -10.3985   17.7511 N   0  0  0  0  0  0  0  0  0  0  0  0
    9.6210   -0.6952   24.0976 C   0  0  0  0  0  0  0  0  0  0  0  0
    7.0792   -9.0217   17.1429 C   0  0  0  0  0  0  0  0  0  0  0  0
    3.1713  -10.1816   17.6634 C   0  0  0  0  0  0  0  0  0  0  0  0
    2.7878   -8.3822   16.2137 C   0  0  0  0  0  0  0  0  0  0  0  0
    9.4601   -2.6590   25.6528 C   0  0  0  0  0  0  0  0  0  0  0  0
   10.1182   -1.5672   23.1165 C   0  0  0  0  0  0  0  0  0  0  0  0
    1.0552   -9.6360   17.0650 C   0  0  0  0  0  0  0  0  0  0  0  0
    3.6519   -9.1783   16.9039 C   0  0  0  0  0  0  0  0  0  0  0  0
    7.8675   -7.0096   15.9415 C   0  0  0  0  0  0  0  0  0  0  0  0
    5.9733   -9.6553   17.3832 N   0  0  0  0  0  0  0  0  0  0  0  0
   10.2411   -2.9363   23.4301 C   0  0  0  0  0  0  0  0  0  0  0  0
   10.7288   -3.8197   19.9525 C   0  0  0  0  0  0  0  0  0  0  0  0
   10.1189   -5.0054   19.6987 C   0  0  0  0  0  0  0  0  0  0  0  0
  1  3  4  0
  1  7  4  0
  2 21  4  0
  2 27  4  0
  3  9  4  0
  3 10  4  0
  4  8  4  0
  4 18  4  0
  4 25  1  0
  5  9  4  0
  5 12  4  0
  6 13  1  0
  6 27  1  0
  7 28  4  0
  8 11  4  0
  9 29  4  0
 10 12  4  0
 11 24  1  0
 11 26  4  0
 12 25  1  0
 13 28  1  0
 14 20  4  0
 14 23  4  0
 15 17  4  0
 15 21  4  0
 16 19  4  0
 16 23  4  0
 17 22  4  0
 18 26  4  0
 19 24  4  0
 20 24  4  0
 22 27  4  0
 28 29  4  0
M  END
$$$$

 Created by Python create_sdf_string function

 29 33  0  0  0  0  0  0  0  0999 V2000
   10.7215   -3.3326   17.6437 C   0  0  0  0  0  0  0  0  0  0  0  0
    9.9489   -3.4675   24.6487 N   0  0  0  0  0  0  0  0  0  0  0  0
   10.0172   -4.4740   17.4101 C   0  0  0  0  0  0  0  0  0  0  0  0
    6.9051   -7.9575   16.4222 C   0  0  0  0  0  0  0  0  0  0  0  0
    8.9969   -6.3552   17.9668 N   0  0  0  0  0  0  0  0  0  0  0  0
   10.6702   -3.9051   22.4070 C   0  0  0  0  0  0  0  0  0  0  0  0
   11.0625   -3.0028   18.8894 C   0  0  0  0  0  0  0  0  0  0  0  0
    5.6180   -7.9194   16.1754 O   0  0  0  0  0  0  0  0  0  0  0  0
    9.7259   -5.3080   18.4485 C   0  0  0  0  0  0  0  0  0  0  0  0
    9.4578   -5.0200   16.3036 N   0  0  0  0  0  0  0  0  0  0  0  0
    5.0287   -8.9365   16.8223 C   0  0  0  0  0  0  0  0  0  0  0  0
    8.7742   -6.1498   16.6764 C   0  0  0  0  0  0  0  0  0  0  0  0
   10.9418   -3.4032   21.2053 O   0  0  0  0  0  0  0  0  0  0  0  0
    1.4797   -8.6258   16.2950 C   0  0  0  0  0  0  0  0  0  0  0  0
    9.2861   -1.2743   25.3585 C   0  0  0  0  0  0  0  0  0  0  0  0
    1.8892  -10.3985   17.7511 N   0  0  0  0  0  0  0  0  0  0  0  0
    9.6210   -0.6952   24.0976 C   0  0  0  0  0  0  0  0  0  0  0  0
    7.0792   -9.0217   17.1429 C   0  0  0  0  0  0  0  0  0  0  0  0
    3.1713  -10.1816   17.6634 C   0  0  0  0  0  0  0  0  0  0  0  0
    2.7878   -8.3822   16.2137 C   0  0  0  0  0  0  0  0  0  0  0  0
    9.4601   -2.6590   25.6528 C   0  0  0  0  0  0  0  0  0  0  0  0
   10.1182   -1.5672   23.1165 C   0  0  0  0  0  0  0  0  0  0  0  0
    1.0552   -9.6360   17.0650 C   0  0  0  0  0  0  0  0  0  0  0  0
    3.6519   -9.1783   16.9039 C   0  0  0  0  0  0  0  0  0  0  0  0
    7.8675   -7.0096   15.9415 C   0  0  0  0  0  0  0  0  0  0  0  0
    5.9733   -9.6553   17.3832 N   0  0  0  0  0  0  0  0  0  0  0  0
   10.2411   -2.9363   23.4301 C   0  0  0  0  0  0  0  0  0  0  0  0
   10.7288   -3.8197   19.9525 C   0  0  0  0  0  0  0  0  0  0  0  0
   10.1189   -5.0054   19.6987 C   0  0  0  0  0  0  0  0  0  0  0  0
  1  3  4  0
  1  7  4  0
  2 21  4  0
  2 27  4  0
  3  9  4  0
  3 10  4  0
  4  8  4  0
  4 18  4  0
  4 25  1  0
  5  9  4  0
  5 12  4  0
  6 13  1  0
  6 27  1  0
  7 28  4  0
  8 11  4  0
  9 29  4  0
 10 12  4  0
 11 24  1  0
 11 26  4  0
 12 25  1  0
 13 28  1  0
 14 20  4  0
 14 23  4  0
 15 17  4  0
 15 21  4  0
 16 19  4  0
 16 23  4  0
 17 22  4  0
 18 26  4  0
 19 24  4  0
 20 24  4  0
 22 27  4  0
 28 29  4  0
M  END
$$$$

 Created by Python create_sdf_string function

 29 33  0  0  0  0  0  0  0  0999 V2000
   10.7215   -3.3326   17.6437 C   0  0  0  0  0  0  0  0  0  0  0  0
    9.9489   -3.4675   24.6487 N   0  0  0  0  0  0  0  0  0  0  0  0
   10.0172   -4.4740   17.4101 C   0  0  0  0  0  0  0  0  0  0  0  0
    6.9051   -7.9575   16.4222 C   0  0  0  0  0  0  0  0  0  0  0  0
    8.9969   -6.3552   17.9668 N   0  0  0  0  0  0  0  0  0  0  0  0
   10.6702   -3.9051   22.4070 C   0  0  0  0  0  0  0  0  0  0  0  0
   11.0625   -3.0028   18.8894 C   0  0  0  0  0  0  0  0  0  0  0  0
    5.6180   -7.9194   16.1754 O   0  0  0  0  0  0  0  0  0  0  0  0
    9.7259   -5.3080   18.4485 C   0  0  0  0  0  0  0  0  0  0  0  0
    9.4578   -5.0200   16.3036 N   0  0  0  0  0  0  0  0  0  0  0  0
    5.0287   -8.9365   16.8223 C   0  0  0  0  0  0  0  0  0  0  0  0
    8.7742   -6.1498   16.6764 C   0  0  0  0  0  0  0  0  0  0  0  0
   10.9418   -3.4032   21.2053 O   0  0  0  0  0  0  0  0  0  0  0  0
    1.4797   -8.6258   16.2950 C   0  0  0  0  0  0  0  0  0  0  0  0
    9.2861   -1.2743   25.3585 C   0  0  0  0  0  0  0  0  0  0  0  0
    1.8892  -10.3985   17.7511 N   0  0  0  0  0  0  0  0  0  0  0  0
    9.6210   -0.6952   24.0976 C   0  0  0  0  0  0  0  0  0  0  0  0
    7.0792   -9.0217   17.1429 C   0  0  0  0  0  0  0  0  0  0  0  0
    3.1713  -10.1816   17.6634 C   0  0  0  0  0  0  0  0  0  0  0  0
    2.7878   -8.3822   16.2137 C   0  0  0  0  0  0  0  0  0  0  0  0
    9.4601   -2.6590   25.6528 C   0  0  0  0  0  0  0  0  0  0  0  0
   10.1182   -1.5672   23.1165 C   0  0  0  0  0  0  0  0  0  0  0  0
    1.0552   -9.6360   17.0650 C   0  0  0  0  0  0  0  0  0  0  0  0
    3.6519   -9.1783   16.9039 C   0  0  0  0  0  0  0  0  0  0  0  0
    7.8675   -7.0096   15.9415 C   0  0  0  0  0  0  0  0  0  0  0  0
    5.9733   -9.6553   17.3832 N   0  0  0  0  0  0  0  0  0  0  0  0
   10.2411   -2.9363   23.4301 C   0  0  0  0  0  0  0  0  0  0  0  0
   10.7288   -3.8197   19.9525 C   0  0  0  0  0  0  0  0  0  0  0  0
   10.1189   -5.0054   19.6987 C   0  0  0  0  0  0  0  0  0  0  0  0
  1  3  4  0
  1  7  4  0
  2 21  4  0
  2 27  4  0
  3  9  4  0
  3 10  4  0
  4  8  4  0
  4 18  4  0
  4 25  1  0
  5  9  4  0
  5 12  4  0
  6 13  1  0
  6 27  1  0
  7 28  4  0
  8 11  4  0
  9 29  4  0
 10 12  4  0
 11 24  1  0
 11 26  4  0
 12 25  1  0
 13 28  1  0
 14 20  4  0
 14 23  4  0
 15 17  4  0
 15 21  4  0
 16 19  4  0
 16 23  4  0
 17 22  4  0
 18 26  4  0
 19 24  4  0
 20 24  4  0
 22 27  4  0
 28 29  4  0
M  END
$$$$

 Created by Python create_sdf_string function

 29 33  0  0  0  0  0  0  0  0999 V2000
   10.7215   -3.3326   17.6437 C   0  0  0  0  0  0  0  0  0  0  0  0
    9.9489   -3.4675   24.6487 N   0  0  0  0  0  0  0  0  0  0  0  0
   10.0172   -4.4740   17.4101 C   0  0  0  0  0  0  0  0  0  0  0  0
    6.9051   -7.9575   16.4222 C   0  0  0  0  0  0  0  0  0  0  0  0
    8.9969   -6.3552   17.9668 N   0  0  0  0  0  0  0  0  0  0  0  0
   10.6702   -3.9051   22.4070 C   0  0  0  0  0  0  0  0  0  0  0  0
   11.0625   -3.0028   18.8894 C   0  0  0  0  0  0  0  0  0  0  0  0
    5.6180   -7.9194   16.1754 O   0  0  0  0  0  0  0  0  0  0  0  0
    9.7259   -5.3080   18.4485 C   0  0  0  0  0  0  0  0  0  0  0  0
    9.4578   -5.0200   16.3036 N   0  0  0  0  0  0  0  0  0  0  0  0
    5.0287   -8.9365   16.8223 C   0  0  0  0  0  0  0  0  0  0  0  0
    8.7742   -6.1498   16.6764 C   0  0  0  0  0  0  0  0  0  0  0  0
   10.9418   -3.4032   21.2053 O   0  0  0  0  0  0  0  0  0  0  0  0
    1.4797   -8.6258   16.2950 C   0  0  0  0  0  0  0  0  0  0  0  0
    9.2861   -1.2743   25.3585 C   0  0  0  0  0  0  0  0  0  0  0  0
    1.8892  -10.3985   17.7511 N   0  0  0  0  0  0  0  0  0  0  0  0
    9.6210   -0.6952   24.0976 C   0  0  0  0  0  0  0  0  0  0  0  0
    7.0792   -9.0217   17.1429 C   0  0  0  0  0  0  0  0  0  0  0  0
    3.1713  -10.1816   17.6634 C   0  0  0  0  0  0  0  0  0  0  0  0
    2.7878   -8.3822   16.2137 C   0  0  0  0  0  0  0  0  0  0  0  0
    9.4601   -2.6590   25.6528 C   0  0  0  0  0  0  0  0  0  0  0  0
   10.1182   -1.5672   23.1165 C   0  0  0  0  0  0  0  0  0  0  0  0
    1.0552   -9.6360   17.0650 C   0  0  0  0  0  0  0  0  0  0  0  0
    3.6519   -9.1783   16.9039 C   0  0  0  0  0  0  0  0  0  0  0  0
    7.8675   -7.0096   15.9415 C   0  0  0  0  0  0  0  0  0  0  0  0
    5.9733   -9.6553   17.3832 N   0  0  0  0  0  0  0  0  0  0  0  0
   10.2411   -2.9363   23.4301 C   0  0  0  0  0  0  0  0  0  0  0  0
   10.7288   -3.8197   19.9525 C   0  0  0  0  0  0  0  0  0  0  0  0
   10.1189   -5.0054   19.6987 C   0  0  0  0  0  0  0  0  0  0  0  0
  1  3  4  0
  1  7  4  0
  2 21  4  0
  2 27  4  0
  3  9  4  0
  3 10  4  0
  4  8  4  0
  4 18  4  0
  4 25  1  0
  5  9  4  0
  5 12  4  0
  6 13  1  0
  6 27  1  0
  7 28  4  0
  8 11  4  0
  9 29  4  0
 10 12  4  0
 11 24  1  0
 11 26  4  0
 12 25  1  0
 13 28  1  0
 14 20  4  0
 14 23  4  0
 15 17  4  0
 15 21  4  0
 16 19  4  0
 16 23  4  0
 17 22  4  0
 18 26  4  0
 19 24  4  0
 20 24  4  0
 22 27  4  0
 28 29  4  0
M  END
$$$$

 Created by Python create_sdf_string function

 29 33  0  0  0  0  0  0  0  0999 V2000
   10.7215   -3.3326   17.6437 C   0  0  0  0  0  0  0  0  0  0  0  0
    9.9489   -3.4675   24.6487 N   0  0  0  0  0  0  0  0  0  0  0  0
   10.0172   -4.4740   17.4101 C   0  0  0  0  0  0  0  0  0  0  0  0
    6.9051   -7.9575   16.4222 C   0  0  0  0  0  0  0  0  0  0  0  0
    8.9969   -6.3552   17.9668 N   0  0  0  0  0  0  0  0  0  0  0  0
   10.6702   -3.9051   22.4070 C   0  0  0  0  0  0  0  0  0  0  0  0
   11.0625   -3.0028   18.8894 C   0  0  0  0  0  0  0  0  0  0  0  0
    5.6180   -7.9194   16.1754 O   0  0  0  0  0  0  0  0  0  0  0  0
    9.7259   -5.3080   18.4485 C   0  0  0  0  0  0  0  0  0  0  0  0
    9.4578   -5.0200   16.3036 N   0  0  0  0  0  0  0  0  0  0  0  0
    5.0287   -8.9365   16.8223 C   0  0  0  0  0  0  0  0  0  0  0  0
    8.7742   -6.1498   16.6764 C   0  0  0  0  0  0  0  0  0  0  0  0
   10.9418   -3.4032   21.2053 O   0  0  0  0  0  0  0  0  0  0  0  0
    1.4797   -8.6258   16.2950 C   0  0  0  0  0  0  0  0  0  0  0  0
    9.2861   -1.2743   25.3585 C   0  0  0  0  0  0  0  0  0  0  0  0
    1.8892  -10.3985   17.7511 N   0  0  0  0  0  0  0  0  0  0  0  0
    9.6210   -0.6952   24.0976 C   0  0  0  0  0  0  0  0  0  0  0  0
    7.0792   -9.0217   17.1429 C   0  0  0  0  0  0  0  0  0  0  0  0
    3.1713  -10.1816   17.6634 C   0  0  0  0  0  0  0  0  0  0  0  0
    2.7878   -8.3822   16.2137 C   0  0  0  0  0  0  0  0  0  0  0  0
    9.4601   -2.6590   25.6528 C   0  0  0  0  0  0  0  0  0  0  0  0
   10.1182   -1.5672   23.1165 C   0  0  0  0  0  0  0  0  0  0  0  0
    1.0552   -9.6360   17.0650 C   0  0  0  0  0  0  0  0  0  0  0  0
    3.6519   -9.1783   16.9039 C   0  0  0  0  0  0  0  0  0  0  0  0
    7.8675   -7.0096   15.9415 C   0  0  0  0  0  0  0  0  0  0  0  0
    5.9733   -9.6553   17.3832 N   0  0  0  0  0  0  0  0  0  0  0  0
   10.2411   -2.9363   23.4301 C   0  0  0  0  0  0  0  0  0  0  0  0
   10.7288   -3.8197   19.9525 C   0  0  0  0  0  0  0  0  0  0  0  0
   10.1189   -5.0054   19.6987 C   0  0  0  0  0  0  0  0  0  0  0  0
  1  3  4  0
  1  7  4  0
  2 21  4  0
  2 27  4  0
  3  9  4  0
  3 10  4  0
  4  8  4  0
  4 18  4  0
  4 25  1  0
  5  9  4  0
  5 12  4  0
  6 13  1  0
  6 27  1  0
  7 28  4  0
  8 11  4  0
  9 29  4  0
 10 12  4  0
 11 24  1  0
 11 26  4  0
 12 25  1  0
 13 28  1  0
 14 20  4  0
 14 23  4  0
 15 17  4  0
 15 21  4  0
 16 19  4  0
 16 23  4  0
 17 22  4  0
 18 26  4  0
 19 24  4  0
 20 24  4  0
 22 27  4  0
 28 29  4  0
M  END
$$$$

 Created by Python create_sdf_string function

 29 33  0  0  0  0  0  0  0  0999 V2000
   10.7215   -3.3326   17.6437 C   0  0  0  0  0  0  0  0  0  0  0  0
    9.9489   -3.4675   24.6487 N   0  0  0  0  0  0  0  0  0  0  0  0
   10.0172   -4.4740   17.4101 C   0  0  0  0  0  0  0  0  0  0  0  0
    6.9051   -7.9575   16.4222 C   0  0  0  0  0  0  0  0  0  0  0  0
    8.9969   -6.3552   17.9668 N   0  0  0  0  0  0  0  0  0  0  0  0
   10.6702   -3.9051   22.4070 C   0  0  0  0  0  0  0  0  0  0  0  0
   11.0625   -3.0028   18.8894 C   0  0  0  0  0  0  0  0  0  0  0  0
    5.6180   -7.9194   16.1754 O   0  0  0  0  0  0  0  0  0  0  0  0
    9.7259   -5.3080   18.4485 C   0  0  0  0  0  0  0  0  0  0  0  0
    9.4578   -5.0200   16.3036 N   0  0  0  0  0  0  0  0  0  0  0  0
    5.0287   -8.9365   16.8223 C   0  0  0  0  0  0  0  0  0  0  0  0
    8.7742   -6.1498   16.6764 C   0  0  0  0  0  0  0  0  0  0  0  0
   10.9418   -3.4032   21.2053 O   0  0  0  0  0  0  0  0  0  0  0  0
    1.4797   -8.6258   16.2950 C   0  0  0  0  0  0  0  0  0  0  0  0
    9.2861   -1.2743   25.3585 C   0  0  0  0  0  0  0  0  0  0  0  0
    1.8892  -10.3985   17.7511 N   0  0  0  0  0  0  0  0  0  0  0  0
    9.6210   -0.6952   24.0976 C   0  0  0  0  0  0  0  0  0  0  0  0
    7.0792   -9.0217   17.1429 C   0  0  0  0  0  0  0  0  0  0  0  0
    3.1713  -10.1816   17.6634 C   0  0  0  0  0  0  0  0  0  0  0  0
    2.7878   -8.3822   16.2137 C   0  0  0  0  0  0  0  0  0  0  0  0
    9.4601   -2.6590   25.6528 C   0  0  0  0  0  0  0  0  0  0  0  0
   10.1182   -1.5672   23.1165 C   0  0  0  0  0  0  0  0  0  0  0  0
    1.0552   -9.6360   17.0650 C   0  0  0  0  0  0  0  0  0  0  0  0
    3.6519   -9.1783   16.9039 C   0  0  0  0  0  0  0  0  0  0  0  0
    7.8675   -7.0096   15.9415 C   0  0  0  0  0  0  0  0  0  0  0  0
    5.9733   -9.6553   17.3832 N   0  0  0  0  0  0  0  0  0  0  0  0
   10.2411   -2.9363   23.4301 C   0  0  0  0  0  0  0  0  0  0  0  0
   10.7288   -3.8197   19.9525 C   0  0  0  0  0  0  0  0  0  0  0  0
   10.1189   -5.0054   19.6987 C   0  0  0  0  0  0  0  0  0  0  0  0
  1  3  4  0
  1  7  4  0
  2 21  4  0
  2 27  4  0
  3  9  4  0
  3 10  4  0
  4  8  4  0
  4 18  4  0
  4 25  1  0
  5  9  4  0
  5 12  4  0
  6 13  1  0
  6 27  1  0
  7 28  4  0
  8 11  4  0
  9 29  4  0
 10 12  4  0
 11 24  1  0
 11 26  4  0
 12 25  1  0
 13 28  1  0
 14 20  4  0
 14 23  4  0
 15 17  4  0
 15 21  4  0
 16 19  4  0
 16 23  4  0
 17 22  4  0
 18 26  4  0
 19 24  4  0
 20 24  4  0
 22 27  4  0
 28 29  4  0
M  END
$$$$

 Created by Python create_sdf_string function

 29 33  0  0  0  0  0  0  0  0999 V2000
   10.7215   -3.3326   17.6437 C   0  0  0  0  0  0  0  0  0  0  0  0
    9.9489   -3.4675   24.6487 N   0  0  0  0  0  0  0  0  0  0  0  0
   10.0172   -4.4740   17.4101 C   0  0  0  0  0  0  0  0  0  0  0  0
    6.9051   -7.9575   16.4222 C   0  0  0  0  0  0  0  0  0  0  0  0
    8.9969   -6.3552   17.9668 N   0  0  0  0  0  0  0  0  0  0  0  0
   10.6702   -3.9051   22.4070 C   0  0  0  0  0  0  0  0  0  0  0  0
   11.0625   -3.0028   18.8894 C   0  0  0  0  0  0  0  0  0  0  0  0
    5.6180   -7.9194   16.1754 O   0  0  0  0  0  0  0  0  0  0  0  0
    9.7259   -5.3080   18.4485 C   0  0  0  0  0  0  0  0  0  0  0  0
    9.4578   -5.0200   16.3036 N   0  0  0  0  0  0  0  0  0  0  0  0
    5.0287   -8.9365   16.8223 C   0  0  0  0  0  0  0  0  0  0  0  0
    8.7742   -6.1498   16.6764 C   0  0  0  0  0  0  0  0  0  0  0  0
   10.9418   -3.4032   21.2053 O   0  0  0  0  0  0  0  0  0  0  0  0
    1.4797   -8.6258   16.2950 C   0  0  0  0  0  0  0  0  0  0  0  0
    9.2861   -1.2743   25.3585 C   0  0  0  0  0  0  0  0  0  0  0  0
    1.8892  -10.3985   17.7511 N   0  0  0  0  0  0  0  0  0  0  0  0
    9.6210   -0.6952   24.0976 C   0  0  0  0  0  0  0  0  0  0  0  0
    7.0792   -9.0217   17.1429 C   0  0  0  0  0  0  0  0  0  0  0  0
    3.1713  -10.1816   17.6634 C   0  0  0  0  0  0  0  0  0  0  0  0
    2.7878   -8.3822   16.2137 C   0  0  0  0  0  0  0  0  0  0  0  0
    9.4601   -2.6590   25.6528 C   0  0  0  0  0  0  0  0  0  0  0  0
   10.1182   -1.5672   23.1165 C   0  0  0  0  0  0  0  0  0  0  0  0
    1.0552   -9.6360   17.0650 C   0  0  0  0  0  0  0  0  0  0  0  0
    3.6519   -9.1783   16.9039 C   0  0  0  0  0  0  0  0  0  0  0  0
    7.8675   -7.0096   15.9415 C   0  0  0  0  0  0  0  0  0  0  0  0
    5.9733   -9.6553   17.3832 N   0  0  0  0  0  0  0  0  0  0  0  0
   10.2411   -2.9363   23.4301 C   0  0  0  0  0  0  0  0  0  0  0  0
   10.7288   -3.8197   19.9525 C   0  0  0  0  0  0  0  0  0  0  0  0
   10.1189   -5.0054   19.6987 C   0  0  0  0  0  0  0  0  0  0  0  0
  1  3  4  0
  1  7  4  0
  2 21  4  0
  2 27  4  0
  3  9  4  0
  3 10  4  0
  4  8  4  0
  4 18  4  0
  4 25  1  0
  5  9  4  0
  5 12  4  0
  6 13  1  0
  6 27  1  0
  7 28  4  0
  8 11  4  0
  9 29  4  0
 10 12  4  0
 11 24  1  0
 11 26  4  0
 12 25  1  0
 13 28  1  0
 14 20  4  0
 14 23  4  0
 15 17  4  0
 15 21  4  0
 16 19  4  0
 16 23  4  0
 17 22  4  0
 18 26  4  0
 19 24  4  0
 20 24  4  0
 22 27  4  0
 28 29  4  0
M  END
$$$$

 Created by Python create_sdf_string function

 29 33  0  0  0  0  0  0  0  0999 V2000
   10.7215   -3.3326   17.6437 C   0  0  0  0  0  0  0  0  0  0  0  0
    9.9489   -3.4675   24.6487 N   0  0  0  0  0  0  0  0  0  0  0  0
   10.0172   -4.4740   17.4101 C   0  0  0  0  0  0  0  0  0  0  0  0
    6.9051   -7.9575   16.4222 C   0  0  0  0  0  0  0  0  0  0  0  0
    8.9969   -6.3552   17.9668 N   0  0  0  0  0  0  0  0  0  0  0  0
   10.6702   -3.9051   22.4070 C   0  0  0  0  0  0  0  0  0  0  0  0
   11.0625   -3.0028   18.8894 C   0  0  0  0  0  0  0  0  0  0  0  0
    5.6180   -7.9194   16.1754 O   0  0  0  0  0  0  0  0  0  0  0  0
    9.7259   -5.3080   18.4485 C   0  0  0  0  0  0  0  0  0  0  0  0
    9.4578   -5.0200   16.3036 N   0  0  0  0  0  0  0  0  0  0  0  0
    5.0287   -8.9365   16.8223 C   0  0  0  0  0  0  0  0  0  0  0  0
    8.7742   -6.1498   16.6764 C   0  0  0  0  0  0  0  0  0  0  0  0
   10.9418   -3.4032   21.2053 O   0  0  0  0  0  0  0  0  0  0  0  0
    1.4797   -8.6258   16.2950 C   0  0  0  0  0  0  0  0  0  0  0  0
    9.2861   -1.2743   25.3585 C   0  0  0  0  0  0  0  0  0  0  0  0
    1.8892  -10.3985   17.7511 N   0  0  0  0  0  0  0  0  0  0  0  0
    9.6210   -0.6952   24.0976 C   0  0  0  0  0  0  0  0  0  0  0  0
    7.0792   -9.0217   17.1429 C   0  0  0  0  0  0  0  0  0  0  0  0
    3.1713  -10.1816   17.6634 C   0  0  0  0  0  0  0  0  0  0  0  0
    2.7878   -8.3822   16.2137 C   0  0  0  0  0  0  0  0  0  0  0  0
    9.4601   -2.6590   25.6528 C   0  0  0  0  0  0  0  0  0  0  0  0
   10.1182   -1.5672   23.1165 C   0  0  0  0  0  0  0  0  0  0  0  0
    1.0552   -9.6360   17.0650 C   0  0  0  0  0  0  0  0  0  0  0  0
    3.6519   -9.1783   16.9039 C   0  0  0  0  0  0  0  0  0  0  0  0
    7.8675   -7.0096   15.9415 C   0  0  0  0  0  0  0  0  0  0  0  0
    5.9733   -9.6553   17.3832 N   0  0  0  0  0  0  0  0  0  0  0  0
   10.2411   -2.9363   23.4301 C   0  0  0  0  0  0  0  0  0  0  0  0
   10.7288   -3.8197   19.9525 C   0  0  0  0  0  0  0  0  0  0  0  0
   10.1189   -5.0054   19.6987 C   0  0  0  0  0  0  0  0  0  0  0  0
  1  3  4  0
  1  7  4  0
  2 21  4  0
  2 27  4  0
  3  9  4  0
  3 10  4  0
  4  8  4  0
  4 18  4  0
  4 25  1  0
  5  9  4  0
  5 12  4  0
  6 13  1  0
  6 27  1  0
  7 28  4  0
  8 11  4  0
  9 29  4  0
 10 12  4  0
 11 24  1  0
 11 26  4  0
 12 25  1  0
 13 28  1  0
 14 20  4  0
 14 23  4  0
 15 17  4  0
 15 21  4  0
 16 19  4  0
 16 23  4  0
 17 22  4  0
 18 26  4  0
 19 24  4  0
 20 24  4  0
 22 27  4  0
 28 29  4  0
M  END
$$$$

 Created by Python create_sdf_string function

 29 33  0  0  0  0  0  0  0  0999 V2000
   10.7215   -3.3326   17.6437 C   0  0  0  0  0  0  0  0  0  0  0  0
    9.9489   -3.4675   24.6487 N   0  0  0  0  0  0  0  0  0  0  0  0
   10.0172   -4.4740   17.4101 C   0  0  0  0  0  0  0  0  0  0  0  0
    6.9051   -7.9575   16.4222 C   0  0  0  0  0  0  0  0  0  0  0  0
    8.9969   -6.3552   17.9668 N   0  0  0  0  0  0  0  0  0  0  0  0
   10.6702   -3.9051   22.4070 C   0  0  0  0  0  0  0  0  0  0  0  0
   11.0625   -3.0028   18.8894 C   0  0  0  0  0  0  0  0  0  0  0  0
    5.6180   -7.9194   16.1754 O   0  0  0  0  0  0  0  0  0  0  0  0
    9.7259   -5.3080   18.4485 C   0  0  0  0  0  0  0  0  0  0  0  0
    9.4578   -5.0200   16.3036 N   0  0  0  0  0  0  0  0  0  0  0  0
    5.0287   -8.9365   16.8223 C   0  0  0  0  0  0  0  0  0  0  0  0
    8.7742   -6.1498   16.6764 C   0  0  0  0  0  0  0  0  0  0  0  0
   10.9418   -3.4032   21.2053 O   0  0  0  0  0  0  0  0  0  0  0  0
    1.4797   -8.6258   16.2950 C   0  0  0  0  0  0  0  0  0  0  0  0
    9.2861   -1.2743   25.3585 C   0  0  0  0  0  0  0  0  0  0  0  0
    1.8892  -10.3985   17.7511 N   0  0  0  0  0  0  0  0  0  0  0  0
    9.6210   -0.6952   24.0976 C   0  0  0  0  0  0  0  0  0  0  0  0
    7.0792   -9.0217   17.1429 C   0  0  0  0  0  0  0  0  0  0  0  0
    3.1713  -10.1816   17.6634 C   0  0  0  0  0  0  0  0  0  0  0  0
    2.7878   -8.3822   16.2137 C   0  0  0  0  0  0  0  0  0  0  0  0
    9.4601   -2.6590   25.6528 C   0  0  0  0  0  0  0  0  0  0  0  0
   10.1182   -1.5672   23.1165 C   0  0  0  0  0  0  0  0  0  0  0  0
    1.0552   -9.6360   17.0650 C   0  0  0  0  0  0  0  0  0  0  0  0
    3.6519   -9.1783   16.9039 C   0  0  0  0  0  0  0  0  0  0  0  0
    7.8675   -7.0096   15.9415 C   0  0  0  0  0  0  0  0  0  0  0  0
    5.9733   -9.6553   17.3832 N   0  0  0  0  0  0  0  0  0  0  0  0
   10.2411   -2.9363   23.4301 C   0  0  0  0  0  0  0  0  0  0  0  0
   10.7288   -3.8197   19.9525 C   0  0  0  0  0  0  0  0  0  0  0  0
   10.1189   -5.0054   19.6987 C   0  0  0  0  0  0  0  0  0  0  0  0
  1  3  4  0
  1  7  4  0
  2 21  4  0
  2 27  4  0
  3  9  4  0
  3 10  4  0
  4  8  4  0
  4 18  4  0
  4 25  1  0
  5  9  4  0
  5 12  4  0
  6 13  1  0
  6 27  1  0
  7 28  4  0
  8 11  4  0
  9 29  4  0
 10 12  4  0
 11 24  1  0
 11 26  4  0
 12 25  1  0
 13 28  1  0
 14 20  4  0
 14 23  4  0
 15 17  4  0
 15 21  4  0
 16 19  4  0
 16 23  4  0
 17 22  4  0
 18 26  4  0
 19 24  4  0
 20 24  4  0
 22 27  4  0
 28 29  4  0
M  END
$$$$

 Created by Python create_sdf_string function

 29 33  0  0  0  0  0  0  0  0999 V2000
   10.7215   -3.3326   17.6437 C   0  0  0  0  0  0  0  0  0  0  0  0
    9.9489   -3.4675   24.6487 N   0  0  0  0  0  0  0  0  0  0  0  0
   10.0172   -4.4740   17.4101 C   0  0  0  0  0  0  0  0  0  0  0  0
    6.9051   -7.9575   16.4222 C   0  0  0  0  0  0  0  0  0  0  0  0
    8.9969   -6.3552   17.9668 N   0  0  0  0  0  0  0  0  0  0  0  0
   10.6702   -3.9051   22.4070 C   0  0  0  0  0  0  0  0  0  0  0  0
   11.0625   -3.0028   18.8894 C   0  0  0  0  0  0  0  0  0  0  0  0
    5.6180   -7.9194   16.1754 O   0  0  0  0  0  0  0  0  0  0  0  0
    9.7259   -5.3080   18.4485 C   0  0  0  0  0  0  0  0  0  0  0  0
    9.4578   -5.0200   16.3036 N   0  0  0  0  0  0  0  0  0  0  0  0
    5.0287   -8.9365   16.8223 C   0  0  0  0  0  0  0  0  0  0  0  0
    8.7742   -6.1498   16.6764 C   0  0  0  0  0  0  0  0  0  0  0  0
   10.9418   -3.4032   21.2053 O   0  0  0  0  0  0  0  0  0  0  0  0
    1.4797   -8.6258   16.2950 C   0  0  0  0  0  0  0  0  0  0  0  0
    9.2861   -1.2743   25.3585 C   0  0  0  0  0  0  0  0  0  0  0  0
    1.8892  -10.3985   17.7511 N   0  0  0  0  0  0  0  0  0  0  0  0
    9.6210   -0.6952   24.0976 C   0  0  0  0  0  0  0  0  0  0  0  0
    7.0792   -9.0217   17.1429 C   0  0  0  0  0  0  0  0  0  0  0  0
    3.1713  -10.1816   17.6634 C   0  0  0  0  0  0  0  0  0  0  0  0
    2.7878   -8.3822   16.2137 C   0  0  0  0  0  0  0  0  0  0  0  0
    9.4601   -2.6590   25.6528 C   0  0  0  0  0  0  0  0  0  0  0  0
   10.1182   -1.5672   23.1165 C   0  0  0  0  0  0  0  0  0  0  0  0
    1.0552   -9.6360   17.0650 C   0  0  0  0  0  0  0  0  0  0  0  0
    3.6519   -9.1783   16.9039 C   0  0  0  0  0  0  0  0  0  0  0  0
    7.8675   -7.0096   15.9415 C   0  0  0  0  0  0  0  0  0  0  0  0
    5.9733   -9.6553   17.3832 N   0  0  0  0  0  0  0  0  0  0  0  0
   10.2411   -2.9363   23.4301 C   0  0  0  0  0  0  0  0  0  0  0  0
   10.7288   -3.8197   19.9525 C   0  0  0  0  0  0  0  0  0  0  0  0
   10.1189   -5.0054   19.6987 C   0  0  0  0  0  0  0  0  0  0  0  0
  1  3  4  0
  1  7  4  0
  2 21  4  0
  2 27  4  0
  3  9  4  0
  3 10  4  0
  4  8  4  0
  4 18  4  0
  4 25  1  0
  5  9  4  0
  5 12  4  0
  6 13  1  0
  6 27  1  0
  7 28  4  0
  8 11  4  0
  9 29  4  0
 10 12  4  0
 11 24  1  0
 11 26  4  0
 12 25  1  0
 13 28  1  0
 14 20  4  0
 14 23  4  0
 15 17  4  0
 15 21  4  0
 16 19  4  0
 16 23  4  0
 17 22  4  0
 18 26  4  0
 19 24  4  0
 20 24  4  0
 22 27  4  0
 28 29  4  0
M  END
$$$$

 Created by Python create_sdf_string function

 29 33  0  0  0  0  0  0  0  0999 V2000
   10.7215   -3.3326   17.6437 C   0  0  0  0  0  0  0  0  0  0  0  0
    9.9489   -3.4675   24.6487 N   0  0  0  0  0  0  0  0  0  0  0  0
   10.0172   -4.4740   17.4101 C   0  0  0  0  0  0  0  0  0  0  0  0
    6.9051   -7.9575   16.4222 C   0  0  0  0  0  0  0  0  0  0  0  0
    8.9969   -6.3552   17.9668 N   0  0  0  0  0  0  0  0  0  0  0  0
   10.6702   -3.9051   22.4070 C   0  0  0  0  0  0  0  0  0  0  0  0
   11.0625   -3.0028   18.8894 C   0  0  0  0  0  0  0  0  0  0  0  0
    5.6180   -7.9194   16.1754 O   0  0  0  0  0  0  0  0  0  0  0  0
    9.7259   -5.3080   18.4485 C   0  0  0  0  0  0  0  0  0  0  0  0
    9.4578   -5.0200   16.3036 N   0  0  0  0  0  0  0  0  0  0  0  0
    5.0287   -8.9365   16.8223 C   0  0  0  0  0  0  0  0  0  0  0  0
    8.7742   -6.1498   16.6764 C   0  0  0  0  0  0  0  0  0  0  0  0
   10.9418   -3.4032   21.2053 O   0  0  0  0  0  0  0  0  0  0  0  0
    1.4797   -8.6258   16.2950 C   0  0  0  0  0  0  0  0  0  0  0  0
    9.2861   -1.2743   25.3585 C   0  0  0  0  0  0  0  0  0  0  0  0
    1.8892  -10.3985   17.7511 N   0  0  0  0  0  0  0  0  0  0  0  0
    9.6210   -0.6952   24.0976 C   0  0  0  0  0  0  0  0  0  0  0  0
    7.0792   -9.0217   17.1429 C   0  0  0  0  0  0  0  0  0  0  0  0
    3.1713  -10.1816   17.6634 C   0  0  0  0  0  0  0  0  0  0  0  0
    2.7878   -8.3822   16.2137 C   0  0  0  0  0  0  0  0  0  0  0  0
    9.4601   -2.6590   25.6528 C   0  0  0  0  0  0  0  0  0  0  0  0
   10.1182   -1.5672   23.1165 C   0  0  0  0  0  0  0  0  0  0  0  0
    1.0552   -9.6360   17.0650 C   0  0  0  0  0  0  0  0  0  0  0  0
    3.6519   -9.1783   16.9039 C   0  0  0  0  0  0  0  0  0  0  0  0
    7.8675   -7.0096   15.9415 C   0  0  0  0  0  0  0  0  0  0  0  0
    5.9733   -9.6553   17.3832 N   0  0  0  0  0  0  0  0  0  0  0  0
   10.2411   -2.9363   23.4301 C   0  0  0  0  0  0  0  0  0  0  0  0
   10.7288   -3.8197   19.9525 C   0  0  0  0  0  0  0  0  0  0  0  0
   10.1189   -5.0054   19.6987 C   0  0  0  0  0  0  0  0  0  0  0  0
  1  3  4  0
  1  7  4  0
  2 21  4  0
  2 27  4  0
  3  9  4  0
  3 10  4  0
  4  8  4  0
  4 18  4  0
  4 25  1  0
  5  9  4  0
  5 12  4  0
  6 13  1  0
  6 27  1  0
  7 28  4  0
  8 11  4  0
  9 29  4  0
 10 12  4  0
 11 24  1  0
 11 26  4  0
 12 25  1  0
 13 28  1  0
 14 20  4  0
 14 23  4  0
 15 17  4  0
 15 21  4  0
 16 19  4  0
 16 23  4  0
 17 22  4  0
 18 26  4  0
 19 24  4  0
 20 24  4  0
 22 27  4  0
 28 29  4  0
M  END
$$$$

 Created by Python create_sdf_string function

 29 33  0  0  0  0  0  0  0  0999 V2000
   10.7215   -3.3326   17.6437 C   0  0  0  0  0  0  0  0  0  0  0  0
    9.9489   -3.4675   24.6487 N   0  0  0  0  0  0  0  0  0  0  0  0
   10.0172   -4.4740   17.4101 C   0  0  0  0  0  0  0  0  0  0  0  0
    6.9051   -7.9575   16.4222 C   0  0  0  0  0  0  0  0  0  0  0  0
    8.9969   -6.3552   17.9668 N   0  0  0  0  0  0  0  0  0  0  0  0
   10.6702   -3.9051   22.4070 C   0  0  0  0  0  0  0  0  0  0  0  0
   11.0625   -3.0028   18.8894 C   0  0  0  0  0  0  0  0  0  0  0  0
    5.6180   -7.9194   16.1754 O   0  0  0  0  0  0  0  0  0  0  0  0
    9.7259   -5.3080   18.4485 C   0  0  0  0  0  0  0  0  0  0  0  0
    9.4578   -5.0200   16.3036 N   0  0  0  0  0  0  0  0  0  0  0  0
    5.0287   -8.9365   16.8223 C   0  0  0  0  0  0  0  0  0  0  0  0
    8.7742   -6.1498   16.6764 C   0  0  0  0  0  0  0  0  0  0  0  0
   10.9418   -3.4032   21.2053 O   0  0  0  0  0  0  0  0  0  0  0  0
    1.4797   -8.6258   16.2950 C   0  0  0  0  0  0  0  0  0  0  0  0
    9.2861   -1.2743   25.3585 C   0  0  0  0  0  0  0  0  0  0  0  0
    1.8892  -10.3985   17.7511 N   0  0  0  0  0  0  0  0  0  0  0  0
    9.6210   -0.6952   24.0976 C   0  0  0  0  0  0  0  0  0  0  0  0
    7.0792   -9.0217   17.1429 C   0  0  0  0  0  0  0  0  0  0  0  0
    3.1713  -10.1816   17.6634 C   0  0  0  0  0  0  0  0  0  0  0  0
    2.7878   -8.3822   16.2137 C   0  0  0  0  0  0  0  0  0  0  0  0
    9.4601   -2.6590   25.6528 C   0  0  0  0  0  0  0  0  0  0  0  0
   10.1182   -1.5672   23.1165 C   0  0  0  0  0  0  0  0  0  0  0  0
    1.0552   -9.6360   17.0650 C   0  0  0  0  0  0  0  0  0  0  0  0
    3.6519   -9.1783   16.9039 C   0  0  0  0  0  0  0  0  0  0  0  0
    7.8675   -7.0096   15.9415 C   0  0  0  0  0  0  0  0  0  0  0  0
    5.9733   -9.6553   17.3832 N   0  0  0  0  0  0  0  0  0  0  0  0
   10.2411   -2.9363   23.4301 C   0  0  0  0  0  0  0  0  0  0  0  0
   10.7288   -3.8197   19.9525 C   0  0  0  0  0  0  0  0  0  0  0  0
   10.1189   -5.0054   19.6987 C   0  0  0  0  0  0  0  0  0  0  0  0
  1  3  4  0
  1  7  4  0
  2 21  4  0
  2 27  4  0
  3  9  4  0
  3 10  4  0
  4  8  4  0
  4 18  4  0
  4 25  1  0
  5  9  4  0
  5 12  4  0
  6 13  1  0
  6 27  1  0
  7 28  4  0
  8 11  4  0
  9 29  4  0
 10 12  4  0
 11 24  1  0
 11 26  4  0
 12 25  1  0
 13 28  1  0
 14 20  4  0
 14 23  4  0
 15 17  4  0
 15 21  4  0
 16 19  4  0
 16 23  4  0
 17 22  4  0
 18 26  4  0
 19 24  4  0
 20 24  4  0
 22 27  4  0
 28 29  4  0
M  END
$$$$

 Created by Python create_sdf_string function

 29 33  0  0  0  0  0  0  0  0999 V2000
   10.7215   -3.3326   17.6437 C   0  0  0  0  0  0  0  0  0  0  0  0
    9.9489   -3.4675   24.6487 N   0  0  0  0  0  0  0  0  0  0  0  0
   10.0172   -4.4740   17.4101 C   0  0  0  0  0  0  0  0  0  0  0  0
    6.9051   -7.9575   16.4222 C   0  0  0  0  0  0  0  0  0  0  0  0
    8.9969   -6.3552   17.9668 N   0  0  0  0  0  0  0  0  0  0  0  0
   10.6702   -3.9051   22.4070 C   0  0  0  0  0  0  0  0  0  0  0  0
   11.0625   -3.0028   18.8894 C   0  0  0  0  0  0  0  0  0  0  0  0
    5.6180   -7.9194   16.1754 O   0  0  0  0  0  0  0  0  0  0  0  0
    9.7259   -5.3080   18.4485 C   0  0  0  0  0  0  0  0  0  0  0  0
    9.4578   -5.0200   16.3036 N   0  0  0  0  0  0  0  0  0  0  0  0
    5.0287   -8.9365   16.8223 C   0  0  0  0  0  0  0  0  0  0  0  0
    8.7742   -6.1498   16.6764 C   0  0  0  0  0  0  0  0  0  0  0  0
   10.9418   -3.4032   21.2053 O   0  0  0  0  0  0  0  0  0  0  0  0
    1.4797   -8.6258   16.2950 C   0  0  0  0  0  0  0  0  0  0  0  0
    9.2861   -1.2743   25.3585 C   0  0  0  0  0  0  0  0  0  0  0  0
    1.8892  -10.3985   17.7511 N   0  0  0  0  0  0  0  0  0  0  0  0
    9.6210   -0.6952   24.0976 C   0  0  0  0  0  0  0  0  0  0  0  0
    7.0792   -9.0217   17.1429 C   0  0  0  0  0  0  0  0  0  0  0  0
    3.1713  -10.1816   17.6634 C   0  0  0  0  0  0  0  0  0  0  0  0
    2.7878   -8.3822   16.2137 C   0  0  0  0  0  0  0  0  0  0  0  0
    9.4601   -2.6590   25.6528 C   0  0  0  0  0  0  0  0  0  0  0  0
   10.1182   -1.5672   23.1165 C   0  0  0  0  0  0  0  0  0  0  0  0
    1.0552   -9.6360   17.0650 C   0  0  0  0  0  0  0  0  0  0  0  0
    3.6519   -9.1783   16.9039 C   0  0  0  0  0  0  0  0  0  0  0  0
    7.8675   -7.0096   15.9415 C   0  0  0  0  0  0  0  0  0  0  0  0
    5.9733   -9.6553   17.3832 N   0  0  0  0  0  0  0  0  0  0  0  0
   10.2411   -2.9363   23.4301 C   0  0  0  0  0  0  0  0  0  0  0  0
   10.7288   -3.8197   19.9525 C   0  0  0  0  0  0  0  0  0  0  0  0
   10.1189   -5.0054   19.6987 C   0  0  0  0  0  0  0  0  0  0  0  0
  1  3  4  0
  1  7  4  0
  2 21  4  0
  2 27  4  0
  3  9  4  0
  3 10  4  0
  4  8  4  0
  4 18  4  0
  4 25  1  0
  5  9  4  0
  5 12  4  0
  6 13  1  0
  6 27  1  0
  7 28  4  0
  8 11  4  0
  9 29  4  0
 10 12  4  0
 11 24  1  0
 11 26  4  0
 12 25  1  0
 13 28  1  0
 14 20  4  0
 14 23  4  0
 15 17  4  0
 15 21  4  0
 16 19  4  0
 16 23  4  0
 17 22  4  0
 18 26  4  0
 19 24  4  0
 20 24  4  0
 22 27  4  0
 28 29  4  0
M  END
$$$$

 Created by Python create_sdf_string function

 29 33  0  0  0  0  0  0  0  0999 V2000
   10.7215   -3.3326   17.6437 C   0  0  0  0  0  0  0  0  0  0  0  0
    9.9489   -3.4675   24.6487 N   0  0  0  0  0  0  0  0  0  0  0  0
   10.0172   -4.4740   17.4101 C   0  0  0  0  0  0  0  0  0  0  0  0
    6.9051   -7.9575   16.4222 C   0  0  0  0  0  0  0  0  0  0  0  0
    8.9969   -6.3552   17.9668 N   0  0  0  0  0  0  0  0  0  0  0  0
   10.6702   -3.9051   22.4070 C   0  0  0  0  0  0  0  0  0  0  0  0
   11.0625   -3.0028   18.8894 C   0  0  0  0  0  0  0  0  0  0  0  0
    5.6180   -7.9194   16.1754 O   0  0  0  0  0  0  0  0  0  0  0  0
    9.7259   -5.3080   18.4485 C   0  0  0  0  0  0  0  0  0  0  0  0
    9.4578   -5.0200   16.3036 N   0  0  0  0  0  0  0  0  0  0  0  0
    5.0287   -8.9365   16.8223 C   0  0  0  0  0  0  0  0  0  0  0  0
    8.7742   -6.1498   16.6764 C   0  0  0  0  0  0  0  0  0  0  0  0
   10.9418   -3.4032   21.2053 O   0  0  0  0  0  0  0  0  0  0  0  0
    1.4797   -8.6258   16.2950 C   0  0  0  0  0  0  0  0  0  0  0  0
    9.2861   -1.2743   25.3585 C   0  0  0  0  0  0  0  0  0  0  0  0
    1.8892  -10.3985   17.7511 N   0  0  0  0  0  0  0  0  0  0  0  0
    9.6210   -0.6952   24.0976 C   0  0  0  0  0  0  0  0  0  0  0  0
    7.0792   -9.0217   17.1429 C   0  0  0  0  0  0  0  0  0  0  0  0
    3.1713  -10.1816   17.6634 C   0  0  0  0  0  0  0  0  0  0  0  0
    2.7878   -8.3822   16.2137 C   0  0  0  0  0  0  0  0  0  0  0  0
    9.4601   -2.6590   25.6528 C   0  0  0  0  0  0  0  0  0  0  0  0
   10.1182   -1.5672   23.1165 C   0  0  0  0  0  0  0  0  0  0  0  0
    1.0552   -9.6360   17.0650 C   0  0  0  0  0  0  0  0  0  0  0  0
    3.6519   -9.1783   16.9039 C   0  0  0  0  0  0  0  0  0  0  0  0
    7.8675   -7.0096   15.9415 C   0  0  0  0  0  0  0  0  0  0  0  0
    5.9733   -9.6553   17.3832 N   0  0  0  0  0  0  0  0  0  0  0  0
   10.2411   -2.9363   23.4301 C   0  0  0  0  0  0  0  0  0  0  0  0
   10.7288   -3.8197   19.9525 C   0  0  0  0  0  0  0  0  0  0  0  0
   10.1189   -5.0054   19.6987 C   0  0  0  0  0  0  0  0  0  0  0  0
  1  3  4  0
  1  7  4  0
  2 21  4  0
  2 27  4  0
  3  9  4  0
  3 10  4  0
  4  8  4  0
  4 18  4  0
  4 25  1  0
  5  9  4  0
  5 12  4  0
  6 13  1  0
  6 27  1  0
  7 28  4  0
  8 11  4  0
  9 29  4  0
 10 12  4  0
 11 24  1  0
 11 26  4  0
 12 25  1  0
 13 28  1  0
 14 20  4  0
 14 23  4  0
 15 17  4  0
 15 21  4  0
 16 19  4  0
 16 23  4  0
 17 22  4  0
 18 26  4  0
 19 24  4  0
 20 24  4  0
 22 27  4  0
 28 29  4  0
M  END
$$$$

 Created by Python create_sdf_string function

 29 33  0  0  0  0  0  0  0  0999 V2000
   10.7215   -3.3326   17.6437 C   0  0  0  0  0  0  0  0  0  0  0  0
    9.9489   -3.4675   24.6487 N   0  0  0  0  0  0  0  0  0  0  0  0
   10.0172   -4.4740   17.4101 C   0  0  0  0  0  0  0  0  0  0  0  0
    6.9051   -7.9575   16.4222 C   0  0  0  0  0  0  0  0  0  0  0  0
    8.9969   -6.3552   17.9668 N   0  0  0  0  0  0  0  0  0  0  0  0
   10.6702   -3.9051   22.4070 C   0  0  0  0  0  0  0  0  0  0  0  0
   11.0625   -3.0028   18.8894 C   0  0  0  0  0  0  0  0  0  0  0  0
    5.6180   -7.9194   16.1754 O   0  0  0  0  0  0  0  0  0  0  0  0
    9.7259   -5.3080   18.4485 C   0  0  0  0  0  0  0  0  0  0  0  0
    9.4578   -5.0200   16.3036 N   0  0  0  0  0  0  0  0  0  0  0  0
    5.0287   -8.9365   16.8223 C   0  0  0  0  0  0  0  0  0  0  0  0
    8.7742   -6.1498   16.6764 C   0  0  0  0  0  0  0  0  0  0  0  0
   10.9418   -3.4032   21.2053 O   0  0  0  0  0  0  0  0  0  0  0  0
    1.4797   -8.6258   16.2950 C   0  0  0  0  0  0  0  0  0  0  0  0
    9.2861   -1.2743   25.3585 C   0  0  0  0  0  0  0  0  0  0  0  0
    1.8892  -10.3985   17.7511 N   0  0  0  0  0  0  0  0  0  0  0  0
    9.6210   -0.6952   24.0976 C   0  0  0  0  0  0  0  0  0  0  0  0
    7.0792   -9.0217   17.1429 C   0  0  0  0  0  0  0  0  0  0  0  0
    3.1713  -10.1816   17.6634 C   0  0  0  0  0  0  0  0  0  0  0  0
    2.7878   -8.3822   16.2137 C   0  0  0  0  0  0  0  0  0  0  0  0
    9.4601   -2.6590   25.6528 C   0  0  0  0  0  0  0  0  0  0  0  0
   10.1182   -1.5672   23.1165 C   0  0  0  0  0  0  0  0  0  0  0  0
    1.0552   -9.6360   17.0650 C   0  0  0  0  0  0  0  0  0  0  0  0
    3.6519   -9.1783   16.9039 C   0  0  0  0  0  0  0  0  0  0  0  0
    7.8675   -7.0096   15.9415 C   0  0  0  0  0  0  0  0  0  0  0  0
    5.9733   -9.6553   17.3832 N   0  0  0  0  0  0  0  0  0  0  0  0
   10.2411   -2.9363   23.4301 C   0  0  0  0  0  0  0  0  0  0  0  0
   10.7288   -3.8197   19.9525 C   0  0  0  0  0  0  0  0  0  0  0  0
   10.1189   -5.0054   19.6987 C   0  0  0  0  0  0  0  0  0  0  0  0
  1  3  4  0
  1  7  4  0
  2 21  4  0
  2 27  4  0
  3  9  4  0
  3 10  4  0
  4  8  4  0
  4 18  4  0
  4 25  1  0
  5  9  4  0
  5 12  4  0
  6 13  1  0
  6 27  1  0
  7 28  4  0
  8 11  4  0
  9 29  4  0
 10 12  4  0
 11 24  1  0
 11 26  4  0
 12 25  1  0
 13 28  1  0
 14 20  4  0
 14 23  4  0
 15 17  4  0
 15 21  4  0
 16 19  4  0
 16 23  4  0
 17 22  4  0
 18 26  4  0
 19 24  4  0
 20 24  4  0
 22 27  4  0
 28 29  4  0
M  END
$$$$

 Created by Python create_sdf_string function

 29 33  0  0  0  0  0  0  0  0999 V2000
   10.7215   -3.3326   17.6437 C   0  0  0  0  0  0  0  0  0  0  0  0
    9.9489   -3.4675   24.6487 N   0  0  0  0  0  0  0  0  0  0  0  0
   10.0172   -4.4740   17.4101 C   0  0  0  0  0  0  0  0  0  0  0  0
    6.9051   -7.9575   16.4222 C   0  0  0  0  0  0  0  0  0  0  0  0
    8.9969   -6.3552   17.9668 N   0  0  0  0  0  0  0  0  0  0  0  0
   10.6702   -3.9051   22.4070 C   0  0  0  0  0  0  0  0  0  0  0  0
   11.0625   -3.0028   18.8894 C   0  0  0  0  0  0  0  0  0  0  0  0
    5.6180   -7.9194   16.1754 O   0  0  0  0  0  0  0  0  0  0  0  0
    9.7259   -5.3080   18.4485 C   0  0  0  0  0  0  0  0  0  0  0  0
    9.4578   -5.0200   16.3036 N   0  0  0  0  0  0  0  0  0  0  0  0
    5.0287   -8.9365   16.8223 C   0  0  0  0  0  0  0  0  0  0  0  0
    8.7742   -6.1498   16.6764 C   0  0  0  0  0  0  0  0  0  0  0  0
   10.9418   -3.4032   21.2053 O   0  0  0  0  0  0  0  0  0  0  0  0
    1.4797   -8.6258   16.2950 C   0  0  0  0  0  0  0  0  0  0  0  0
    9.2861   -1.2743   25.3585 C   0  0  0  0  0  0  0  0  0  0  0  0
    1.8892  -10.3985   17.7511 N   0  0  0  0  0  0  0  0  0  0  0  0
    9.6210   -0.6952   24.0976 C   0  0  0  0  0  0  0  0  0  0  0  0
    7.0792   -9.0217   17.1429 C   0  0  0  0  0  0  0  0  0  0  0  0
    3.1713  -10.1816   17.6634 C   0  0  0  0  0  0  0  0  0  0  0  0
    2.7878   -8.3822   16.2137 C   0  0  0  0  0  0  0  0  0  0  0  0
    9.4601   -2.6590   25.6528 C   0  0  0  0  0  0  0  0  0  0  0  0
   10.1182   -1.5672   23.1165 C   0  0  0  0  0  0  0  0  0  0  0  0
    1.0552   -9.6360   17.0650 C   0  0  0  0  0  0  0  0  0  0  0  0
    3.6519   -9.1783   16.9039 C   0  0  0  0  0  0  0  0  0  0  0  0
    7.8675   -7.0096   15.9415 C   0  0  0  0  0  0  0  0  0  0  0  0
    5.9733   -9.6553   17.3832 N   0  0  0  0  0  0  0  0  0  0  0  0
   10.2411   -2.9363   23.4301 C   0  0  0  0  0  0  0  0  0  0  0  0
   10.7288   -3.8197   19.9525 C   0  0  0  0  0  0  0  0  0  0  0  0
   10.1189   -5.0054   19.6987 C   0  0  0  0  0  0  0  0  0  0  0  0
  1  3  4  0
  1  7  4  0
  2 21  4  0
  2 27  4  0
  3  9  4  0
  3 10  4  0
  4  8  4  0
  4 18  4  0
  4 25  1  0
  5  9  4  0
  5 12  4  0
  6 13  1  0
  6 27  1  0
  7 28  4  0
  8 11  4  0
  9 29  4  0
 10 12  4  0
 11 24  1  0
 11 26  4  0
 12 25  1  0
 13 28  1  0
 14 20  4  0
 14 23  4  0
 15 17  4  0
 15 21  4  0
 16 19  4  0
 16 23  4  0
 17 22  4  0
 18 26  4  0
 19 24  4  0
 20 24  4  0
 22 27  4  0
 28 29  4  0
M  END
$$$$

 Created by Python create_sdf_string function

 29 33  0  0  0  0  0  0  0  0999 V2000
   10.7215   -3.3326   17.6437 C   0  0  0  0  0  0  0  0  0  0  0  0
    9.9489   -3.4675   24.6487 N   0  0  0  0  0  0  0  0  0  0  0  0
   10.0172   -4.4740   17.4101 C   0  0  0  0  0  0  0  0  0  0  0  0
    6.9051   -7.9575   16.4222 C   0  0  0  0  0  0  0  0  0  0  0  0
    8.9969   -6.3552   17.9668 N   0  0  0  0  0  0  0  0  0  0  0  0
   10.6702   -3.9051   22.4070 C   0  0  0  0  0  0  0  0  0  0  0  0
   11.0625   -3.0028   18.8894 C   0  0  0  0  0  0  0  0  0  0  0  0
    5.6180   -7.9194   16.1754 O   0  0  0  0  0  0  0  0  0  0  0  0
    9.7259   -5.3080   18.4485 C   0  0  0  0  0  0  0  0  0  0  0  0
    9.4578   -5.0200   16.3036 N   0  0  0  0  0  0  0  0  0  0  0  0
    5.0287   -8.9365   16.8223 C   0  0  0  0  0  0  0  0  0  0  0  0
    8.7742   -6.1498   16.6764 C   0  0  0  0  0  0  0  0  0  0  0  0
   10.9418   -3.4032   21.2053 O   0  0  0  0  0  0  0  0  0  0  0  0
    1.4797   -8.6258   16.2950 C   0  0  0  0  0  0  0  0  0  0  0  0
    9.2861   -1.2743   25.3585 C   0  0  0  0  0  0  0  0  0  0  0  0
    1.8892  -10.3985   17.7511 N   0  0  0  0  0  0  0  0  0  0  0  0
    9.6210   -0.6952   24.0976 C   0  0  0  0  0  0  0  0  0  0  0  0
    7.0792   -9.0217   17.1429 C   0  0  0  0  0  0  0  0  0  0  0  0
    3.1713  -10.1816   17.6634 C   0  0  0  0  0  0  0  0  0  0  0  0
    2.7878   -8.3822   16.2137 C   0  0  0  0  0  0  0  0  0  0  0  0
    9.4601   -2.6590   25.6528 C   0  0  0  0  0  0  0  0  0  0  0  0
   10.1182   -1.5672   23.1165 C   0  0  0  0  0  0  0  0  0  0  0  0
    1.0552   -9.6360   17.0650 C   0  0  0  0  0  0  0  0  0  0  0  0
    3.6519   -9.1783   16.9039 C   0  0  0  0  0  0  0  0  0  0  0  0
    7.8675   -7.0096   15.9415 C   0  0  0  0  0  0  0  0  0  0  0  0
    5.9733   -9.6553   17.3832 N   0  0  0  0  0  0  0  0  0  0  0  0
   10.2411   -2.9363   23.4301 C   0  0  0  0  0  0  0  0  0  0  0  0
   10.7288   -3.8197   19.9525 C   0  0  0  0  0  0  0  0  0  0  0  0
   10.1189   -5.0054   19.6987 C   0  0  0  0  0  0  0  0  0  0  0  0
  1  3  4  0
  1  7  4  0
  2 21  4  0
  2 27  4  0
  3  9  4  0
  3 10  4  0
  4  8  4  0
  4 18  4  0
  4 25  1  0
  5  9  4  0
  5 12  4  0
  6 13  1  0
  6 27  1  0
  7 28  4  0
  8 11  4  0
  9 29  4  0
 10 12  4  0
 11 24  1  0
 11 26  4  0
 12 25  1  0
 13 28  1  0
 14 20  4  0
 14 23  4  0
 15 17  4  0
 15 21  4  0
 16 19  4  0
 16 23  4  0
 17 22  4  0
 18 26  4  0
 19 24  4  0
 20 24  4  0
 22 27  4  0
 28 29  4  0
M  END
$$$$

 Created by Python create_sdf_string function

 29 33  0  0  0  0  0  0  0  0999 V2000
   10.7215   -3.3326   17.6437 C   0  0  0  0  0  0  0  0  0  0  0  0
    9.9489   -3.4675   24.6487 N   0  0  0  0  0  0  0  0  0  0  0  0
   10.0172   -4.4740   17.4101 C   0  0  0  0  0  0  0  0  0  0  0  0
    6.9051   -7.9575   16.4222 C   0  0  0  0  0  0  0  0  0  0  0  0
    8.9969   -6.3552   17.9668 N   0  0  0  0  0  0  0  0  0  0  0  0
   10.6702   -3.9051   22.4070 C   0  0  0  0  0  0  0  0  0  0  0  0
   11.0625   -3.0028   18.8894 C   0  0  0  0  0  0  0  0  0  0  0  0
    5.6180   -7.9194   16.1754 O   0  0  0  0  0  0  0  0  0  0  0  0
    9.7259   -5.3080   18.4485 C   0  0  0  0  0  0  0  0  0  0  0  0
    9.4578   -5.0200   16.3036 N   0  0  0  0  0  0  0  0  0  0  0  0
    5.0287   -8.9365   16.8223 C   0  0  0  0  0  0  0  0  0  0  0  0
    8.7742   -6.1498   16.6764 C   0  0  0  0  0  0  0  0  0  0  0  0
   10.9418   -3.4032   21.2053 O   0  0  0  0  0  0  0  0  0  0  0  0
    1.4797   -8.6258   16.2950 C   0  0  0  0  0  0  0  0  0  0  0  0
    9.2861   -1.2743   25.3585 C   0  0  0  0  0  0  0  0  0  0  0  0
    1.8892  -10.3985   17.7511 N   0  0  0  0  0  0  0  0  0  0  0  0
    9.6210   -0.6952   24.0976 C   0  0  0  0  0  0  0  0  0  0  0  0
    7.0792   -9.0217   17.1429 C   0  0  0  0  0  0  0  0  0  0  0  0
    3.1713  -10.1816   17.6634 C   0  0  0  0  0  0  0  0  0  0  0  0
    2.7878   -8.3822   16.2137 C   0  0  0  0  0  0  0  0  0  0  0  0
    9.4601   -2.6590   25.6528 C   0  0  0  0  0  0  0  0  0  0  0  0
   10.1182   -1.5672   23.1165 C   0  0  0  0  0  0  0  0  0  0  0  0
    1.0552   -9.6360   17.0650 C   0  0  0  0  0  0  0  0  0  0  0  0
    3.6519   -9.1783   16.9039 C   0  0  0  0  0  0  0  0  0  0  0  0
    7.8675   -7.0096   15.9415 C   0  0  0  0  0  0  0  0  0  0  0  0
    5.9733   -9.6553   17.3832 N   0  0  0  0  0  0  0  0  0  0  0  0
   10.2411   -2.9363   23.4301 C   0  0  0  0  0  0  0  0  0  0  0  0
   10.7288   -3.8197   19.9525 C   0  0  0  0  0  0  0  0  0  0  0  0
   10.1189   -5.0054   19.6987 C   0  0  0  0  0  0  0  0  0  0  0  0
  1  3  4  0
  1  7  4  0
  2 21  4  0
  2 27  4  0
  3  9  4  0
  3 10  4  0
  4  8  4  0
  4 18  4  0
  4 25  1  0
  5  9  4  0
  5 12  4  0
  6 13  1  0
  6 27  1  0
  7 28  4  0
  8 11  4  0
  9 29  4  0
 10 12  4  0
 11 24  1  0
 11 26  4  0
 12 25  1  0
 13 28  1  0
 14 20  4  0
 14 23  4  0
 15 17  4  0
 15 21  4  0
 16 19  4  0
 16 23  4  0
 17 22  4  0
 18 26  4  0
 19 24  4  0
 20 24  4  0
 22 27  4  0
 28 29  4  0
M  END
$$$$

 Created by Python create_sdf_string function

 29 33  0  0  0  0  0  0  0  0999 V2000
   10.7215   -3.3326   17.6437 C   0  0  0  0  0  0  0  0  0  0  0  0
    9.9489   -3.4675   24.6487 N   0  0  0  0  0  0  0  0  0  0  0  0
   10.0172   -4.4740   17.4101 C   0  0  0  0  0  0  0  0  0  0  0  0
    6.9051   -7.9575   16.4222 C   0  0  0  0  0  0  0  0  0  0  0  0
    8.9969   -6.3552   17.9668 N   0  0  0  0  0  0  0  0  0  0  0  0
   10.6702   -3.9051   22.4070 C   0  0  0  0  0  0  0  0  0  0  0  0
   11.0625   -3.0028   18.8894 C   0  0  0  0  0  0  0  0  0  0  0  0
    5.6180   -7.9194   16.1754 O   0  0  0  0  0  0  0  0  0  0  0  0
    9.7259   -5.3080   18.4485 C   0  0  0  0  0  0  0  0  0  0  0  0
    9.4578   -5.0200   16.3036 N   0  0  0  0  0  0  0  0  0  0  0  0
    5.0287   -8.9365   16.8223 C   0  0  0  0  0  0  0  0  0  0  0  0
    8.7742   -6.1498   16.6764 C   0  0  0  0  0  0  0  0  0  0  0  0
   10.9418   -3.4032   21.2053 O   0  0  0  0  0  0  0  0  0  0  0  0
    1.4797   -8.6258   16.2950 C   0  0  0  0  0  0  0  0  0  0  0  0
    9.2861   -1.2743   25.3585 C   0  0  0  0  0  0  0  0  0  0  0  0
    1.8892  -10.3985   17.7511 N   0  0  0  0  0  0  0  0  0  0  0  0
    9.6210   -0.6952   24.0976 C   0  0  0  0  0  0  0  0  0  0  0  0
    7.0792   -9.0217   17.1429 C   0  0  0  0  0  0  0  0  0  0  0  0
    3.1713  -10.1816   17.6634 C   0  0  0  0  0  0  0  0  0  0  0  0
    2.7878   -8.3822   16.2137 C   0  0  0  0  0  0  0  0  0  0  0  0
    9.4601   -2.6590   25.6528 C   0  0  0  0  0  0  0  0  0  0  0  0
   10.1182   -1.5672   23.1165 C   0  0  0  0  0  0  0  0  0  0  0  0
    1.0552   -9.6360   17.0650 C   0  0  0  0  0  0  0  0  0  0  0  0
    3.6519   -9.1783   16.9039 C   0  0  0  0  0  0  0  0  0  0  0  0
    7.8675   -7.0096   15.9415 C   0  0  0  0  0  0  0  0  0  0  0  0
    5.9733   -9.6553   17.3832 N   0  0  0  0  0  0  0  0  0  0  0  0
   10.2411   -2.9363   23.4301 C   0  0  0  0  0  0  0  0  0  0  0  0
   10.7288   -3.8197   19.9525 C   0  0  0  0  0  0  0  0  0  0  0  0
   10.1189   -5.0054   19.6987 C   0  0  0  0  0  0  0  0  0  0  0  0
  1  3  4  0
  1  7  4  0
  2 21  4  0
  2 27  4  0
  3  9  4  0
  3 10  4  0
  4  8  4  0
  4 18  4  0
  4 25  1  0
  5  9  4  0
  5 12  4  0
  6 13  1  0
  6 27  1  0
  7 28  4  0
  8 11  4  0
  9 29  4  0
 10 12  4  0
 11 24  1  0
 11 26  4  0
 12 25  1  0
 13 28  1  0
 14 20  4  0
 14 23  4  0
 15 17  4  0
 15 21  4  0
 16 19  4  0
 16 23  4  0
 17 22  4  0
 18 26  4  0
 19 24  4  0
 20 24  4  0
 22 27  4  0
 28 29  4  0
M  END
$$$$

 Created by Python create_sdf_string function

 29 33  0  0  0  0  0  0  0  0999 V2000
   10.7215   -3.3326   17.6437 C   0  0  0  0  0  0  0  0  0  0  0  0
    9.9489   -3.4675   24.6487 N   0  0  0  0  0  0  0  0  0  0  0  0
   10.0172   -4.4740   17.4101 C   0  0  0  0  0  0  0  0  0  0  0  0
    6.9051   -7.9575   16.4222 C   0  0  0  0  0  0  0  0  0  0  0  0
    8.9969   -6.3552   17.9668 N   0  0  0  0  0  0  0  0  0  0  0  0
   10.6702   -3.9051   22.4070 C   0  0  0  0  0  0  0  0  0  0  0  0
   11.0625   -3.0028   18.8894 C   0  0  0  0  0  0  0  0  0  0  0  0
    5.6180   -7.9194   16.1754 O   0  0  0  0  0  0  0  0  0  0  0  0
    9.7259   -5.3080   18.4485 C   0  0  0  0  0  0  0  0  0  0  0  0
    9.4578   -5.0200   16.3036 N   0  0  0  0  0  0  0  0  0  0  0  0
    5.0287   -8.9365   16.8223 C   0  0  0  0  0  0  0  0  0  0  0  0
    8.7742   -6.1498   16.6764 C   0  0  0  0  0  0  0  0  0  0  0  0
   10.9418   -3.4032   21.2053 O   0  0  0  0  0  0  0  0  0  0  0  0
    1.4797   -8.6258   16.2950 C   0  0  0  0  0  0  0  0  0  0  0  0
    9.2861   -1.2743   25.3585 C   0  0  0  0  0  0  0  0  0  0  0  0
    1.8892  -10.3985   17.7511 N   0  0  0  0  0  0  0  0  0  0  0  0
    9.6210   -0.6952   24.0976 C   0  0  0  0  0  0  0  0  0  0  0  0
    7.0792   -9.0217   17.1429 C   0  0  0  0  0  0  0  0  0  0  0  0
    3.1713  -10.1816   17.6634 C   0  0  0  0  0  0  0  0  0  0  0  0
    2.7878   -8.3822   16.2137 C   0  0  0  0  0  0  0  0  0  0  0  0
    9.4601   -2.6590   25.6528 C   0  0  0  0  0  0  0  0  0  0  0  0
   10.1182   -1.5672   23.1165 C   0  0  0  0  0  0  0  0  0  0  0  0
    1.0552   -9.6360   17.0650 C   0  0  0  0  0  0  0  0  0  0  0  0
    3.6519   -9.1783   16.9039 C   0  0  0  0  0  0  0  0  0  0  0  0
    7.8675   -7.0096   15.9415 C   0  0  0  0  0  0  0  0  0  0  0  0
    5.9733   -9.6553   17.3832 N   0  0  0  0  0  0  0  0  0  0  0  0
   10.2411   -2.9363   23.4301 C   0  0  0  0  0  0  0  0  0  0  0  0
   10.7288   -3.8197   19.9525 C   0  0  0  0  0  0  0  0  0  0  0  0
   10.1189   -5.0054   19.6987 C   0  0  0  0  0  0  0  0  0  0  0  0
  1  3  4  0
  1  7  4  0
  2 21  4  0
  2 27  4  0
  3  9  4  0
  3 10  4  0
  4  8  4  0
  4 18  4  0
  4 25  1  0
  5  9  4  0
  5 12  4  0
  6 13  1  0
  6 27  1  0
  7 28  4  0
  8 11  4  0
  9 29  4  0
 10 12  4  0
 11 24  1  0
 11 26  4  0
 12 25  1  0
 13 28  1  0
 14 20  4  0
 14 23  4  0
 15 17  4  0
 15 21  4  0
 16 19  4  0
 16 23  4  0
 17 22  4  0
 18 26  4  0
 19 24  4  0
 20 24  4  0
 22 27  4  0
 28 29  4  0
M  END
$$$$

 Created by Python create_sdf_string function

 29 33  0  0  0  0  0  0  0  0999 V2000
   10.7215   -3.3326   17.6437 C   0  0  0  0  0  0  0  0  0  0  0  0
    9.9489   -3.4675   24.6487 N   0  0  0  0  0  0  0  0  0  0  0  0
   10.0172   -4.4740   17.4101 C   0  0  0  0  0  0  0  0  0  0  0  0
    6.9051   -7.9575   16.4222 C   0  0  0  0  0  0  0  0  0  0  0  0
    8.9969   -6.3552   17.9668 N   0  0  0  0  0  0  0  0  0  0  0  0
   10.6702   -3.9051   22.4070 C   0  0  0  0  0  0  0  0  0  0  0  0
   11.0625   -3.0028   18.8894 C   0  0  0  0  0  0  0  0  0  0  0  0
    5.6180   -7.9194   16.1754 O   0  0  0  0  0  0  0  0  0  0  0  0
    9.7259   -5.3080   18.4485 C   0  0  0  0  0  0  0  0  0  0  0  0
    9.4578   -5.0200   16.3036 N   0  0  0  0  0  0  0  0  0  0  0  0
    5.0287   -8.9365   16.8223 C   0  0  0  0  0  0  0  0  0  0  0  0
    8.7742   -6.1498   16.6764 C   0  0  0  0  0  0  0  0  0  0  0  0
   10.9418   -3.4032   21.2053 O   0  0  0  0  0  0  0  0  0  0  0  0
    1.4797   -8.6258   16.2950 C   0  0  0  0  0  0  0  0  0  0  0  0
    9.2861   -1.2743   25.3585 C   0  0  0  0  0  0  0  0  0  0  0  0
    1.8892  -10.3985   17.7511 N   0  0  0  0  0  0  0  0  0  0  0  0
    9.6210   -0.6952   24.0976 C   0  0  0  0  0  0  0  0  0  0  0  0
    7.0792   -9.0217   17.1429 C   0  0  0  0  0  0  0  0  0  0  0  0
    3.1713  -10.1816   17.6634 C   0  0  0  0  0  0  0  0  0  0  0  0
    2.7878   -8.3822   16.2137 C   0  0  0  0  0  0  0  0  0  0  0  0
    9.4601   -2.6590   25.6528 C   0  0  0  0  0  0  0  0  0  0  0  0
   10.1182   -1.5672   23.1165 C   0  0  0  0  0  0  0  0  0  0  0  0
    1.0552   -9.6360   17.0650 C   0  0  0  0  0  0  0  0  0  0  0  0
    3.6519   -9.1783   16.9039 C   0  0  0  0  0  0  0  0  0  0  0  0
    7.8675   -7.0096   15.9415 C   0  0  0  0  0  0  0  0  0  0  0  0
    5.9733   -9.6553   17.3832 N   0  0  0  0  0  0  0  0  0  0  0  0
   10.2411   -2.9363   23.4301 C   0  0  0  0  0  0  0  0  0  0  0  0
   10.7288   -3.8197   19.9525 C   0  0  0  0  0  0  0  0  0  0  0  0
   10.1189   -5.0054   19.6987 C   0  0  0  0  0  0  0  0  0  0  0  0
  1  3  4  0
  1  7  4  0
  2 21  4  0
  2 27  4  0
  3  9  4  0
  3 10  4  0
  4  8  4  0
  4 18  4  0
  4 25  1  0
  5  9  4  0
  5 12  4  0
  6 13  1  0
  6 27  1  0
  7 28  4  0
  8 11  4  0
  9 29  4  0
 10 12  4  0
 11 24  1  0
 11 26  4  0
 12 25  1  0
 13 28  1  0
 14 20  4  0
 14 23  4  0
 15 17  4  0
 15 21  4  0
 16 19  4  0
 16 23  4  0
 17 22  4  0
 18 26  4  0
 19 24  4  0
 20 24  4  0
 22 27  4  0
 28 29  4  0
M  END
$$$$

 Created by Python create_sdf_string function

 29 33  0  0  0  0  0  0  0  0999 V2000
   10.7215   -3.3326   17.6437 C   0  0  0  0  0  0  0  0  0  0  0  0
    9.9489   -3.4675   24.6487 N   0  0  0  0  0  0  0  0  0  0  0  0
   10.0172   -4.4740   17.4101 C   0  0  0  0  0  0  0  0  0  0  0  0
    6.9051   -7.9575   16.4222 C   0  0  0  0  0  0  0  0  0  0  0  0
    8.9969   -6.3552   17.9668 N   0  0  0  0  0  0  0  0  0  0  0  0
   10.6702   -3.9051   22.4070 C   0  0  0  0  0  0  0  0  0  0  0  0
   11.0625   -3.0028   18.8894 C   0  0  0  0  0  0  0  0  0  0  0  0
    5.6180   -7.9194   16.1754 O   0  0  0  0  0  0  0  0  0  0  0  0
    9.7259   -5.3080   18.4485 C   0  0  0  0  0  0  0  0  0  0  0  0
    9.4578   -5.0200   16.3036 N   0  0  0  0  0  0  0  0  0  0  0  0
    5.0287   -8.9365   16.8223 C   0  0  0  0  0  0  0  0  0  0  0  0
    8.7742   -6.1498   16.6764 C   0  0  0  0  0  0  0  0  0  0  0  0
   10.9418   -3.4032   21.2053 O   0  0  0  0  0  0  0  0  0  0  0  0
    1.4797   -8.6258   16.2950 C   0  0  0  0  0  0  0  0  0  0  0  0
    9.2861   -1.2743   25.3585 C   0  0  0  0  0  0  0  0  0  0  0  0
    1.8892  -10.3985   17.7511 N   0  0  0  0  0  0  0  0  0  0  0  0
    9.6210   -0.6952   24.0976 C   0  0  0  0  0  0  0  0  0  0  0  0
    7.0792   -9.0217   17.1429 C   0  0  0  0  0  0  0  0  0  0  0  0
    3.1713  -10.1816   17.6634 C   0  0  0  0  0  0  0  0  0  0  0  0
    2.7878   -8.3822   16.2137 C   0  0  0  0  0  0  0  0  0  0  0  0
    9.4601   -2.6590   25.6528 C   0  0  0  0  0  0  0  0  0  0  0  0
   10.1182   -1.5672   23.1165 C   0  0  0  0  0  0  0  0  0  0  0  0
    1.0552   -9.6360   17.0650 C   0  0  0  0  0  0  0  0  0  0  0  0
    3.6519   -9.1783   16.9039 C   0  0  0  0  0  0  0  0  0  0  0  0
    7.8675   -7.0096   15.9415 C   0  0  0  0  0  0  0  0  0  0  0  0
    5.9733   -9.6553   17.3832 N   0  0  0  0  0  0  0  0  0  0  0  0
   10.2411   -2.9363   23.4301 C   0  0  0  0  0  0  0  0  0  0  0  0
   10.7288   -3.8197   19.9525 C   0  0  0  0  0  0  0  0  0  0  0  0
   10.1189   -5.0054   19.6987 C   0  0  0  0  0  0  0  0  0  0  0  0
  1  3  4  0
  1  7  4  0
  2 21  4  0
  2 27  4  0
  3  9  4  0
  3 10  4  0
  4  8  4  0
  4 18  4  0
  4 25  1  0
  5  9  4  0
  5 12  4  0
  6 13  1  0
  6 27  1  0
  7 28  4  0
  8 11  4  0
  9 29  4  0
 10 12  4  0
 11 24  1  0
 11 26  4  0
 12 25  1  0
 13 28  1  0
 14 20  4  0
 14 23  4  0
 15 17  4  0
 15 21  4  0
 16 19  4  0
 16 23  4  0
 17 22  4  0
 18 26  4  0
 19 24  4  0
 20 24  4  0
 22 27  4  0
 28 29  4  0
M  END
$$$$

 Created by Python create_sdf_string function

 29 33  0  0  0  0  0  0  0  0999 V2000
   10.7215   -3.3326   17.6437 C   0  0  0  0  0  0  0  0  0  0  0  0
    9.9489   -3.4675   24.6487 N   0  0  0  0  0  0  0  0  0  0  0  0
   10.0172   -4.4740   17.4101 C   0  0  0  0  0  0  0  0  0  0  0  0
    6.9051   -7.9575   16.4222 C   0  0  0  0  0  0  0  0  0  0  0  0
    8.9969   -6.3552   17.9668 N   0  0  0  0  0  0  0  0  0  0  0  0
   10.6702   -3.9051   22.4070 C   0  0  0  0  0  0  0  0  0  0  0  0
   11.0625   -3.0028   18.8894 C   0  0  0  0  0  0  0  0  0  0  0  0
    5.6180   -7.9194   16.1754 O   0  0  0  0  0  0  0  0  0  0  0  0
    9.7259   -5.3080   18.4485 C   0  0  0  0  0  0  0  0  0  0  0  0
    9.4578   -5.0200   16.3036 N   0  0  0  0  0  0  0  0  0  0  0  0
    5.0287   -8.9365   16.8223 C   0  0  0  0  0  0  0  0  0  0  0  0
    8.7742   -6.1498   16.6764 C   0  0  0  0  0  0  0  0  0  0  0  0
   10.9418   -3.4032   21.2053 O   0  0  0  0  0  0  0  0  0  0  0  0
    1.4797   -8.6258   16.2950 C   0  0  0  0  0  0  0  0  0  0  0  0
    9.2861   -1.2743   25.3585 C   0  0  0  0  0  0  0  0  0  0  0  0
    1.8892  -10.3985   17.7511 N   0  0  0  0  0  0  0  0  0  0  0  0
    9.6210   -0.6952   24.0976 C   0  0  0  0  0  0  0  0  0  0  0  0
    7.0792   -9.0217   17.1429 C   0  0  0  0  0  0  0  0  0  0  0  0
    3.1713  -10.1816   17.6634 C   0  0  0  0  0  0  0  0  0  0  0  0
    2.7878   -8.3822   16.2137 C   0  0  0  0  0  0  0  0  0  0  0  0
    9.4601   -2.6590   25.6528 C   0  0  0  0  0  0  0  0  0  0  0  0
   10.1182   -1.5672   23.1165 C   0  0  0  0  0  0  0  0  0  0  0  0
    1.0552   -9.6360   17.0650 C   0  0  0  0  0  0  0  0  0  0  0  0
    3.6519   -9.1783   16.9039 C   0  0  0  0  0  0  0  0  0  0  0  0
    7.8675   -7.0096   15.9415 C   0  0  0  0  0  0  0  0  0  0  0  0
    5.9733   -9.6553   17.3832 N   0  0  0  0  0  0  0  0  0  0  0  0
   10.2411   -2.9363   23.4301 C   0  0  0  0  0  0  0  0  0  0  0  0
   10.7288   -3.8197   19.9525 C   0  0  0  0  0  0  0  0  0  0  0  0
   10.1189   -5.0054   19.6987 C   0  0  0  0  0  0  0  0  0  0  0  0
  1  3  4  0
  1  7  4  0
  2 21  4  0
  2 27  4  0
  3  9  4  0
  3 10  4  0
  4  8  4  0
  4 18  4  0
  4 25  1  0
  5  9  4  0
  5 12  4  0
  6 13  1  0
  6 27  1  0
  7 28  4  0
  8 11  4  0
  9 29  4  0
 10 12  4  0
 11 24  1  0
 11 26  4  0
 12 25  1  0
 13 28  1  0
 14 20  4  0
 14 23  4  0
 15 17  4  0
 15 21  4  0
 16 19  4  0
 16 23  4  0
 17 22  4  0
 18 26  4  0
 19 24  4  0
 20 24  4  0
 22 27  4  0
 28 29  4  0
M  END
$$$$

 Created by Python create_sdf_string function

 29 33  0  0  0  0  0  0  0  0999 V2000
   10.7215   -3.3326   17.6437 C   0  0  0  0  0  0  0  0  0  0  0  0
    9.9489   -3.4675   24.6487 N   0  0  0  0  0  0  0  0  0  0  0  0
   10.0172   -4.4740   17.4101 C   0  0  0  0  0  0  0  0  0  0  0  0
    6.9051   -7.9575   16.4222 C   0  0  0  0  0  0  0  0  0  0  0  0
    8.9969   -6.3552   17.9668 N   0  0  0  0  0  0  0  0  0  0  0  0
   10.6702   -3.9051   22.4070 C   0  0  0  0  0  0  0  0  0  0  0  0
   11.0625   -3.0028   18.8894 C   0  0  0  0  0  0  0  0  0  0  0  0
    5.6180   -7.9194   16.1754 O   0  0  0  0  0  0  0  0  0  0  0  0
    9.7259   -5.3080   18.4485 C   0  0  0  0  0  0  0  0  0  0  0  0
    9.4578   -5.0200   16.3036 N   0  0  0  0  0  0  0  0  0  0  0  0
    5.0287   -8.9365   16.8223 C   0  0  0  0  0  0  0  0  0  0  0  0
    8.7742   -6.1498   16.6764 C   0  0  0  0  0  0  0  0  0  0  0  0
   10.9418   -3.4032   21.2053 O   0  0  0  0  0  0  0  0  0  0  0  0
    1.4797   -8.6258   16.2950 C   0  0  0  0  0  0  0  0  0  0  0  0
    9.2861   -1.2743   25.3585 C   0  0  0  0  0  0  0  0  0  0  0  0
    1.8892  -10.3985   17.7511 N   0  0  0  0  0  0  0  0  0  0  0  0
    9.6210   -0.6952   24.0976 C   0  0  0  0  0  0  0  0  0  0  0  0
    7.0792   -9.0217   17.1429 C   0  0  0  0  0  0  0  0  0  0  0  0
    3.1713  -10.1816   17.6634 C   0  0  0  0  0  0  0  0  0  0  0  0
    2.7878   -8.3822   16.2137 C   0  0  0  0  0  0  0  0  0  0  0  0
    9.4601   -2.6590   25.6528 C   0  0  0  0  0  0  0  0  0  0  0  0
   10.1182   -1.5672   23.1165 C   0  0  0  0  0  0  0  0  0  0  0  0
    1.0552   -9.6360   17.0650 C   0  0  0  0  0  0  0  0  0  0  0  0
    3.6519   -9.1783   16.9039 C   0  0  0  0  0  0  0  0  0  0  0  0
    7.8675   -7.0096   15.9415 C   0  0  0  0  0  0  0  0  0  0  0  0
    5.9733   -9.6553   17.3832 N   0  0  0  0  0  0  0  0  0  0  0  0
   10.2411   -2.9363   23.4301 C   0  0  0  0  0  0  0  0  0  0  0  0
   10.7288   -3.8197   19.9525 C   0  0  0  0  0  0  0  0  0  0  0  0
   10.1189   -5.0054   19.6987 C   0  0  0  0  0  0  0  0  0  0  0  0
  1  3  4  0
  1  7  4  0
  2 21  4  0
  2 27  4  0
  3  9  4  0
  3 10  4  0
  4  8  4  0
  4 18  4  0
  4 25  1  0
  5  9  4  0
  5 12  4  0
  6 13  1  0
  6 27  1  0
  7 28  4  0
  8 11  4  0
  9 29  4  0
 10 12  4  0
 11 24  1  0
 11 26  4  0
 12 25  1  0
 13 28  1  0
 14 20  4  0
 14 23  4  0
 15 17  4  0
 15 21  4  0
 16 19  4  0
 16 23  4  0
 17 22  4  0
 18 26  4  0
 19 24  4  0
 20 24  4  0
 22 27  4  0
 28 29  4  0
M  END
$$$$

 Created by Python create_sdf_string function

 29 33  0  0  0  0  0  0  0  0999 V2000
   10.7215   -3.3326   17.6437 C   0  0  0  0  0  0  0  0  0  0  0  0
    9.9489   -3.4675   24.6487 N   0  0  0  0  0  0  0  0  0  0  0  0
   10.0172   -4.4740   17.4101 C   0  0  0  0  0  0  0  0  0  0  0  0
    6.9051   -7.9575   16.4222 C   0  0  0  0  0  0  0  0  0  0  0  0
    8.9969   -6.3552   17.9668 N   0  0  0  0  0  0  0  0  0  0  0  0
   10.6702   -3.9051   22.4070 C   0  0  0  0  0  0  0  0  0  0  0  0
   11.0625   -3.0028   18.8894 C   0  0  0  0  0  0  0  0  0  0  0  0
    5.6180   -7.9194   16.1754 O   0  0  0  0  0  0  0  0  0  0  0  0
    9.7259   -5.3080   18.4485 C   0  0  0  0  0  0  0  0  0  0  0  0
    9.4578   -5.0200   16.3036 N   0  0  0  0  0  0  0  0  0  0  0  0
    5.0287   -8.9365   16.8223 C   0  0  0  0  0  0  0  0  0  0  0  0
    8.7742   -6.1498   16.6764 C   0  0  0  0  0  0  0  0  0  0  0  0
   10.9418   -3.4032   21.2053 O   0  0  0  0  0  0  0  0  0  0  0  0
    1.4797   -8.6258   16.2950 C   0  0  0  0  0  0  0  0  0  0  0  0
    9.2861   -1.2743   25.3585 C   0  0  0  0  0  0  0  0  0  0  0  0
    1.8892  -10.3985   17.7511 N   0  0  0  0  0  0  0  0  0  0  0  0
    9.6210   -0.6952   24.0976 C   0  0  0  0  0  0  0  0  0  0  0  0
    7.0792   -9.0217   17.1429 C   0  0  0  0  0  0  0  0  0  0  0  0
    3.1713  -10.1816   17.6634 C   0  0  0  0  0  0  0  0  0  0  0  0
    2.7878   -8.3822   16.2137 C   0  0  0  0  0  0  0  0  0  0  0  0
    9.4601   -2.6590   25.6528 C   0  0  0  0  0  0  0  0  0  0  0  0
   10.1182   -1.5672   23.1165 C   0  0  0  0  0  0  0  0  0  0  0  0
    1.0552   -9.6360   17.0650 C   0  0  0  0  0  0  0  0  0  0  0  0
    3.6519   -9.1783   16.9039 C   0  0  0  0  0  0  0  0  0  0  0  0
    7.8675   -7.0096   15.9415 C   0  0  0  0  0  0  0  0  0  0  0  0
    5.9733   -9.6553   17.3832 N   0  0  0  0  0  0  0  0  0  0  0  0
   10.2411   -2.9363   23.4301 C   0  0  0  0  0  0  0  0  0  0  0  0
   10.7288   -3.8197   19.9525 C   0  0  0  0  0  0  0  0  0  0  0  0
   10.1189   -5.0054   19.6987 C   0  0  0  0  0  0  0  0  0  0  0  0
  1  3  4  0
  1  7  4  0
  2 21  4  0
  2 27  4  0
  3  9  4  0
  3 10  4  0
  4  8  4  0
  4 18  4  0
  4 25  1  0
  5  9  4  0
  5 12  4  0
  6 13  1  0
  6 27  1  0
  7 28  4  0
  8 11  4  0
  9 29  4  0
 10 12  4  0
 11 24  1  0
 11 26  4  0
 12 25  1  0
 13 28  1  0
 14 20  4  0
 14 23  4  0
 15 17  4  0
 15 21  4  0
 16 19  4  0
 16 23  4  0
 17 22  4  0
 18 26  4  0
 19 24  4  0
 20 24  4  0
 22 27  4  0
 28 29  4  0
M  END
$$$$

 Created by Python create_sdf_string function

 29 33  0  0  0  0  0  0  0  0999 V2000
   10.7215   -3.3326   17.6437 C   0  0  0  0  0  0  0  0  0  0  0  0
    9.9489   -3.4675   24.6487 N   0  0  0  0  0  0  0  0  0  0  0  0
   10.0172   -4.4740   17.4101 C   0  0  0  0  0  0  0  0  0  0  0  0
    6.9051   -7.9575   16.4222 C   0  0  0  0  0  0  0  0  0  0  0  0
    8.9969   -6.3552   17.9668 N   0  0  0  0  0  0  0  0  0  0  0  0
   10.6702   -3.9051   22.4070 C   0  0  0  0  0  0  0  0  0  0  0  0
   11.0625   -3.0028   18.8894 C   0  0  0  0  0  0  0  0  0  0  0  0
    5.6180   -7.9194   16.1754 O   0  0  0  0  0  0  0  0  0  0  0  0
    9.7259   -5.3080   18.4485 C   0  0  0  0  0  0  0  0  0  0  0  0
    9.4578   -5.0200   16.3036 N   0  0  0  0  0  0  0  0  0  0  0  0
    5.0287   -8.9365   16.8223 C   0  0  0  0  0  0  0  0  0  0  0  0
    8.7742   -6.1498   16.6764 C   0  0  0  0  0  0  0  0  0  0  0  0
   10.9418   -3.4032   21.2053 O   0  0  0  0  0  0  0  0  0  0  0  0
    1.4797   -8.6258   16.2950 C   0  0  0  0  0  0  0  0  0  0  0  0
    9.2861   -1.2743   25.3585 C   0  0  0  0  0  0  0  0  0  0  0  0
    1.8892  -10.3985   17.7511 N   0  0  0  0  0  0  0  0  0  0  0  0
    9.6210   -0.6952   24.0976 C   0  0  0  0  0  0  0  0  0  0  0  0
    7.0792   -9.0217   17.1429 C   0  0  0  0  0  0  0  0  0  0  0  0
    3.1713  -10.1816   17.6634 C   0  0  0  0  0  0  0  0  0  0  0  0
    2.7878   -8.3822   16.2137 C   0  0  0  0  0  0  0  0  0  0  0  0
    9.4601   -2.6590   25.6528 C   0  0  0  0  0  0  0  0  0  0  0  0
   10.1182   -1.5672   23.1165 C   0  0  0  0  0  0  0  0  0  0  0  0
    1.0552   -9.6360   17.0650 C   0  0  0  0  0  0  0  0  0  0  0  0
    3.6519   -9.1783   16.9039 C   0  0  0  0  0  0  0  0  0  0  0  0
    7.8675   -7.0096   15.9415 C   0  0  0  0  0  0  0  0  0  0  0  0
    5.9733   -9.6553   17.3832 N   0  0  0  0  0  0  0  0  0  0  0  0
   10.2411   -2.9363   23.4301 C   0  0  0  0  0  0  0  0  0  0  0  0
   10.7288   -3.8197   19.9525 C   0  0  0  0  0  0  0  0  0  0  0  0
   10.1189   -5.0054   19.6987 C   0  0  0  0  0  0  0  0  0  0  0  0
  1  3  4  0
  1  7  4  0
  2 21  4  0
  2 27  4  0
  3  9  4  0
  3 10  4  0
  4  8  4  0
  4 18  4  0
  4 25  1  0
  5  9  4  0
  5 12  4  0
  6 13  1  0
  6 27  1  0
  7 28  4  0
  8 11  4  0
  9 29  4  0
 10 12  4  0
 11 24  1  0
 11 26  4  0
 12 25  1  0
 13 28  1  0
 14 20  4  0
 14 23  4  0
 15 17  4  0
 15 21  4  0
 16 19  4  0
 16 23  4  0
 17 22  4  0
 18 26  4  0
 19 24  4  0
 20 24  4  0
 22 27  4  0
 28 29  4  0
M  END
$$$$

 Created by Python create_sdf_string function

 29 33  0  0  0  0  0  0  0  0999 V2000
   10.7215   -3.3326   17.6437 C   0  0  0  0  0  0  0  0  0  0  0  0
    9.9489   -3.4675   24.6487 N   0  0  0  0  0  0  0  0  0  0  0  0
   10.0172   -4.4740   17.4101 C   0  0  0  0  0  0  0  0  0  0  0  0
    6.9051   -7.9575   16.4222 C   0  0  0  0  0  0  0  0  0  0  0  0
    8.9969   -6.3552   17.9668 N   0  0  0  0  0  0  0  0  0  0  0  0
   10.6702   -3.9051   22.4070 C   0  0  0  0  0  0  0  0  0  0  0  0
   11.0625   -3.0028   18.8894 C   0  0  0  0  0  0  0  0  0  0  0  0
    5.6180   -7.9194   16.1754 O   0  0  0  0  0  0  0  0  0  0  0  0
    9.7259   -5.3080   18.4485 C   0  0  0  0  0  0  0  0  0  0  0  0
    9.4578   -5.0200   16.3036 N   0  0  0  0  0  0  0  0  0  0  0  0
    5.0287   -8.9365   16.8223 C   0  0  0  0  0  0  0  0  0  0  0  0
    8.7742   -6.1498   16.6764 C   0  0  0  0  0  0  0  0  0  0  0  0
   10.9418   -3.4032   21.2053 O   0  0  0  0  0  0  0  0  0  0  0  0
    1.4797   -8.6258   16.2950 C   0  0  0  0  0  0  0  0  0  0  0  0
    9.2861   -1.2743   25.3585 C   0  0  0  0  0  0  0  0  0  0  0  0
    1.8892  -10.3985   17.7511 N   0  0  0  0  0  0  0  0  0  0  0  0
    9.6210   -0.6952   24.0976 C   0  0  0  0  0  0  0  0  0  0  0  0
    7.0792   -9.0217   17.1429 C   0  0  0  0  0  0  0  0  0  0  0  0
    3.1713  -10.1816   17.6634 C   0  0  0  0  0  0  0  0  0  0  0  0
    2.7878   -8.3822   16.2137 C   0  0  0  0  0  0  0  0  0  0  0  0
    9.4601   -2.6590   25.6528 C   0  0  0  0  0  0  0  0  0  0  0  0
   10.1182   -1.5672   23.1165 C   0  0  0  0  0  0  0  0  0  0  0  0
    1.0552   -9.6360   17.0650 C   0  0  0  0  0  0  0  0  0  0  0  0
    3.6519   -9.1783   16.9039 C   0  0  0  0  0  0  0  0  0  0  0  0
    7.8675   -7.0096   15.9415 C   0  0  0  0  0  0  0  0  0  0  0  0
    5.9733   -9.6553   17.3832 N   0  0  0  0  0  0  0  0  0  0  0  0
   10.2411   -2.9363   23.4301 C   0  0  0  0  0  0  0  0  0  0  0  0
   10.7288   -3.8197   19.9525 C   0  0  0  0  0  0  0  0  0  0  0  0
   10.1189   -5.0054   19.6987 C   0  0  0  0  0  0  0  0  0  0  0  0
  1  3  4  0
  1  7  4  0
  2 21  4  0
  2 27  4  0
  3  9  4  0
  3 10  4  0
  4  8  4  0
  4 18  4  0
  4 25  1  0
  5  9  4  0
  5 12  4  0
  6 13  1  0
  6 27  1  0
  7 28  4  0
  8 11  4  0
  9 29  4  0
 10 12  4  0
 11 24  1  0
 11 26  4  0
 12 25  1  0
 13 28  1  0
 14 20  4  0
 14 23  4  0
 15 17  4  0
 15 21  4  0
 16 19  4  0
 16 23  4  0
 17 22  4  0
 18 26  4  0
 19 24  4  0
 20 24  4  0
 22 27  4  0
 28 29  4  0
M  END
$$$$

 Created by Python create_sdf_string function

 29 33  0  0  0  0  0  0  0  0999 V2000
   10.7215   -3.3326   17.6437 C   0  0  0  0  0  0  0  0  0  0  0  0
    9.9489   -3.4675   24.6487 N   0  0  0  0  0  0  0  0  0  0  0  0
   10.0172   -4.4740   17.4101 C   0  0  0  0  0  0  0  0  0  0  0  0
    6.9051   -7.9575   16.4222 C   0  0  0  0  0  0  0  0  0  0  0  0
    8.9969   -6.3552   17.9668 N   0  0  0  0  0  0  0  0  0  0  0  0
   10.6702   -3.9051   22.4070 C   0  0  0  0  0  0  0  0  0  0  0  0
   11.0625   -3.0028   18.8894 C   0  0  0  0  0  0  0  0  0  0  0  0
    5.6180   -7.9194   16.1754 O   0  0  0  0  0  0  0  0  0  0  0  0
    9.7259   -5.3080   18.4485 C   0  0  0  0  0  0  0  0  0  0  0  0
    9.4578   -5.0200   16.3036 N   0  0  0  0  0  0  0  0  0  0  0  0
    5.0287   -8.9365   16.8223 C   0  0  0  0  0  0  0  0  0  0  0  0
    8.7742   -6.1498   16.6764 C   0  0  0  0  0  0  0  0  0  0  0  0
   10.9418   -3.4032   21.2053 O   0  0  0  0  0  0  0  0  0  0  0  0
    1.4797   -8.6258   16.2950 C   0  0  0  0  0  0  0  0  0  0  0  0
    9.2861   -1.2743   25.3585 C   0  0  0  0  0  0  0  0  0  0  0  0
    1.8892  -10.3985   17.7511 N   0  0  0  0  0  0  0  0  0  0  0  0
    9.6210   -0.6952   24.0976 C   0  0  0  0  0  0  0  0  0  0  0  0
    7.0792   -9.0217   17.1429 C   0  0  0  0  0  0  0  0  0  0  0  0
    3.1713  -10.1816   17.6634 C   0  0  0  0  0  0  0  0  0  0  0  0
    2.7878   -8.3822   16.2137 C   0  0  0  0  0  0  0  0  0  0  0  0
    9.4601   -2.6590   25.6528 C   0  0  0  0  0  0  0  0  0  0  0  0
   10.1182   -1.5672   23.1165 C   0  0  0  0  0  0  0  0  0  0  0  0
    1.0552   -9.6360   17.0650 C   0  0  0  0  0  0  0  0  0  0  0  0
    3.6519   -9.1783   16.9039 C   0  0  0  0  0  0  0  0  0  0  0  0
    7.8675   -7.0096   15.9415 C   0  0  0  0  0  0  0  0  0  0  0  0
    5.9733   -9.6553   17.3832 N   0  0  0  0  0  0  0  0  0  0  0  0
   10.2411   -2.9363   23.4301 C   0  0  0  0  0  0  0  0  0  0  0  0
   10.7288   -3.8197   19.9525 C   0  0  0  0  0  0  0  0  0  0  0  0
   10.1189   -5.0054   19.6987 C   0  0  0  0  0  0  0  0  0  0  0  0
  1  3  4  0
  1  7  4  0
  2 21  4  0
  2 27  4  0
  3  9  4  0
  3 10  4  0
  4  8  4  0
  4 18  4  0
  4 25  1  0
  5  9  4  0
  5 12  4  0
  6 13  1  0
  6 27  1  0
  7 28  4  0
  8 11  4  0
  9 29  4  0
 10 12  4  0
 11 24  1  0
 11 26  4  0
 12 25  1  0
 13 28  1  0
 14 20  4  0
 14 23  4  0
 15 17  4  0
 15 21  4  0
 16 19  4  0
 16 23  4  0
 17 22  4  0
 18 26  4  0
 19 24  4  0
 20 24  4  0
 22 27  4  0
 28 29  4  0
M  END
$$$$

 Created by Python create_sdf_string function

 29 33  0  0  0  0  0  0  0  0999 V2000
   10.7215   -3.3326   17.6437 C   0  0  0  0  0  0  0  0  0  0  0  0
    9.9489   -3.4675   24.6487 N   0  0  0  0  0  0  0  0  0  0  0  0
   10.0172   -4.4740   17.4101 C   0  0  0  0  0  0  0  0  0  0  0  0
    6.9051   -7.9575   16.4222 C   0  0  0  0  0  0  0  0  0  0  0  0
    8.9969   -6.3552   17.9668 N   0  0  0  0  0  0  0  0  0  0  0  0
   10.6702   -3.9051   22.4070 C   0  0  0  0  0  0  0  0  0  0  0  0
   11.0625   -3.0028   18.8894 C   0  0  0  0  0  0  0  0  0  0  0  0
    5.6180   -7.9194   16.1754 O   0  0  0  0  0  0  0  0  0  0  0  0
    9.7259   -5.3080   18.4485 C   0  0  0  0  0  0  0  0  0  0  0  0
    9.4578   -5.0200   16.3036 N   0  0  0  0  0  0  0  0  0  0  0  0
    5.0287   -8.9365   16.8223 C   0  0  0  0  0  0  0  0  0  0  0  0
    8.7742   -6.1498   16.6764 C   0  0  0  0  0  0  0  0  0  0  0  0
   10.9418   -3.4032   21.2053 O   0  0  0  0  0  0  0  0  0  0  0  0
    1.4797   -8.6258   16.2950 C   0  0  0  0  0  0  0  0  0  0  0  0
    9.2861   -1.2743   25.3585 C   0  0  0  0  0  0  0  0  0  0  0  0
    1.8892  -10.3985   17.7511 N   0  0  0  0  0  0  0  0  0  0  0  0
    9.6210   -0.6952   24.0976 C   0  0  0  0  0  0  0  0  0  0  0  0
    7.0792   -9.0217   17.1429 C   0  0  0  0  0  0  0  0  0  0  0  0
    3.1713  -10.1816   17.6634 C   0  0  0  0  0  0  0  0  0  0  0  0
    2.7878   -8.3822   16.2137 C   0  0  0  0  0  0  0  0  0  0  0  0
    9.4601   -2.6590   25.6528 C   0  0  0  0  0  0  0  0  0  0  0  0
   10.1182   -1.5672   23.1165 C   0  0  0  0  0  0  0  0  0  0  0  0
    1.0552   -9.6360   17.0650 C   0  0  0  0  0  0  0  0  0  0  0  0
    3.6519   -9.1783   16.9039 C   0  0  0  0  0  0  0  0  0  0  0  0
    7.8675   -7.0096   15.9415 C   0  0  0  0  0  0  0  0  0  0  0  0
    5.9733   -9.6553   17.3832 N   0  0  0  0  0  0  0  0  0  0  0  0
   10.2411   -2.9363   23.4301 C   0  0  0  0  0  0  0  0  0  0  0  0
   10.7288   -3.8197   19.9525 C   0  0  0  0  0  0  0  0  0  0  0  0
   10.1189   -5.0054   19.6987 C   0  0  0  0  0  0  0  0  0  0  0  0
  1  3  4  0
  1  7  4  0
  2 21  4  0
  2 27  4  0
  3  9  4  0
  3 10  4  0
  4  8  4  0
  4 18  4  0
  4 25  1  0
  5  9  4  0
  5 12  4  0
  6 13  1  0
  6 27  1  0
  7 28  4  0
  8 11  4  0
  9 29  4  0
 10 12  4  0
 11 24  1  0
 11 26  4  0
 12 25  1  0
 13 28  1  0
 14 20  4  0
 14 23  4  0
 15 17  4  0
 15 21  4  0
 16 19  4  0
 16 23  4  0
 17 22  4  0
 18 26  4  0
 19 24  4  0
 20 24  4  0
 22 27  4  0
 28 29  4  0
M  END
$$$$

 Created by Python create_sdf_string function

 29 33  0  0  0  0  0  0  0  0999 V2000
   10.7215   -3.3326   17.6437 C   0  0  0  0  0  0  0  0  0  0  0  0
    9.9489   -3.4675   24.6487 N   0  0  0  0  0  0  0  0  0  0  0  0
   10.0172   -4.4740   17.4101 C   0  0  0  0  0  0  0  0  0  0  0  0
    6.9051   -7.9575   16.4222 C   0  0  0  0  0  0  0  0  0  0  0  0
    8.9969   -6.3552   17.9668 N   0  0  0  0  0  0  0  0  0  0  0  0
   10.6702   -3.9051   22.4070 C   0  0  0  0  0  0  0  0  0  0  0  0
   11.0625   -3.0028   18.8894 C   0  0  0  0  0  0  0  0  0  0  0  0
    5.6180   -7.9194   16.1754 O   0  0  0  0  0  0  0  0  0  0  0  0
    9.7259   -5.3080   18.4485 C   0  0  0  0  0  0  0  0  0  0  0  0
    9.4578   -5.0200   16.3036 N   0  0  0  0  0  0  0  0  0  0  0  0
    5.0287   -8.9365   16.8223 C   0  0  0  0  0  0  0  0  0  0  0  0
    8.7742   -6.1498   16.6764 C   0  0  0  0  0  0  0  0  0  0  0  0
   10.9418   -3.4032   21.2053 O   0  0  0  0  0  0  0  0  0  0  0  0
    1.4797   -8.6258   16.2950 C   0  0  0  0  0  0  0  0  0  0  0  0
    9.2861   -1.2743   25.3585 C   0  0  0  0  0  0  0  0  0  0  0  0
    1.8892  -10.3985   17.7511 N   0  0  0  0  0  0  0  0  0  0  0  0
    9.6210   -0.6952   24.0976 C   0  0  0  0  0  0  0  0  0  0  0  0
    7.0792   -9.0217   17.1429 C   0  0  0  0  0  0  0  0  0  0  0  0
    3.1713  -10.1816   17.6634 C   0  0  0  0  0  0  0  0  0  0  0  0
    2.7878   -8.3822   16.2137 C   0  0  0  0  0  0  0  0  0  0  0  0
    9.4601   -2.6590   25.6528 C   0  0  0  0  0  0  0  0  0  0  0  0
   10.1182   -1.5672   23.1165 C   0  0  0  0  0  0  0  0  0  0  0  0
    1.0552   -9.6360   17.0650 C   0  0  0  0  0  0  0  0  0  0  0  0
    3.6519   -9.1783   16.9039 C   0  0  0  0  0  0  0  0  0  0  0  0
    7.8675   -7.0096   15.9415 C   0  0  0  0  0  0  0  0  0  0  0  0
    5.9733   -9.6553   17.3832 N   0  0  0  0  0  0  0  0  0  0  0  0
   10.2411   -2.9363   23.4301 C   0  0  0  0  0  0  0  0  0  0  0  0
   10.7288   -3.8197   19.9525 C   0  0  0  0  0  0  0  0  0  0  0  0
   10.1189   -5.0054   19.6987 C   0  0  0  0  0  0  0  0  0  0  0  0
  1  3  4  0
  1  7  4  0
  2 21  4  0
  2 27  4  0
  3  9  4  0
  3 10  4  0
  4  8  4  0
  4 18  4  0
  4 25  1  0
  5  9  4  0
  5 12  4  0
  6 13  1  0
  6 27  1  0
  7 28  4  0
  8 11  4  0
  9 29  4  0
 10 12  4  0
 11 24  1  0
 11 26  4  0
 12 25  1  0
 13 28  1  0
 14 20  4  0
 14 23  4  0
 15 17  4  0
 15 21  4  0
 16 19  4  0
 16 23  4  0
 17 22  4  0
 18 26  4  0
 19 24  4  0
 20 24  4  0
 22 27  4  0
 28 29  4  0
M  END
$$$$

 Created by Python create_sdf_string function

 29 33  0  0  0  0  0  0  0  0999 V2000
   10.7215   -3.3326   17.6437 C   0  0  0  0  0  0  0  0  0  0  0  0
    9.9489   -3.4675   24.6487 N   0  0  0  0  0  0  0  0  0  0  0  0
   10.0172   -4.4740   17.4101 C   0  0  0  0  0  0  0  0  0  0  0  0
    6.9051   -7.9575   16.4222 C   0  0  0  0  0  0  0  0  0  0  0  0
    8.9969   -6.3552   17.9668 N   0  0  0  0  0  0  0  0  0  0  0  0
   10.6702   -3.9051   22.4070 C   0  0  0  0  0  0  0  0  0  0  0  0
   11.0625   -3.0028   18.8894 C   0  0  0  0  0  0  0  0  0  0  0  0
    5.6180   -7.9194   16.1754 O   0  0  0  0  0  0  0  0  0  0  0  0
    9.7259   -5.3080   18.4485 C   0  0  0  0  0  0  0  0  0  0  0  0
    9.4578   -5.0200   16.3036 N   0  0  0  0  0  0  0  0  0  0  0  0
    5.0287   -8.9365   16.8223 C   0  0  0  0  0  0  0  0  0  0  0  0
    8.7742   -6.1498   16.6764 C   0  0  0  0  0  0  0  0  0  0  0  0
   10.9418   -3.4032   21.2053 O   0  0  0  0  0  0  0  0  0  0  0  0
    1.4797   -8.6258   16.2950 C   0  0  0  0  0  0  0  0  0  0  0  0
    9.2861   -1.2743   25.3585 C   0  0  0  0  0  0  0  0  0  0  0  0
    1.8892  -10.3985   17.7511 N   0  0  0  0  0  0  0  0  0  0  0  0
    9.6210   -0.6952   24.0976 C   0  0  0  0  0  0  0  0  0  0  0  0
    7.0792   -9.0217   17.1429 C   0  0  0  0  0  0  0  0  0  0  0  0
    3.1713  -10.1816   17.6634 C   0  0  0  0  0  0  0  0  0  0  0  0
    2.7878   -8.3822   16.2137 C   0  0  0  0  0  0  0  0  0  0  0  0
    9.4601   -2.6590   25.6528 C   0  0  0  0  0  0  0  0  0  0  0  0
   10.1182   -1.5672   23.1165 C   0  0  0  0  0  0  0  0  0  0  0  0
    1.0552   -9.6360   17.0650 C   0  0  0  0  0  0  0  0  0  0  0  0
    3.6519   -9.1783   16.9039 C   0  0  0  0  0  0  0  0  0  0  0  0
    7.8675   -7.0096   15.9415 C   0  0  0  0  0  0  0  0  0  0  0  0
    5.9733   -9.6553   17.3832 N   0  0  0  0  0  0  0  0  0  0  0  0
   10.2411   -2.9363   23.4301 C   0  0  0  0  0  0  0  0  0  0  0  0
   10.7288   -3.8197   19.9525 C   0  0  0  0  0  0  0  0  0  0  0  0
   10.1189   -5.0054   19.6987 C   0  0  0  0  0  0  0  0  0  0  0  0
  1  3  4  0
  1  7  4  0
  2 21  4  0
  2 27  4  0
  3  9  4  0
  3 10  4  0
  4  8  4  0
  4 18  4  0
  4 25  1  0
  5  9  4  0
  5 12  4  0
  6 13  1  0
  6 27  1  0
  7 28  4  0
  8 11  4  0
  9 29  4  0
 10 12  4  0
 11 24  1  0
 11 26  4  0
 12 25  1  0
 13 28  1  0
 14 20  4  0
 14 23  4  0
 15 17  4  0
 15 21  4  0
 16 19  4  0
 16 23  4  0
 17 22  4  0
 18 26  4  0
 19 24  4  0
 20 24  4  0
 22 27  4  0
 28 29  4  0
M  END
$$$$

 Created by Python create_sdf_string function

 29 33  0  0  0  0  0  0  0  0999 V2000
   10.7215   -3.3326   17.6437 C   0  0  0  0  0  0  0  0  0  0  0  0
    9.9489   -3.4675   24.6487 N   0  0  0  0  0  0  0  0  0  0  0  0
   10.0172   -4.4740   17.4101 C   0  0  0  0  0  0  0  0  0  0  0  0
    6.9051   -7.9575   16.4222 C   0  0  0  0  0  0  0  0  0  0  0  0
    8.9969   -6.3552   17.9668 N   0  0  0  0  0  0  0  0  0  0  0  0
   10.6702   -3.9051   22.4070 C   0  0  0  0  0  0  0  0  0  0  0  0
   11.0625   -3.0028   18.8894 C   0  0  0  0  0  0  0  0  0  0  0  0
    5.6180   -7.9194   16.1754 O   0  0  0  0  0  0  0  0  0  0  0  0
    9.7259   -5.3080   18.4485 C   0  0  0  0  0  0  0  0  0  0  0  0
    9.4578   -5.0200   16.3036 N   0  0  0  0  0  0  0  0  0  0  0  0
    5.0287   -8.9365   16.8223 C   0  0  0  0  0  0  0  0  0  0  0  0
    8.7742   -6.1498   16.6764 C   0  0  0  0  0  0  0  0  0  0  0  0
   10.9418   -3.4032   21.2053 O   0  0  0  0  0  0  0  0  0  0  0  0
    1.4797   -8.6258   16.2950 C   0  0  0  0  0  0  0  0  0  0  0  0
    9.2861   -1.2743   25.3585 C   0  0  0  0  0  0  0  0  0  0  0  0
    1.8892  -10.3985   17.7511 N   0  0  0  0  0  0  0  0  0  0  0  0
    9.6210   -0.6952   24.0976 C   0  0  0  0  0  0  0  0  0  0  0  0
    7.0792   -9.0217   17.1429 C   0  0  0  0  0  0  0  0  0  0  0  0
    3.1713  -10.1816   17.6634 C   0  0  0  0  0  0  0  0  0  0  0  0
    2.7878   -8.3822   16.2137 C   0  0  0  0  0  0  0  0  0  0  0  0
    9.4601   -2.6590   25.6528 C   0  0  0  0  0  0  0  0  0  0  0  0
   10.1182   -1.5672   23.1165 C   0  0  0  0  0  0  0  0  0  0  0  0
    1.0552   -9.6360   17.0650 C   0  0  0  0  0  0  0  0  0  0  0  0
    3.6519   -9.1783   16.9039 C   0  0  0  0  0  0  0  0  0  0  0  0
    7.8675   -7.0096   15.9415 C   0  0  0  0  0  0  0  0  0  0  0  0
    5.9733   -9.6553   17.3832 N   0  0  0  0  0  0  0  0  0  0  0  0
   10.2411   -2.9363   23.4301 C   0  0  0  0  0  0  0  0  0  0  0  0
   10.7288   -3.8197   19.9525 C   0  0  0  0  0  0  0  0  0  0  0  0
   10.1189   -5.0054   19.6987 C   0  0  0  0  0  0  0  0  0  0  0  0
  1  3  4  0
  1  7  4  0
  2 21  4  0
  2 27  4  0
  3  9  4  0
  3 10  4  0
  4  8  4  0
  4 18  4  0
  4 25  1  0
  5  9  4  0
  5 12  4  0
  6 13  1  0
  6 27  1  0
  7 28  4  0
  8 11  4  0
  9 29  4  0
 10 12  4  0
 11 24  1  0
 11 26  4  0
 12 25  1  0
 13 28  1  0
 14 20  4  0
 14 23  4  0
 15 17  4  0
 15 21  4  0
 16 19  4  0
 16 23  4  0
 17 22  4  0
 18 26  4  0
 19 24  4  0
 20 24  4  0
 22 27  4  0
 28 29  4  0
M  END
$$$$

 Created by Python create_sdf_string function

 29 33  0  0  0  0  0  0  0  0999 V2000
   10.7215   -3.3326   17.6437 C   0  0  0  0  0  0  0  0  0  0  0  0
    9.9489   -3.4675   24.6487 N   0  0  0  0  0  0  0  0  0  0  0  0
   10.0172   -4.4740   17.4101 C   0  0  0  0  0  0  0  0  0  0  0  0
    6.9051   -7.9575   16.4222 C   0  0  0  0  0  0  0  0  0  0  0  0
    8.9969   -6.3552   17.9668 N   0  0  0  0  0  0  0  0  0  0  0  0
   10.6702   -3.9051   22.4070 C   0  0  0  0  0  0  0  0  0  0  0  0
   11.0625   -3.0028   18.8894 C   0  0  0  0  0  0  0  0  0  0  0  0
    5.6180   -7.9194   16.1754 O   0  0  0  0  0  0  0  0  0  0  0  0
    9.7259   -5.3080   18.4485 C   0  0  0  0  0  0  0  0  0  0  0  0
    9.4578   -5.0200   16.3036 N   0  0  0  0  0  0  0  0  0  0  0  0
    5.0287   -8.9365   16.8223 C   0  0  0  0  0  0  0  0  0  0  0  0
    8.7742   -6.1498   16.6764 C   0  0  0  0  0  0  0  0  0  0  0  0
   10.9418   -3.4032   21.2053 O   0  0  0  0  0  0  0  0  0  0  0  0
    1.4797   -8.6258   16.2950 C   0  0  0  0  0  0  0  0  0  0  0  0
    9.2861   -1.2743   25.3585 C   0  0  0  0  0  0  0  0  0  0  0  0
    1.8892  -10.3985   17.7511 N   0  0  0  0  0  0  0  0  0  0  0  0
    9.6210   -0.6952   24.0976 C   0  0  0  0  0  0  0  0  0  0  0  0
    7.0792   -9.0217   17.1429 C   0  0  0  0  0  0  0  0  0  0  0  0
    3.1713  -10.1816   17.6634 C   0  0  0  0  0  0  0  0  0  0  0  0
    2.7878   -8.3822   16.2137 C   0  0  0  0  0  0  0  0  0  0  0  0
    9.4601   -2.6590   25.6528 C   0  0  0  0  0  0  0  0  0  0  0  0
   10.1182   -1.5672   23.1165 C   0  0  0  0  0  0  0  0  0  0  0  0
    1.0552   -9.6360   17.0650 C   0  0  0  0  0  0  0  0  0  0  0  0
    3.6519   -9.1783   16.9039 C   0  0  0  0  0  0  0  0  0  0  0  0
    7.8675   -7.0096   15.9415 C   0  0  0  0  0  0  0  0  0  0  0  0
    5.9733   -9.6553   17.3832 N   0  0  0  0  0  0  0  0  0  0  0  0
   10.2411   -2.9363   23.4301 C   0  0  0  0  0  0  0  0  0  0  0  0
   10.7288   -3.8197   19.9525 C   0  0  0  0  0  0  0  0  0  0  0  0
   10.1189   -5.0054   19.6987 C   0  0  0  0  0  0  0  0  0  0  0  0
  1  3  4  0
  1  7  4  0
  2 21  4  0
  2 27  4  0
  3  9  4  0
  3 10  4  0
  4  8  4  0
  4 18  4  0
  4 25  1  0
  5  9  4  0
  5 12  4  0
  6 13  1  0
  6 27  1  0
  7 28  4  0
  8 11  4  0
  9 29  4  0
 10 12  4  0
 11 24  1  0
 11 26  4  0
 12 25  1  0
 13 28  1  0
 14 20  4  0
 14 23  4  0
 15 17  4  0
 15 21  4  0
 16 19  4  0
 16 23  4  0
 17 22  4  0
 18 26  4  0
 19 24  4  0
 20 24  4  0
 22 27  4  0
 28 29  4  0
M  END
$$$$

 Created by Python create_sdf_string function

 29 33  0  0  0  0  0  0  0  0999 V2000
   10.7215   -3.3326   17.6437 C   0  0  0  0  0  0  0  0  0  0  0  0
    9.9489   -3.4675   24.6487 N   0  0  0  0  0  0  0  0  0  0  0  0
   10.0172   -4.4740   17.4101 C   0  0  0  0  0  0  0  0  0  0  0  0
    6.9051   -7.9575   16.4222 C   0  0  0  0  0  0  0  0  0  0  0  0
    8.9969   -6.3552   17.9668 N   0  0  0  0  0  0  0  0  0  0  0  0
   10.6702   -3.9051   22.4070 C   0  0  0  0  0  0  0  0  0  0  0  0
   11.0625   -3.0028   18.8894 C   0  0  0  0  0  0  0  0  0  0  0  0
    5.6180   -7.9194   16.1754 O   0  0  0  0  0  0  0  0  0  0  0  0
    9.7259   -5.3080   18.4485 C   0  0  0  0  0  0  0  0  0  0  0  0
    9.4578   -5.0200   16.3036 N   0  0  0  0  0  0  0  0  0  0  0  0
    5.0287   -8.9365   16.8223 C   0  0  0  0  0  0  0  0  0  0  0  0
    8.7742   -6.1498   16.6764 C   0  0  0  0  0  0  0  0  0  0  0  0
   10.9418   -3.4032   21.2053 O   0  0  0  0  0  0  0  0  0  0  0  0
    1.4797   -8.6258   16.2950 C   0  0  0  0  0  0  0  0  0  0  0  0
    9.2861   -1.2743   25.3585 C   0  0  0  0  0  0  0  0  0  0  0  0
    1.8892  -10.3985   17.7511 N   0  0  0  0  0  0  0  0  0  0  0  0
    9.6210   -0.6952   24.0976 C   0  0  0  0  0  0  0  0  0  0  0  0
    7.0792   -9.0217   17.1429 C   0  0  0  0  0  0  0  0  0  0  0  0
    3.1713  -10.1816   17.6634 C   0  0  0  0  0  0  0  0  0  0  0  0
    2.7878   -8.3822   16.2137 C   0  0  0  0  0  0  0  0  0  0  0  0
    9.4601   -2.6590   25.6528 C   0  0  0  0  0  0  0  0  0  0  0  0
   10.1182   -1.5672   23.1165 C   0  0  0  0  0  0  0  0  0  0  0  0
    1.0552   -9.6360   17.0650 C   0  0  0  0  0  0  0  0  0  0  0  0
    3.6519   -9.1783   16.9039 C   0  0  0  0  0  0  0  0  0  0  0  0
    7.8675   -7.0096   15.9415 C   0  0  0  0  0  0  0  0  0  0  0  0
    5.9733   -9.6553   17.3832 N   0  0  0  0  0  0  0  0  0  0  0  0
   10.2411   -2.9363   23.4301 C   0  0  0  0  0  0  0  0  0  0  0  0
   10.7288   -3.8197   19.9525 C   0  0  0  0  0  0  0  0  0  0  0  0
   10.1189   -5.0054   19.6987 C   0  0  0  0  0  0  0  0  0  0  0  0
  1  3  4  0
  1  7  4  0
  2 21  4  0
  2 27  4  0
  3  9  4  0
  3 10  4  0
  4  8  4  0
  4 18  4  0
  4 25  1  0
  5  9  4  0
  5 12  4  0
  6 13  1  0
  6 27  1  0
  7 28  4  0
  8 11  4  0
  9 29  4  0
 10 12  4  0
 11 24  1  0
 11 26  4  0
 12 25  1  0
 13 28  1  0
 14 20  4  0
 14 23  4  0
 15 17  4  0
 15 21  4  0
 16 19  4  0
 16 23  4  0
 17 22  4  0
 18 26  4  0
 19 24  4  0
 20 24  4  0
 22 27  4  0
 28 29  4  0
M  END
$$$$

 Created by Python create_sdf_string function

 29 33  0  0  0  0  0  0  0  0999 V2000
   10.7215   -3.3326   17.6437 C   0  0  0  0  0  0  0  0  0  0  0  0
    9.9489   -3.4675   24.6487 N   0  0  0  0  0  0  0  0  0  0  0  0
   10.0172   -4.4740   17.4101 C   0  0  0  0  0  0  0  0  0  0  0  0
    6.9051   -7.9575   16.4222 C   0  0  0  0  0  0  0  0  0  0  0  0
    8.9969   -6.3552   17.9668 N   0  0  0  0  0  0  0  0  0  0  0  0
   10.6702   -3.9051   22.4070 C   0  0  0  0  0  0  0  0  0  0  0  0
   11.0625   -3.0028   18.8894 C   0  0  0  0  0  0  0  0  0  0  0  0
    5.6180   -7.9194   16.1754 O   0  0  0  0  0  0  0  0  0  0  0  0
    9.7259   -5.3080   18.4485 C   0  0  0  0  0  0  0  0  0  0  0  0
    9.4578   -5.0200   16.3036 N   0  0  0  0  0  0  0  0  0  0  0  0
    5.0287   -8.9365   16.8223 C   0  0  0  0  0  0  0  0  0  0  0  0
    8.7742   -6.1498   16.6764 C   0  0  0  0  0  0  0  0  0  0  0  0
   10.9418   -3.4032   21.2053 O   0  0  0  0  0  0  0  0  0  0  0  0
    1.4797   -8.6258   16.2950 C   0  0  0  0  0  0  0  0  0  0  0  0
    9.2861   -1.2743   25.3585 C   0  0  0  0  0  0  0  0  0  0  0  0
    1.8892  -10.3985   17.7511 N   0  0  0  0  0  0  0  0  0  0  0  0
    9.6210   -0.6952   24.0976 C   0  0  0  0  0  0  0  0  0  0  0  0
    7.0792   -9.0217   17.1429 C   0  0  0  0  0  0  0  0  0  0  0  0
    3.1713  -10.1816   17.6634 C   0  0  0  0  0  0  0  0  0  0  0  0
    2.7878   -8.3822   16.2137 C   0  0  0  0  0  0  0  0  0  0  0  0
    9.4601   -2.6590   25.6528 C   0  0  0  0  0  0  0  0  0  0  0  0
   10.1182   -1.5672   23.1165 C   0  0  0  0  0  0  0  0  0  0  0  0
    1.0552   -9.6360   17.0650 C   0  0  0  0  0  0  0  0  0  0  0  0
    3.6519   -9.1783   16.9039 C   0  0  0  0  0  0  0  0  0  0  0  0
    7.8675   -7.0096   15.9415 C   0  0  0  0  0  0  0  0  0  0  0  0
    5.9733   -9.6553   17.3832 N   0  0  0  0  0  0  0  0  0  0  0  0
   10.2411   -2.9363   23.4301 C   0  0  0  0  0  0  0  0  0  0  0  0
   10.7288   -3.8197   19.9525 C   0  0  0  0  0  0  0  0  0  0  0  0
   10.1189   -5.0054   19.6987 C   0  0  0  0  0  0  0  0  0  0  0  0
  1  3  4  0
  1  7  4  0
  2 21  4  0
  2 27  4  0
  3  9  4  0
  3 10  4  0
  4  8  4  0
  4 18  4  0
  4 25  1  0
  5  9  4  0
  5 12  4  0
  6 13  1  0
  6 27  1  0
  7 28  4  0
  8 11  4  0
  9 29  4  0
 10 12  4  0
 11 24  1  0
 11 26  4  0
 12 25  1  0
 13 28  1  0
 14 20  4  0
 14 23  4  0
 15 17  4  0
 15 21  4  0
 16 19  4  0
 16 23  4  0
 17 22  4  0
 18 26  4  0
 19 24  4  0
 20 24  4  0
 22 27  4  0
 28 29  4  0
M  END
$$$$

 Created by Python create_sdf_string function

 29 33  0  0  0  0  0  0  0  0999 V2000
   10.7215   -3.3326   17.6437 C   0  0  0  0  0  0  0  0  0  0  0  0
    9.9489   -3.4675   24.6487 N   0  0  0  0  0  0  0  0  0  0  0  0
   10.0172   -4.4740   17.4101 C   0  0  0  0  0  0  0  0  0  0  0  0
    6.9051   -7.9575   16.4222 C   0  0  0  0  0  0  0  0  0  0  0  0
    8.9969   -6.3552   17.9668 N   0  0  0  0  0  0  0  0  0  0  0  0
   10.6702   -3.9051   22.4070 C   0  0  0  0  0  0  0  0  0  0  0  0
   11.0625   -3.0028   18.8894 C   0  0  0  0  0  0  0  0  0  0  0  0
    5.6180   -7.9194   16.1754 O   0  0  0  0  0  0  0  0  0  0  0  0
    9.7259   -5.3080   18.4485 C   0  0  0  0  0  0  0  0  0  0  0  0
    9.4578   -5.0200   16.3036 N   0  0  0  0  0  0  0  0  0  0  0  0
    5.0287   -8.9365   16.8223 C   0  0  0  0  0  0  0  0  0  0  0  0
    8.7742   -6.1498   16.6764 C   0  0  0  0  0  0  0  0  0  0  0  0
   10.9418   -3.4032   21.2053 O   0  0  0  0  0  0  0  0  0  0  0  0
    1.4797   -8.6258   16.2950 C   0  0  0  0  0  0  0  0  0  0  0  0
    9.2861   -1.2743   25.3585 C   0  0  0  0  0  0  0  0  0  0  0  0
    1.8892  -10.3985   17.7511 N   0  0  0  0  0  0  0  0  0  0  0  0
    9.6210   -0.6952   24.0976 C   0  0  0  0  0  0  0  0  0  0  0  0
    7.0792   -9.0217   17.1429 C   0  0  0  0  0  0  0  0  0  0  0  0
    3.1713  -10.1816   17.6634 C   0  0  0  0  0  0  0  0  0  0  0  0
    2.7878   -8.3822   16.2137 C   0  0  0  0  0  0  0  0  0  0  0  0
    9.4601   -2.6590   25.6528 C   0  0  0  0  0  0  0  0  0  0  0  0
   10.1182   -1.5672   23.1165 C   0  0  0  0  0  0  0  0  0  0  0  0
    1.0552   -9.6360   17.0650 C   0  0  0  0  0  0  0  0  0  0  0  0
    3.6519   -9.1783   16.9039 C   0  0  0  0  0  0  0  0  0  0  0  0
    7.8675   -7.0096   15.9415 C   0  0  0  0  0  0  0  0  0  0  0  0
    5.9733   -9.6553   17.3832 N   0  0  0  0  0  0  0  0  0  0  0  0
   10.2411   -2.9363   23.4301 C   0  0  0  0  0  0  0  0  0  0  0  0
   10.7288   -3.8197   19.9525 C   0  0  0  0  0  0  0  0  0  0  0  0
   10.1189   -5.0054   19.6987 C   0  0  0  0  0  0  0  0  0  0  0  0
  1  3  4  0
  1  7  4  0
  2 21  4  0
  2 27  4  0
  3  9  4  0
  3 10  4  0
  4  8  4  0
  4 18  4  0
  4 25  1  0
  5  9  4  0
  5 12  4  0
  6 13  1  0
  6 27  1  0
  7 28  4  0
  8 11  4  0
  9 29  4  0
 10 12  4  0
 11 24  1  0
 11 26  4  0
 12 25  1  0
 13 28  1  0
 14 20  4  0
 14 23  4  0
 15 17  4  0
 15 21  4  0
 16 19  4  0
 16 23  4  0
 17 22  4  0
 18 26  4  0
 19 24  4  0
 20 24  4  0
 22 27  4  0
 28 29  4  0
M  END
$$$$

 Created by Python create_sdf_string function

 29 33  0  0  0  0  0  0  0  0999 V2000
   10.7215   -3.3326   17.6437 C   0  0  0  0  0  0  0  0  0  0  0  0
    9.9489   -3.4675   24.6487 N   0  0  0  0  0  0  0  0  0  0  0  0
   10.0172   -4.4740   17.4101 C   0  0  0  0  0  0  0  0  0  0  0  0
    6.9051   -7.9575   16.4222 C   0  0  0  0  0  0  0  0  0  0  0  0
    8.9969   -6.3552   17.9668 N   0  0  0  0  0  0  0  0  0  0  0  0
   10.6702   -3.9051   22.4070 C   0  0  0  0  0  0  0  0  0  0  0  0
   11.0625   -3.0028   18.8894 C   0  0  0  0  0  0  0  0  0  0  0  0
    5.6180   -7.9194   16.1754 O   0  0  0  0  0  0  0  0  0  0  0  0
    9.7259   -5.3080   18.4485 C   0  0  0  0  0  0  0  0  0  0  0  0
    9.4578   -5.0200   16.3036 N   0  0  0  0  0  0  0  0  0  0  0  0
    5.0287   -8.9365   16.8223 C   0  0  0  0  0  0  0  0  0  0  0  0
    8.7742   -6.1498   16.6764 C   0  0  0  0  0  0  0  0  0  0  0  0
   10.9418   -3.4032   21.2053 O   0  0  0  0  0  0  0  0  0  0  0  0
    1.4797   -8.6258   16.2950 C   0  0  0  0  0  0  0  0  0  0  0  0
    9.2861   -1.2743   25.3585 C   0  0  0  0  0  0  0  0  0  0  0  0
    1.8892  -10.3985   17.7511 N   0  0  0  0  0  0  0  0  0  0  0  0
    9.6210   -0.6952   24.0976 C   0  0  0  0  0  0  0  0  0  0  0  0
    7.0792   -9.0217   17.1429 C   0  0  0  0  0  0  0  0  0  0  0  0
    3.1713  -10.1816   17.6634 C   0  0  0  0  0  0  0  0  0  0  0  0
    2.7878   -8.3822   16.2137 C   0  0  0  0  0  0  0  0  0  0  0  0
    9.4601   -2.6590   25.6528 C   0  0  0  0  0  0  0  0  0  0  0  0
   10.1182   -1.5672   23.1165 C   0  0  0  0  0  0  0  0  0  0  0  0
    1.0552   -9.6360   17.0650 C   0  0  0  0  0  0  0  0  0  0  0  0
    3.6519   -9.1783   16.9039 C   0  0  0  0  0  0  0  0  0  0  0  0
    7.8675   -7.0096   15.9415 C   0  0  0  0  0  0  0  0  0  0  0  0
    5.9733   -9.6553   17.3832 N   0  0  0  0  0  0  0  0  0  0  0  0
   10.2411   -2.9363   23.4301 C   0  0  0  0  0  0  0  0  0  0  0  0
   10.7288   -3.8197   19.9525 C   0  0  0  0  0  0  0  0  0  0  0  0
   10.1189   -5.0054   19.6987 C   0  0  0  0  0  0  0  0  0  0  0  0
  1  3  4  0
  1  7  4  0
  2 21  4  0
  2 27  4  0
  3  9  4  0
  3 10  4  0
  4  8  4  0
  4 18  4  0
  4 25  1  0
  5  9  4  0
  5 12  4  0
  6 13  1  0
  6 27  1  0
  7 28  4  0
  8 11  4  0
  9 29  4  0
 10 12  4  0
 11 24  1  0
 11 26  4  0
 12 25  1  0
 13 28  1  0
 14 20  4  0
 14 23  4  0
 15 17  4  0
 15 21  4  0
 16 19  4  0
 16 23  4  0
 17 22  4  0
 18 26  4  0
 19 24  4  0
 20 24  4  0
 22 27  4  0
 28 29  4  0
M  END
$$$$

 Created by Python create_sdf_string function

 29 33  0  0  0  0  0  0  0  0999 V2000
   10.7215   -3.3326   17.6437 C   0  0  0  0  0  0  0  0  0  0  0  0
    9.9489   -3.4675   24.6487 N   0  0  0  0  0  0  0  0  0  0  0  0
   10.0172   -4.4740   17.4101 C   0  0  0  0  0  0  0  0  0  0  0  0
    6.9051   -7.9575   16.4222 C   0  0  0  0  0  0  0  0  0  0  0  0
    8.9969   -6.3552   17.9668 N   0  0  0  0  0  0  0  0  0  0  0  0
   10.6702   -3.9051   22.4070 C   0  0  0  0  0  0  0  0  0  0  0  0
   11.0625   -3.0028   18.8894 C   0  0  0  0  0  0  0  0  0  0  0  0
    5.6180   -7.9194   16.1754 O   0  0  0  0  0  0  0  0  0  0  0  0
    9.7259   -5.3080   18.4485 C   0  0  0  0  0  0  0  0  0  0  0  0
    9.4578   -5.0200   16.3036 N   0  0  0  0  0  0  0  0  0  0  0  0
    5.0287   -8.9365   16.8223 C   0  0  0  0  0  0  0  0  0  0  0  0
    8.7742   -6.1498   16.6764 C   0  0  0  0  0  0  0  0  0  0  0  0
   10.9418   -3.4032   21.2053 O   0  0  0  0  0  0  0  0  0  0  0  0
    1.4797   -8.6258   16.2950 C   0  0  0  0  0  0  0  0  0  0  0  0
    9.2861   -1.2743   25.3585 C   0  0  0  0  0  0  0  0  0  0  0  0
    1.8892  -10.3985   17.7511 N   0  0  0  0  0  0  0  0  0  0  0  0
    9.6210   -0.6952   24.0976 C   0  0  0  0  0  0  0  0  0  0  0  0
    7.0792   -9.0217   17.1429 C   0  0  0  0  0  0  0  0  0  0  0  0
    3.1713  -10.1816   17.6634 C   0  0  0  0  0  0  0  0  0  0  0  0
    2.7878   -8.3822   16.2137 C   0  0  0  0  0  0  0  0  0  0  0  0
    9.4601   -2.6590   25.6528 C   0  0  0  0  0  0  0  0  0  0  0  0
   10.1182   -1.5672   23.1165 C   0  0  0  0  0  0  0  0  0  0  0  0
    1.0552   -9.6360   17.0650 C   0  0  0  0  0  0  0  0  0  0  0  0
    3.6519   -9.1783   16.9039 C   0  0  0  0  0  0  0  0  0  0  0  0
    7.8675   -7.0096   15.9415 C   0  0  0  0  0  0  0  0  0  0  0  0
    5.9733   -9.6553   17.3832 N   0  0  0  0  0  0  0  0  0  0  0  0
   10.2411   -2.9363   23.4301 C   0  0  0  0  0  0  0  0  0  0  0  0
   10.7288   -3.8197   19.9525 C   0  0  0  0  0  0  0  0  0  0  0  0
   10.1189   -5.0054   19.6987 C   0  0  0  0  0  0  0  0  0  0  0  0
  1  3  4  0
  1  7  4  0
  2 21  4  0
  2 27  4  0
  3  9  4  0
  3 10  4  0
  4  8  4  0
  4 18  4  0
  4 25  1  0
  5  9  4  0
  5 12  4  0
  6 13  1  0
  6 27  1  0
  7 28  4  0
  8 11  4  0
  9 29  4  0
 10 12  4  0
 11 24  1  0
 11 26  4  0
 12 25  1  0
 13 28  1  0
 14 20  4  0
 14 23  4  0
 15 17  4  0
 15 21  4  0
 16 19  4  0
 16 23  4  0
 17 22  4  0
 18 26  4  0
 19 24  4  0
 20 24  4  0
 22 27  4  0
 28 29  4  0
M  END
$$$$

 Created by Python create_sdf_string function

 29 33  0  0  0  0  0  0  0  0999 V2000
   10.7215   -3.3326   17.6437 C   0  0  0  0  0  0  0  0  0  0  0  0
    9.9489   -3.4675   24.6487 N   0  0  0  0  0  0  0  0  0  0  0  0
   10.0172   -4.4740   17.4101 C   0  0  0  0  0  0  0  0  0  0  0  0
    6.9051   -7.9575   16.4222 C   0  0  0  0  0  0  0  0  0  0  0  0
    8.9969   -6.3552   17.9668 N   0  0  0  0  0  0  0  0  0  0  0  0
   10.6702   -3.9051   22.4070 C   0  0  0  0  0  0  0  0  0  0  0  0
   11.0625   -3.0028   18.8894 C   0  0  0  0  0  0  0  0  0  0  0  0
    5.6180   -7.9194   16.1754 O   0  0  0  0  0  0  0  0  0  0  0  0
    9.7259   -5.3080   18.4485 C   0  0  0  0  0  0  0  0  0  0  0  0
    9.4578   -5.0200   16.3036 N   0  0  0  0  0  0  0  0  0  0  0  0
    5.0287   -8.9365   16.8223 C   0  0  0  0  0  0  0  0  0  0  0  0
    8.7742   -6.1498   16.6764 C   0  0  0  0  0  0  0  0  0  0  0  0
   10.9418   -3.4032   21.2053 O   0  0  0  0  0  0  0  0  0  0  0  0
    1.4797   -8.6258   16.2950 C   0  0  0  0  0  0  0  0  0  0  0  0
    9.2861   -1.2743   25.3585 C   0  0  0  0  0  0  0  0  0  0  0  0
    1.8892  -10.3985   17.7511 N   0  0  0  0  0  0  0  0  0  0  0  0
    9.6210   -0.6952   24.0976 C   0  0  0  0  0  0  0  0  0  0  0  0
    7.0792   -9.0217   17.1429 C   0  0  0  0  0  0  0  0  0  0  0  0
    3.1713  -10.1816   17.6634 C   0  0  0  0  0  0  0  0  0  0  0  0
    2.7878   -8.3822   16.2137 C   0  0  0  0  0  0  0  0  0  0  0  0
    9.4601   -2.6590   25.6528 C   0  0  0  0  0  0  0  0  0  0  0  0
   10.1182   -1.5672   23.1165 C   0  0  0  0  0  0  0  0  0  0  0  0
    1.0552   -9.6360   17.0650 C   0  0  0  0  0  0  0  0  0  0  0  0
    3.6519   -9.1783   16.9039 C   0  0  0  0  0  0  0  0  0  0  0  0
    7.8675   -7.0096   15.9415 C   0  0  0  0  0  0  0  0  0  0  0  0
    5.9733   -9.6553   17.3832 N   0  0  0  0  0  0  0  0  0  0  0  0
   10.2411   -2.9363   23.4301 C   0  0  0  0  0  0  0  0  0  0  0  0
   10.7288   -3.8197   19.9525 C   0  0  0  0  0  0  0  0  0  0  0  0
   10.1189   -5.0054   19.6987 C   0  0  0  0  0  0  0  0  0  0  0  0
  1  3  4  0
  1  7  4  0
  2 21  4  0
  2 27  4  0
  3  9  4  0
  3 10  4  0
  4  8  4  0
  4 18  4  0
  4 25  1  0
  5  9  4  0
  5 12  4  0
  6 13  1  0
  6 27  1  0
  7 28  4  0
  8 11  4  0
  9 29  4  0
 10 12  4  0
 11 24  1  0
 11 26  4  0
 12 25  1  0
 13 28  1  0
 14 20  4  0
 14 23  4  0
 15 17  4  0
 15 21  4  0
 16 19  4  0
 16 23  4  0
 17 22  4  0
 18 26  4  0
 19 24  4  0
 20 24  4  0
 22 27  4  0
 28 29  4  0
M  END
$$$$

 Created by Python create_sdf_string function

 29 33  0  0  0  0  0  0  0  0999 V2000
   10.7215   -3.3326   17.6437 C   0  0  0  0  0  0  0  0  0  0  0  0
    9.9489   -3.4675   24.6487 N   0  0  0  0  0  0  0  0  0  0  0  0
   10.0172   -4.4740   17.4101 C   0  0  0  0  0  0  0  0  0  0  0  0
    6.9051   -7.9575   16.4222 C   0  0  0  0  0  0  0  0  0  0  0  0
    8.9969   -6.3552   17.9668 N   0  0  0  0  0  0  0  0  0  0  0  0
   10.6702   -3.9051   22.4070 C   0  0  0  0  0  0  0  0  0  0  0  0
   11.0625   -3.0028   18.8894 C   0  0  0  0  0  0  0  0  0  0  0  0
    5.6180   -7.9194   16.1754 O   0  0  0  0  0  0  0  0  0  0  0  0
    9.7259   -5.3080   18.4485 C   0  0  0  0  0  0  0  0  0  0  0  0
    9.4578   -5.0200   16.3036 N   0  0  0  0  0  0  0  0  0  0  0  0
    5.0287   -8.9365   16.8223 C   0  0  0  0  0  0  0  0  0  0  0  0
    8.7742   -6.1498   16.6764 C   0  0  0  0  0  0  0  0  0  0  0  0
   10.9418   -3.4032   21.2053 O   0  0  0  0  0  0  0  0  0  0  0  0
    1.4797   -8.6258   16.2950 C   0  0  0  0  0  0  0  0  0  0  0  0
    9.2861   -1.2743   25.3585 C   0  0  0  0  0  0  0  0  0  0  0  0
    1.8892  -10.3985   17.7511 N   0  0  0  0  0  0  0  0  0  0  0  0
    9.6210   -0.6952   24.0976 C   0  0  0  0  0  0  0  0  0  0  0  0
    7.0792   -9.0217   17.1429 C   0  0  0  0  0  0  0  0  0  0  0  0
    3.1713  -10.1816   17.6634 C   0  0  0  0  0  0  0  0  0  0  0  0
    2.7878   -8.3822   16.2137 C   0  0  0  0  0  0  0  0  0  0  0  0
    9.4601   -2.6590   25.6528 C   0  0  0  0  0  0  0  0  0  0  0  0
   10.1182   -1.5672   23.1165 C   0  0  0  0  0  0  0  0  0  0  0  0
    1.0552   -9.6360   17.0650 C   0  0  0  0  0  0  0  0  0  0  0  0
    3.6519   -9.1783   16.9039 C   0  0  0  0  0  0  0  0  0  0  0  0
    7.8675   -7.0096   15.9415 C   0  0  0  0  0  0  0  0  0  0  0  0
    5.9733   -9.6553   17.3832 N   0  0  0  0  0  0  0  0  0  0  0  0
   10.2411   -2.9363   23.4301 C   0  0  0  0  0  0  0  0  0  0  0  0
   10.7288   -3.8197   19.9525 C   0  0  0  0  0  0  0  0  0  0  0  0
   10.1189   -5.0054   19.6987 C   0  0  0  0  0  0  0  0  0  0  0  0
  1  3  4  0
  1  7  4  0
  2 21  4  0
  2 27  4  0
  3  9  4  0
  3 10  4  0
  4  8  4  0
  4 18  4  0
  4 25  1  0
  5  9  4  0
  5 12  4  0
  6 13  1  0
  6 27  1  0
  7 28  4  0
  8 11  4  0
  9 29  4  0
 10 12  4  0
 11 24  1  0
 11 26  4  0
 12 25  1  0
 13 28  1  0
 14 20  4  0
 14 23  4  0
 15 17  4  0
 15 21  4  0
 16 19  4  0
 16 23  4  0
 17 22  4  0
 18 26  4  0
 19 24  4  0
 20 24  4  0
 22 27  4  0
 28 29  4  0
M  END
$$$$

 Created by Python create_sdf_string function

 29 33  0  0  0  0  0  0  0  0999 V2000
   10.7215   -3.3326   17.6437 C   0  0  0  0  0  0  0  0  0  0  0  0
    9.9489   -3.4675   24.6487 N   0  0  0  0  0  0  0  0  0  0  0  0
   10.0172   -4.4740   17.4101 C   0  0  0  0  0  0  0  0  0  0  0  0
    6.9051   -7.9575   16.4222 C   0  0  0  0  0  0  0  0  0  0  0  0
    8.9969   -6.3552   17.9668 N   0  0  0  0  0  0  0  0  0  0  0  0
   10.6702   -3.9051   22.4070 C   0  0  0  0  0  0  0  0  0  0  0  0
   11.0625   -3.0028   18.8894 C   0  0  0  0  0  0  0  0  0  0  0  0
    5.6180   -7.9194   16.1754 O   0  0  0  0  0  0  0  0  0  0  0  0
    9.7259   -5.3080   18.4485 C   0  0  0  0  0  0  0  0  0  0  0  0
    9.4578   -5.0200   16.3036 N   0  0  0  0  0  0  0  0  0  0  0  0
    5.0287   -8.9365   16.8223 C   0  0  0  0  0  0  0  0  0  0  0  0
    8.7742   -6.1498   16.6764 C   0  0  0  0  0  0  0  0  0  0  0  0
   10.9418   -3.4032   21.2053 O   0  0  0  0  0  0  0  0  0  0  0  0
    1.4797   -8.6258   16.2950 C   0  0  0  0  0  0  0  0  0  0  0  0
    9.2861   -1.2743   25.3585 C   0  0  0  0  0  0  0  0  0  0  0  0
    1.8892  -10.3985   17.7511 N   0  0  0  0  0  0  0  0  0  0  0  0
    9.6210   -0.6952   24.0976 C   0  0  0  0  0  0  0  0  0  0  0  0
    7.0792   -9.0217   17.1429 C   0  0  0  0  0  0  0  0  0  0  0  0
    3.1713  -10.1816   17.6634 C   0  0  0  0  0  0  0  0  0  0  0  0
    2.7878   -8.3822   16.2137 C   0  0  0  0  0  0  0  0  0  0  0  0
    9.4601   -2.6590   25.6528 C   0  0  0  0  0  0  0  0  0  0  0  0
   10.1182   -1.5672   23.1165 C   0  0  0  0  0  0  0  0  0  0  0  0
    1.0552   -9.6360   17.0650 C   0  0  0  0  0  0  0  0  0  0  0  0
    3.6519   -9.1783   16.9039 C   0  0  0  0  0  0  0  0  0  0  0  0
    7.8675   -7.0096   15.9415 C   0  0  0  0  0  0  0  0  0  0  0  0
    5.9733   -9.6553   17.3832 N   0  0  0  0  0  0  0  0  0  0  0  0
   10.2411   -2.9363   23.4301 C   0  0  0  0  0  0  0  0  0  0  0  0
   10.7288   -3.8197   19.9525 C   0  0  0  0  0  0  0  0  0  0  0  0
   10.1189   -5.0054   19.6987 C   0  0  0  0  0  0  0  0  0  0  0  0
  1  3  4  0
  1  7  4  0
  2 21  4  0
  2 27  4  0
  3  9  4  0
  3 10  4  0
  4  8  4  0
  4 18  4  0
  4 25  1  0
  5  9  4  0
  5 12  4  0
  6 13  1  0
  6 27  1  0
  7 28  4  0
  8 11  4  0
  9 29  4  0
 10 12  4  0
 11 24  1  0
 11 26  4  0
 12 25  1  0
 13 28  1  0
 14 20  4  0
 14 23  4  0
 15 17  4  0
 15 21  4  0
 16 19  4  0
 16 23  4  0
 17 22  4  0
 18 26  4  0
 19 24  4  0
 20 24  4  0
 22 27  4  0
 28 29  4  0
M  END
$$$$

 Created by Python create_sdf_string function

 29 33  0  0  0  0  0  0  0  0999 V2000
   10.7215   -3.3326   17.6437 C   0  0  0  0  0  0  0  0  0  0  0  0
    9.9489   -3.4675   24.6487 N   0  0  0  0  0  0  0  0  0  0  0  0
   10.0172   -4.4740   17.4101 C   0  0  0  0  0  0  0  0  0  0  0  0
    6.9051   -7.9575   16.4222 C   0  0  0  0  0  0  0  0  0  0  0  0
    8.9969   -6.3552   17.9668 N   0  0  0  0  0  0  0  0  0  0  0  0
   10.6702   -3.9051   22.4070 C   0  0  0  0  0  0  0  0  0  0  0  0
   11.0625   -3.0028   18.8894 C   0  0  0  0  0  0  0  0  0  0  0  0
    5.6180   -7.9194   16.1754 O   0  0  0  0  0  0  0  0  0  0  0  0
    9.7259   -5.3080   18.4485 C   0  0  0  0  0  0  0  0  0  0  0  0
    9.4578   -5.0200   16.3036 N   0  0  0  0  0  0  0  0  0  0  0  0
    5.0287   -8.9365   16.8223 C   0  0  0  0  0  0  0  0  0  0  0  0
    8.7742   -6.1498   16.6764 C   0  0  0  0  0  0  0  0  0  0  0  0
   10.9418   -3.4032   21.2053 O   0  0  0  0  0  0  0  0  0  0  0  0
    1.4797   -8.6258   16.2950 C   0  0  0  0  0  0  0  0  0  0  0  0
    9.2861   -1.2743   25.3585 C   0  0  0  0  0  0  0  0  0  0  0  0
    1.8892  -10.3985   17.7511 N   0  0  0  0  0  0  0  0  0  0  0  0
    9.6210   -0.6952   24.0976 C   0  0  0  0  0  0  0  0  0  0  0  0
    7.0792   -9.0217   17.1429 C   0  0  0  0  0  0  0  0  0  0  0  0
    3.1713  -10.1816   17.6634 C   0  0  0  0  0  0  0  0  0  0  0  0
    2.7878   -8.3822   16.2137 C   0  0  0  0  0  0  0  0  0  0  0  0
    9.4601   -2.6590   25.6528 C   0  0  0  0  0  0  0  0  0  0  0  0
   10.1182   -1.5672   23.1165 C   0  0  0  0  0  0  0  0  0  0  0  0
    1.0552   -9.6360   17.0650 C   0  0  0  0  0  0  0  0  0  0  0  0
    3.6519   -9.1783   16.9039 C   0  0  0  0  0  0  0  0  0  0  0  0
    7.8675   -7.0096   15.9415 C   0  0  0  0  0  0  0  0  0  0  0  0
    5.9733   -9.6553   17.3832 N   0  0  0  0  0  0  0  0  0  0  0  0
   10.2411   -2.9363   23.4301 C   0  0  0  0  0  0  0  0  0  0  0  0
   10.7288   -3.8197   19.9525 C   0  0  0  0  0  0  0  0  0  0  0  0
   10.1189   -5.0054   19.6987 C   0  0  0  0  0  0  0  0  0  0  0  0
  1  3  4  0
  1  7  4  0
  2 21  4  0
  2 27  4  0
  3  9  4  0
  3 10  4  0
  4  8  4  0
  4 18  4  0
  4 25  1  0
  5  9  4  0
  5 12  4  0
  6 13  1  0
  6 27  1  0
  7 28  4  0
  8 11  4  0
  9 29  4  0
 10 12  4  0
 11 24  1  0
 11 26  4  0
 12 25  1  0
 13 28  1  0
 14 20  4  0
 14 23  4  0
 15 17  4  0
 15 21  4  0
 16 19  4  0
 16 23  4  0
 17 22  4  0
 18 26  4  0
 19 24  4  0
 20 24  4  0
 22 27  4  0
 28 29  4  0
M  END
$$$$

 Created by Python create_sdf_string function

 29 33  0  0  0  0  0  0  0  0999 V2000
   10.7215   -3.3326   17.6437 C   0  0  0  0  0  0  0  0  0  0  0  0
    9.9489   -3.4675   24.6487 N   0  0  0  0  0  0  0  0  0  0  0  0
   10.0172   -4.4740   17.4101 C   0  0  0  0  0  0  0  0  0  0  0  0
    6.9051   -7.9575   16.4222 C   0  0  0  0  0  0  0  0  0  0  0  0
    8.9969   -6.3552   17.9668 N   0  0  0  0  0  0  0  0  0  0  0  0
   10.6702   -3.9051   22.4070 C   0  0  0  0  0  0  0  0  0  0  0  0
   11.0625   -3.0028   18.8894 C   0  0  0  0  0  0  0  0  0  0  0  0
    5.6180   -7.9194   16.1754 O   0  0  0  0  0  0  0  0  0  0  0  0
    9.7259   -5.3080   18.4485 C   0  0  0  0  0  0  0  0  0  0  0  0
    9.4578   -5.0200   16.3036 N   0  0  0  0  0  0  0  0  0  0  0  0
    5.0287   -8.9365   16.8223 C   0  0  0  0  0  0  0  0  0  0  0  0
    8.7742   -6.1498   16.6764 C   0  0  0  0  0  0  0  0  0  0  0  0
   10.9418   -3.4032   21.2053 O   0  0  0  0  0  0  0  0  0  0  0  0
    1.4797   -8.6258   16.2950 C   0  0  0  0  0  0  0  0  0  0  0  0
    9.2861   -1.2743   25.3585 C   0  0  0  0  0  0  0  0  0  0  0  0
    1.8892  -10.3985   17.7511 N   0  0  0  0  0  0  0  0  0  0  0  0
    9.6210   -0.6952   24.0976 C   0  0  0  0  0  0  0  0  0  0  0  0
    7.0792   -9.0217   17.1429 C   0  0  0  0  0  0  0  0  0  0  0  0
    3.1713  -10.1816   17.6634 C   0  0  0  0  0  0  0  0  0  0  0  0
    2.7878   -8.3822   16.2137 C   0  0  0  0  0  0  0  0  0  0  0  0
    9.4601   -2.6590   25.6528 C   0  0  0  0  0  0  0  0  0  0  0  0
   10.1182   -1.5672   23.1165 C   0  0  0  0  0  0  0  0  0  0  0  0
    1.0552   -9.6360   17.0650 C   0  0  0  0  0  0  0  0  0  0  0  0
    3.6519   -9.1783   16.9039 C   0  0  0  0  0  0  0  0  0  0  0  0
    7.8675   -7.0096   15.9415 C   0  0  0  0  0  0  0  0  0  0  0  0
    5.9733   -9.6553   17.3832 N   0  0  0  0  0  0  0  0  0  0  0  0
   10.2411   -2.9363   23.4301 C   0  0  0  0  0  0  0  0  0  0  0  0
   10.7288   -3.8197   19.9525 C   0  0  0  0  0  0  0  0  0  0  0  0
   10.1189   -5.0054   19.6987 C   0  0  0  0  0  0  0  0  0  0  0  0
  1  3  4  0
  1  7  4  0
  2 21  4  0
  2 27  4  0
  3  9  4  0
  3 10  4  0
  4  8  4  0
  4 18  4  0
  4 25  1  0
  5  9  4  0
  5 12  4  0
  6 13  1  0
  6 27  1  0
  7 28  4  0
  8 11  4  0
  9 29  4  0
 10 12  4  0
 11 24  1  0
 11 26  4  0
 12 25  1  0
 13 28  1  0
 14 20  4  0
 14 23  4  0
 15 17  4  0
 15 21  4  0
 16 19  4  0
 16 23  4  0
 17 22  4  0
 18 26  4  0
 19 24  4  0
 20 24  4  0
 22 27  4  0
 28 29  4  0
M  END
$$$$

 Created by Python create_sdf_string function

 29 33  0  0  0  0  0  0  0  0999 V2000
   10.7215   -3.3326   17.6437 C   0  0  0  0  0  0  0  0  0  0  0  0
    9.9489   -3.4675   24.6487 N   0  0  0  0  0  0  0  0  0  0  0  0
   10.0172   -4.4740   17.4101 C   0  0  0  0  0  0  0  0  0  0  0  0
    6.9051   -7.9575   16.4222 C   0  0  0  0  0  0  0  0  0  0  0  0
    8.9969   -6.3552   17.9668 N   0  0  0  0  0  0  0  0  0  0  0  0
   10.6702   -3.9051   22.4070 C   0  0  0  0  0  0  0  0  0  0  0  0
   11.0625   -3.0028   18.8894 C   0  0  0  0  0  0  0  0  0  0  0  0
    5.6180   -7.9194   16.1754 O   0  0  0  0  0  0  0  0  0  0  0  0
    9.7259   -5.3080   18.4485 C   0  0  0  0  0  0  0  0  0  0  0  0
    9.4578   -5.0200   16.3036 N   0  0  0  0  0  0  0  0  0  0  0  0
    5.0287   -8.9365   16.8223 C   0  0  0  0  0  0  0  0  0  0  0  0
    8.7742   -6.1498   16.6764 C   0  0  0  0  0  0  0  0  0  0  0  0
   10.9418   -3.4032   21.2053 O   0  0  0  0  0  0  0  0  0  0  0  0
    1.4797   -8.6258   16.2950 C   0  0  0  0  0  0  0  0  0  0  0  0
    9.2861   -1.2743   25.3585 C   0  0  0  0  0  0  0  0  0  0  0  0
    1.8892  -10.3985   17.7511 N   0  0  0  0  0  0  0  0  0  0  0  0
    9.6210   -0.6952   24.0976 C   0  0  0  0  0  0  0  0  0  0  0  0
    7.0792   -9.0217   17.1429 C   0  0  0  0  0  0  0  0  0  0  0  0
    3.1713  -10.1816   17.6634 C   0  0  0  0  0  0  0  0  0  0  0  0
    2.7878   -8.3822   16.2137 C   0  0  0  0  0  0  0  0  0  0  0  0
    9.4601   -2.6590   25.6528 C   0  0  0  0  0  0  0  0  0  0  0  0
   10.1182   -1.5672   23.1165 C   0  0  0  0  0  0  0  0  0  0  0  0
    1.0552   -9.6360   17.0650 C   0  0  0  0  0  0  0  0  0  0  0  0
    3.6519   -9.1783   16.9039 C   0  0  0  0  0  0  0  0  0  0  0  0
    7.8675   -7.0096   15.9415 C   0  0  0  0  0  0  0  0  0  0  0  0
    5.9733   -9.6553   17.3832 N   0  0  0  0  0  0  0  0  0  0  0  0
   10.2411   -2.9363   23.4301 C   0  0  0  0  0  0  0  0  0  0  0  0
   10.7288   -3.8197   19.9525 C   0  0  0  0  0  0  0  0  0  0  0  0
   10.1189   -5.0054   19.6987 C   0  0  0  0  0  0  0  0  0  0  0  0
  1  3  4  0
  1  7  4  0
  2 21  4  0
  2 27  4  0
  3  9  4  0
  3 10  4  0
  4  8  4  0
  4 18  4  0
  4 25  1  0
  5  9  4  0
  5 12  4  0
  6 13  1  0
  6 27  1  0
  7 28  4  0
  8 11  4  0
  9 29  4  0
 10 12  4  0
 11 24  1  0
 11 26  4  0
 12 25  1  0
 13 28  1  0
 14 20  4  0
 14 23  4  0
 15 17  4  0
 15 21  4  0
 16 19  4  0
 16 23  4  0
 17 22  4  0
 18 26  4  0
 19 24  4  0
 20 24  4  0
 22 27  4  0
 28 29  4  0
M  END
$$$$

 Created by Python create_sdf_string function

 29 33  0  0  0  0  0  0  0  0999 V2000
   10.7215   -3.3326   17.6437 C   0  0  0  0  0  0  0  0  0  0  0  0
    9.9489   -3.4675   24.6487 N   0  0  0  0  0  0  0  0  0  0  0  0
   10.0172   -4.4740   17.4101 C   0  0  0  0  0  0  0  0  0  0  0  0
    6.9051   -7.9575   16.4222 C   0  0  0  0  0  0  0  0  0  0  0  0
    8.9969   -6.3552   17.9668 N   0  0  0  0  0  0  0  0  0  0  0  0
   10.6702   -3.9051   22.4070 C   0  0  0  0  0  0  0  0  0  0  0  0
   11.0625   -3.0028   18.8894 C   0  0  0  0  0  0  0  0  0  0  0  0
    5.6180   -7.9194   16.1754 O   0  0  0  0  0  0  0  0  0  0  0  0
    9.7259   -5.3080   18.4485 C   0  0  0  0  0  0  0  0  0  0  0  0
    9.4578   -5.0200   16.3036 N   0  0  0  0  0  0  0  0  0  0  0  0
    5.0287   -8.9365   16.8223 C   0  0  0  0  0  0  0  0  0  0  0  0
    8.7742   -6.1498   16.6764 C   0  0  0  0  0  0  0  0  0  0  0  0
   10.9418   -3.4032   21.2053 O   0  0  0  0  0  0  0  0  0  0  0  0
    1.4797   -8.6258   16.2950 C   0  0  0  0  0  0  0  0  0  0  0  0
    9.2861   -1.2743   25.3585 C   0  0  0  0  0  0  0  0  0  0  0  0
    1.8892  -10.3985   17.7511 N   0  0  0  0  0  0  0  0  0  0  0  0
    9.6210   -0.6952   24.0976 C   0  0  0  0  0  0  0  0  0  0  0  0
    7.0792   -9.0217   17.1429 C   0  0  0  0  0  0  0  0  0  0  0  0
    3.1713  -10.1816   17.6634 C   0  0  0  0  0  0  0  0  0  0  0  0
    2.7878   -8.3822   16.2137 C   0  0  0  0  0  0  0  0  0  0  0  0
    9.4601   -2.6590   25.6528 C   0  0  0  0  0  0  0  0  0  0  0  0
   10.1182   -1.5672   23.1165 C   0  0  0  0  0  0  0  0  0  0  0  0
    1.0552   -9.6360   17.0650 C   0  0  0  0  0  0  0  0  0  0  0  0
    3.6519   -9.1783   16.9039 C   0  0  0  0  0  0  0  0  0  0  0  0
    7.8675   -7.0096   15.9415 C   0  0  0  0  0  0  0  0  0  0  0  0
    5.9733   -9.6553   17.3832 N   0  0  0  0  0  0  0  0  0  0  0  0
   10.2411   -2.9363   23.4301 C   0  0  0  0  0  0  0  0  0  0  0  0
   10.7288   -3.8197   19.9525 C   0  0  0  0  0  0  0  0  0  0  0  0
   10.1189   -5.0054   19.6987 C   0  0  0  0  0  0  0  0  0  0  0  0
  1  3  4  0
  1  7  4  0
  2 21  4  0
  2 27  4  0
  3  9  4  0
  3 10  4  0
  4  8  4  0
  4 18  4  0
  4 25  1  0
  5  9  4  0
  5 12  4  0
  6 13  1  0
  6 27  1  0
  7 28  4  0
  8 11  4  0
  9 29  4  0
 10 12  4  0
 11 24  1  0
 11 26  4  0
 12 25  1  0
 13 28  1  0
 14 20  4  0
 14 23  4  0
 15 17  4  0
 15 21  4  0
 16 19  4  0
 16 23  4  0
 17 22  4  0
 18 26  4  0
 19 24  4  0
 20 24  4  0
 22 27  4  0
 28 29  4  0
M  END
$$$$

 Created by Python create_sdf_string function

 29 33  0  0  0  0  0  0  0  0999 V2000
   10.7215   -3.3326   17.6437 C   0  0  0  0  0  0  0  0  0  0  0  0
    9.9489   -3.4675   24.6487 N   0  0  0  0  0  0  0  0  0  0  0  0
   10.0172   -4.4740   17.4101 C   0  0  0  0  0  0  0  0  0  0  0  0
    6.9051   -7.9575   16.4222 C   0  0  0  0  0  0  0  0  0  0  0  0
    8.9969   -6.3552   17.9668 N   0  0  0  0  0  0  0  0  0  0  0  0
   10.6702   -3.9051   22.4070 C   0  0  0  0  0  0  0  0  0  0  0  0
   11.0625   -3.0028   18.8894 C   0  0  0  0  0  0  0  0  0  0  0  0
    5.6180   -7.9194   16.1754 O   0  0  0  0  0  0  0  0  0  0  0  0
    9.7259   -5.3080   18.4485 C   0  0  0  0  0  0  0  0  0  0  0  0
    9.4578   -5.0200   16.3036 N   0  0  0  0  0  0  0  0  0  0  0  0
    5.0287   -8.9365   16.8223 C   0  0  0  0  0  0  0  0  0  0  0  0
    8.7742   -6.1498   16.6764 C   0  0  0  0  0  0  0  0  0  0  0  0
   10.9418   -3.4032   21.2053 O   0  0  0  0  0  0  0  0  0  0  0  0
    1.4797   -8.6258   16.2950 C   0  0  0  0  0  0  0  0  0  0  0  0
    9.2861   -1.2743   25.3585 C   0  0  0  0  0  0  0  0  0  0  0  0
    1.8892  -10.3985   17.7511 N   0  0  0  0  0  0  0  0  0  0  0  0
    9.6210   -0.6952   24.0976 C   0  0  0  0  0  0  0  0  0  0  0  0
    7.0792   -9.0217   17.1429 C   0  0  0  0  0  0  0  0  0  0  0  0
    3.1713  -10.1816   17.6634 C   0  0  0  0  0  0  0  0  0  0  0  0
    2.7878   -8.3822   16.2137 C   0  0  0  0  0  0  0  0  0  0  0  0
    9.4601   -2.6590   25.6528 C   0  0  0  0  0  0  0  0  0  0  0  0
   10.1182   -1.5672   23.1165 C   0  0  0  0  0  0  0  0  0  0  0  0
    1.0552   -9.6360   17.0650 C   0  0  0  0  0  0  0  0  0  0  0  0
    3.6519   -9.1783   16.9039 C   0  0  0  0  0  0  0  0  0  0  0  0
    7.8675   -7.0096   15.9415 C   0  0  0  0  0  0  0  0  0  0  0  0
    5.9733   -9.6553   17.3832 N   0  0  0  0  0  0  0  0  0  0  0  0
   10.2411   -2.9363   23.4301 C   0  0  0  0  0  0  0  0  0  0  0  0
   10.7288   -3.8197   19.9525 C   0  0  0  0  0  0  0  0  0  0  0  0
   10.1189   -5.0054   19.6987 C   0  0  0  0  0  0  0  0  0  0  0  0
  1  3  4  0
  1  7  4  0
  2 21  4  0
  2 27  4  0
  3  9  4  0
  3 10  4  0
  4  8  4  0
  4 18  4  0
  4 25  1  0
  5  9  4  0
  5 12  4  0
  6 13  1  0
  6 27  1  0
  7 28  4  0
  8 11  4  0
  9 29  4  0
 10 12  4  0
 11 24  1  0
 11 26  4  0
 12 25  1  0
 13 28  1  0
 14 20  4  0
 14 23  4  0
 15 17  4  0
 15 21  4  0
 16 19  4  0
 16 23  4  0
 17 22  4  0
 18 26  4  0
 19 24  4  0
 20 24  4  0
 22 27  4  0
 28 29  4  0
M  END
$$$$

 Created by Python create_sdf_string function

 29 33  0  0  0  0  0  0  0  0999 V2000
   10.7215   -3.3326   17.6437 C   0  0  0  0  0  0  0  0  0  0  0  0
    9.9489   -3.4675   24.6487 N   0  0  0  0  0  0  0  0  0  0  0  0
   10.0172   -4.4740   17.4101 C   0  0  0  0  0  0  0  0  0  0  0  0
    6.9051   -7.9575   16.4222 C   0  0  0  0  0  0  0  0  0  0  0  0
    8.9969   -6.3552   17.9668 N   0  0  0  0  0  0  0  0  0  0  0  0
   10.6702   -3.9051   22.4070 C   0  0  0  0  0  0  0  0  0  0  0  0
   11.0625   -3.0028   18.8894 C   0  0  0  0  0  0  0  0  0  0  0  0
    5.6180   -7.9194   16.1754 O   0  0  0  0  0  0  0  0  0  0  0  0
    9.7259   -5.3080   18.4485 C   0  0  0  0  0  0  0  0  0  0  0  0
    9.4578   -5.0200   16.3036 N   0  0  0  0  0  0  0  0  0  0  0  0
    5.0287   -8.9365   16.8223 C   0  0  0  0  0  0  0  0  0  0  0  0
    8.7742   -6.1498   16.6764 C   0  0  0  0  0  0  0  0  0  0  0  0
   10.9418   -3.4032   21.2053 O   0  0  0  0  0  0  0  0  0  0  0  0
    1.4797   -8.6258   16.2950 C   0  0  0  0  0  0  0  0  0  0  0  0
    9.2861   -1.2743   25.3585 C   0  0  0  0  0  0  0  0  0  0  0  0
    1.8892  -10.3985   17.7511 N   0  0  0  0  0  0  0  0  0  0  0  0
    9.6210   -0.6952   24.0976 C   0  0  0  0  0  0  0  0  0  0  0  0
    7.0792   -9.0217   17.1429 C   0  0  0  0  0  0  0  0  0  0  0  0
    3.1713  -10.1816   17.6634 C   0  0  0  0  0  0  0  0  0  0  0  0
    2.7878   -8.3822   16.2137 C   0  0  0  0  0  0  0  0  0  0  0  0
    9.4601   -2.6590   25.6528 C   0  0  0  0  0  0  0  0  0  0  0  0
   10.1182   -1.5672   23.1165 C   0  0  0  0  0  0  0  0  0  0  0  0
    1.0552   -9.6360   17.0650 C   0  0  0  0  0  0  0  0  0  0  0  0
    3.6519   -9.1783   16.9039 C   0  0  0  0  0  0  0  0  0  0  0  0
    7.8675   -7.0096   15.9415 C   0  0  0  0  0  0  0  0  0  0  0  0
    5.9733   -9.6553   17.3832 N   0  0  0  0  0  0  0  0  0  0  0  0
   10.2411   -2.9363   23.4301 C   0  0  0  0  0  0  0  0  0  0  0  0
   10.7288   -3.8197   19.9525 C   0  0  0  0  0  0  0  0  0  0  0  0
   10.1189   -5.0054   19.6987 C   0  0  0  0  0  0  0  0  0  0  0  0
  1  3  4  0
  1  7  4  0
  2 21  4  0
  2 27  4  0
  3  9  4  0
  3 10  4  0
  4  8  4  0
  4 18  4  0
  4 25  1  0
  5  9  4  0
  5 12  4  0
  6 13  1  0
  6 27  1  0
  7 28  4  0
  8 11  4  0
  9 29  4  0
 10 12  4  0
 11 24  1  0
 11 26  4  0
 12 25  1  0
 13 28  1  0
 14 20  4  0
 14 23  4  0
 15 17  4  0
 15 21  4  0
 16 19  4  0
 16 23  4  0
 17 22  4  0
 18 26  4  0
 19 24  4  0
 20 24  4  0
 22 27  4  0
 28 29  4  0
M  END
$$$$

 Created by Python create_sdf_string function

 29 33  0  0  0  0  0  0  0  0999 V2000
   10.7215   -3.3326   17.6437 C   0  0  0  0  0  0  0  0  0  0  0  0
    9.9489   -3.4675   24.6487 N   0  0  0  0  0  0  0  0  0  0  0  0
   10.0172   -4.4740   17.4101 C   0  0  0  0  0  0  0  0  0  0  0  0
    6.9051   -7.9575   16.4222 C   0  0  0  0  0  0  0  0  0  0  0  0
    8.9969   -6.3552   17.9668 N   0  0  0  0  0  0  0  0  0  0  0  0
   10.6702   -3.9051   22.4070 C   0  0  0  0  0  0  0  0  0  0  0  0
   11.0625   -3.0028   18.8894 C   0  0  0  0  0  0  0  0  0  0  0  0
    5.6180   -7.9194   16.1754 O   0  0  0  0  0  0  0  0  0  0  0  0
    9.7259   -5.3080   18.4485 C   0  0  0  0  0  0  0  0  0  0  0  0
    9.4578   -5.0200   16.3036 N   0  0  0  0  0  0  0  0  0  0  0  0
    5.0287   -8.9365   16.8223 C   0  0  0  0  0  0  0  0  0  0  0  0
    8.7742   -6.1498   16.6764 C   0  0  0  0  0  0  0  0  0  0  0  0
   10.9418   -3.4032   21.2053 O   0  0  0  0  0  0  0  0  0  0  0  0
    1.4797   -8.6258   16.2950 C   0  0  0  0  0  0  0  0  0  0  0  0
    9.2861   -1.2743   25.3585 C   0  0  0  0  0  0  0  0  0  0  0  0
    1.8892  -10.3985   17.7511 N   0  0  0  0  0  0  0  0  0  0  0  0
    9.6210   -0.6952   24.0976 C   0  0  0  0  0  0  0  0  0  0  0  0
    7.0792   -9.0217   17.1429 C   0  0  0  0  0  0  0  0  0  0  0  0
    3.1713  -10.1816   17.6634 C   0  0  0  0  0  0  0  0  0  0  0  0
    2.7878   -8.3822   16.2137 C   0  0  0  0  0  0  0  0  0  0  0  0
    9.4601   -2.6590   25.6528 C   0  0  0  0  0  0  0  0  0  0  0  0
   10.1182   -1.5672   23.1165 C   0  0  0  0  0  0  0  0  0  0  0  0
    1.0552   -9.6360   17.0650 C   0  0  0  0  0  0  0  0  0  0  0  0
    3.6519   -9.1783   16.9039 C   0  0  0  0  0  0  0  0  0  0  0  0
    7.8675   -7.0096   15.9415 C   0  0  0  0  0  0  0  0  0  0  0  0
    5.9733   -9.6553   17.3832 N   0  0  0  0  0  0  0  0  0  0  0  0
   10.2411   -2.9363   23.4301 C   0  0  0  0  0  0  0  0  0  0  0  0
   10.7288   -3.8197   19.9525 C   0  0  0  0  0  0  0  0  0  0  0  0
   10.1189   -5.0054   19.6987 C   0  0  0  0  0  0  0  0  0  0  0  0
  1  3  4  0
  1  7  4  0
  2 21  4  0
  2 27  4  0
  3  9  4  0
  3 10  4  0
  4  8  4  0
  4 18  4  0
  4 25  1  0
  5  9  4  0
  5 12  4  0
  6 13  1  0
  6 27  1  0
  7 28  4  0
  8 11  4  0
  9 29  4  0
 10 12  4  0
 11 24  1  0
 11 26  4  0
 12 25  1  0
 13 28  1  0
 14 20  4  0
 14 23  4  0
 15 17  4  0
 15 21  4  0
 16 19  4  0
 16 23  4  0
 17 22  4  0
 18 26  4  0
 19 24  4  0
 20 24  4  0
 22 27  4  0
 28 29  4  0
M  END
$$$$

 Created by Python create_sdf_string function

 29 33  0  0  0  0  0  0  0  0999 V2000
   10.7215   -3.3326   17.6437 C   0  0  0  0  0  0  0  0  0  0  0  0
    9.9489   -3.4675   24.6487 N   0  0  0  0  0  0  0  0  0  0  0  0
   10.0172   -4.4740   17.4101 C   0  0  0  0  0  0  0  0  0  0  0  0
    6.9051   -7.9575   16.4222 C   0  0  0  0  0  0  0  0  0  0  0  0
    8.9969   -6.3552   17.9668 N   0  0  0  0  0  0  0  0  0  0  0  0
   10.6702   -3.9051   22.4070 C   0  0  0  0  0  0  0  0  0  0  0  0
   11.0625   -3.0028   18.8894 C   0  0  0  0  0  0  0  0  0  0  0  0
    5.6180   -7.9194   16.1754 O   0  0  0  0  0  0  0  0  0  0  0  0
    9.7259   -5.3080   18.4485 C   0  0  0  0  0  0  0  0  0  0  0  0
    9.4578   -5.0200   16.3036 N   0  0  0  0  0  0  0  0  0  0  0  0
    5.0287   -8.9365   16.8223 C   0  0  0  0  0  0  0  0  0  0  0  0
    8.7742   -6.1498   16.6764 C   0  0  0  0  0  0  0  0  0  0  0  0
   10.9418   -3.4032   21.2053 O   0  0  0  0  0  0  0  0  0  0  0  0
    1.4797   -8.6258   16.2950 C   0  0  0  0  0  0  0  0  0  0  0  0
    9.2861   -1.2743   25.3585 C   0  0  0  0  0  0  0  0  0  0  0  0
    1.8892  -10.3985   17.7511 N   0  0  0  0  0  0  0  0  0  0  0  0
    9.6210   -0.6952   24.0976 C   0  0  0  0  0  0  0  0  0  0  0  0
    7.0792   -9.0217   17.1429 C   0  0  0  0  0  0  0  0  0  0  0  0
    3.1713  -10.1816   17.6634 C   0  0  0  0  0  0  0  0  0  0  0  0
    2.7878   -8.3822   16.2137 C   0  0  0  0  0  0  0  0  0  0  0  0
    9.4601   -2.6590   25.6528 C   0  0  0  0  0  0  0  0  0  0  0  0
   10.1182   -1.5672   23.1165 C   0  0  0  0  0  0  0  0  0  0  0  0
    1.0552   -9.6360   17.0650 C   0  0  0  0  0  0  0  0  0  0  0  0
    3.6519   -9.1783   16.9039 C   0  0  0  0  0  0  0  0  0  0  0  0
    7.8675   -7.0096   15.9415 C   0  0  0  0  0  0  0  0  0  0  0  0
    5.9733   -9.6553   17.3832 N   0  0  0  0  0  0  0  0  0  0  0  0
   10.2411   -2.9363   23.4301 C   0  0  0  0  0  0  0  0  0  0  0  0
   10.7288   -3.8197   19.9525 C   0  0  0  0  0  0  0  0  0  0  0  0
   10.1189   -5.0054   19.6987 C   0  0  0  0  0  0  0  0  0  0  0  0
  1  3  4  0
  1  7  4  0
  2 21  4  0
  2 27  4  0
  3  9  4  0
  3 10  4  0
  4  8  4  0
  4 18  4  0
  4 25  1  0
  5  9  4  0
  5 12  4  0
  6 13  1  0
  6 27  1  0
  7 28  4  0
  8 11  4  0
  9 29  4  0
 10 12  4  0
 11 24  1  0
 11 26  4  0
 12 25  1  0
 13 28  1  0
 14 20  4  0
 14 23  4  0
 15 17  4  0
 15 21  4  0
 16 19  4  0
 16 23  4  0
 17 22  4  0
 18 26  4  0
 19 24  4  0
 20 24  4  0
 22 27  4  0
 28 29  4  0
M  END
$$$$

 Created by Python create_sdf_string function

 29 33  0  0  0  0  0  0  0  0999 V2000
   10.7215   -3.3326   17.6437 C   0  0  0  0  0  0  0  0  0  0  0  0
    9.9489   -3.4675   24.6487 N   0  0  0  0  0  0  0  0  0  0  0  0
   10.0172   -4.4740   17.4101 C   0  0  0  0  0  0  0  0  0  0  0  0
    6.9051   -7.9575   16.4222 C   0  0  0  0  0  0  0  0  0  0  0  0
    8.9969   -6.3552   17.9668 N   0  0  0  0  0  0  0  0  0  0  0  0
   10.6702   -3.9051   22.4070 C   0  0  0  0  0  0  0  0  0  0  0  0
   11.0625   -3.0028   18.8894 C   0  0  0  0  0  0  0  0  0  0  0  0
    5.6180   -7.9194   16.1754 O   0  0  0  0  0  0  0  0  0  0  0  0
    9.7259   -5.3080   18.4485 C   0  0  0  0  0  0  0  0  0  0  0  0
    9.4578   -5.0200   16.3036 N   0  0  0  0  0  0  0  0  0  0  0  0
    5.0287   -8.9365   16.8223 C   0  0  0  0  0  0  0  0  0  0  0  0
    8.7742   -6.1498   16.6764 C   0  0  0  0  0  0  0  0  0  0  0  0
   10.9418   -3.4032   21.2053 O   0  0  0  0  0  0  0  0  0  0  0  0
    1.4797   -8.6258   16.2950 C   0  0  0  0  0  0  0  0  0  0  0  0
    9.2861   -1.2743   25.3585 C   0  0  0  0  0  0  0  0  0  0  0  0
    1.8892  -10.3985   17.7511 N   0  0  0  0  0  0  0  0  0  0  0  0
    9.6210   -0.6952   24.0976 C   0  0  0  0  0  0  0  0  0  0  0  0
    7.0792   -9.0217   17.1429 C   0  0  0  0  0  0  0  0  0  0  0  0
    3.1713  -10.1816   17.6634 C   0  0  0  0  0  0  0  0  0  0  0  0
    2.7878   -8.3822   16.2137 C   0  0  0  0  0  0  0  0  0  0  0  0
    9.4601   -2.6590   25.6528 C   0  0  0  0  0  0  0  0  0  0  0  0
   10.1182   -1.5672   23.1165 C   0  0  0  0  0  0  0  0  0  0  0  0
    1.0552   -9.6360   17.0650 C   0  0  0  0  0  0  0  0  0  0  0  0
    3.6519   -9.1783   16.9039 C   0  0  0  0  0  0  0  0  0  0  0  0
    7.8675   -7.0096   15.9415 C   0  0  0  0  0  0  0  0  0  0  0  0
    5.9733   -9.6553   17.3832 N   0  0  0  0  0  0  0  0  0  0  0  0
   10.2411   -2.9363   23.4301 C   0  0  0  0  0  0  0  0  0  0  0  0
   10.7288   -3.8197   19.9525 C   0  0  0  0  0  0  0  0  0  0  0  0
   10.1189   -5.0054   19.6987 C   0  0  0  0  0  0  0  0  0  0  0  0
  1  3  4  0
  1  7  4  0
  2 21  4  0
  2 27  4  0
  3  9  4  0
  3 10  4  0
  4  8  4  0
  4 18  4  0
  4 25  1  0
  5  9  4  0
  5 12  4  0
  6 13  1  0
  6 27  1  0
  7 28  4  0
  8 11  4  0
  9 29  4  0
 10 12  4  0
 11 24  1  0
 11 26  4  0
 12 25  1  0
 13 28  1  0
 14 20  4  0
 14 23  4  0
 15 17  4  0
 15 21  4  0
 16 19  4  0
 16 23  4  0
 17 22  4  0
 18 26  4  0
 19 24  4  0
 20 24  4  0
 22 27  4  0
 28 29  4  0
M  END
$$$$

 Created by Python create_sdf_string function

 29 33  0  0  0  0  0  0  0  0999 V2000
   10.7215   -3.3326   17.6437 C   0  0  0  0  0  0  0  0  0  0  0  0
    9.9489   -3.4675   24.6487 N   0  0  0  0  0  0  0  0  0  0  0  0
   10.0172   -4.4740   17.4101 C   0  0  0  0  0  0  0  0  0  0  0  0
    6.9051   -7.9575   16.4222 C   0  0  0  0  0  0  0  0  0  0  0  0
    8.9969   -6.3552   17.9668 N   0  0  0  0  0  0  0  0  0  0  0  0
   10.6702   -3.9051   22.4070 C   0  0  0  0  0  0  0  0  0  0  0  0
   11.0625   -3.0028   18.8894 C   0  0  0  0  0  0  0  0  0  0  0  0
    5.6180   -7.9194   16.1754 O   0  0  0  0  0  0  0  0  0  0  0  0
    9.7259   -5.3080   18.4485 C   0  0  0  0  0  0  0  0  0  0  0  0
    9.4578   -5.0200   16.3036 N   0  0  0  0  0  0  0  0  0  0  0  0
    5.0287   -8.9365   16.8223 C   0  0  0  0  0  0  0  0  0  0  0  0
    8.7742   -6.1498   16.6764 C   0  0  0  0  0  0  0  0  0  0  0  0
   10.9418   -3.4032   21.2053 O   0  0  0  0  0  0  0  0  0  0  0  0
    1.4797   -8.6258   16.2950 C   0  0  0  0  0  0  0  0  0  0  0  0
    9.2861   -1.2743   25.3585 C   0  0  0  0  0  0  0  0  0  0  0  0
    1.8892  -10.3985   17.7511 N   0  0  0  0  0  0  0  0  0  0  0  0
    9.6210   -0.6952   24.0976 C   0  0  0  0  0  0  0  0  0  0  0  0
    7.0792   -9.0217   17.1429 C   0  0  0  0  0  0  0  0  0  0  0  0
    3.1713  -10.1816   17.6634 C   0  0  0  0  0  0  0  0  0  0  0  0
    2.7878   -8.3822   16.2137 C   0  0  0  0  0  0  0  0  0  0  0  0
    9.4601   -2.6590   25.6528 C   0  0  0  0  0  0  0  0  0  0  0  0
   10.1182   -1.5672   23.1165 C   0  0  0  0  0  0  0  0  0  0  0  0
    1.0552   -9.6360   17.0650 C   0  0  0  0  0  0  0  0  0  0  0  0
    3.6519   -9.1783   16.9039 C   0  0  0  0  0  0  0  0  0  0  0  0
    7.8675   -7.0096   15.9415 C   0  0  0  0  0  0  0  0  0  0  0  0
    5.9733   -9.6553   17.3832 N   0  0  0  0  0  0  0  0  0  0  0  0
   10.2411   -2.9363   23.4301 C   0  0  0  0  0  0  0  0  0  0  0  0
   10.7288   -3.8197   19.9525 C   0  0  0  0  0  0  0  0  0  0  0  0
   10.1189   -5.0054   19.6987 C   0  0  0  0  0  0  0  0  0  0  0  0
  1  3  4  0
  1  7  4  0
  2 21  4  0
  2 27  4  0
  3  9  4  0
  3 10  4  0
  4  8  4  0
  4 18  4  0
  4 25  1  0
  5  9  4  0
  5 12  4  0
  6 13  1  0
  6 27  1  0
  7 28  4  0
  8 11  4  0
  9 29  4  0
 10 12  4  0
 11 24  1  0
 11 26  4  0
 12 25  1  0
 13 28  1  0
 14 20  4  0
 14 23  4  0
 15 17  4  0
 15 21  4  0
 16 19  4  0
 16 23  4  0
 17 22  4  0
 18 26  4  0
 19 24  4  0
 20 24  4  0
 22 27  4  0
 28 29  4  0
M  END
$$$$

 Created by Python create_sdf_string function

 29 33  0  0  0  0  0  0  0  0999 V2000
   10.7215   -3.3326   17.6437 C   0  0  0  0  0  0  0  0  0  0  0  0
    9.9489   -3.4675   24.6487 N   0  0  0  0  0  0  0  0  0  0  0  0
   10.0172   -4.4740   17.4101 C   0  0  0  0  0  0  0  0  0  0  0  0
    6.9051   -7.9575   16.4222 C   0  0  0  0  0  0  0  0  0  0  0  0
    8.9969   -6.3552   17.9668 N   0  0  0  0  0  0  0  0  0  0  0  0
   10.6702   -3.9051   22.4070 C   0  0  0  0  0  0  0  0  0  0  0  0
   11.0625   -3.0028   18.8894 C   0  0  0  0  0  0  0  0  0  0  0  0
    5.6180   -7.9194   16.1754 O   0  0  0  0  0  0  0  0  0  0  0  0
    9.7259   -5.3080   18.4485 C   0  0  0  0  0  0  0  0  0  0  0  0
    9.4578   -5.0200   16.3036 N   0  0  0  0  0  0  0  0  0  0  0  0
    5.0287   -8.9365   16.8223 C   0  0  0  0  0  0  0  0  0  0  0  0
    8.7742   -6.1498   16.6764 C   0  0  0  0  0  0  0  0  0  0  0  0
   10.9418   -3.4032   21.2053 O   0  0  0  0  0  0  0  0  0  0  0  0
    1.4797   -8.6258   16.2950 C   0  0  0  0  0  0  0  0  0  0  0  0
    9.2861   -1.2743   25.3585 C   0  0  0  0  0  0  0  0  0  0  0  0
    1.8892  -10.3985   17.7511 N   0  0  0  0  0  0  0  0  0  0  0  0
    9.6210   -0.6952   24.0976 C   0  0  0  0  0  0  0  0  0  0  0  0
    7.0792   -9.0217   17.1429 C   0  0  0  0  0  0  0  0  0  0  0  0
    3.1713  -10.1816   17.6634 C   0  0  0  0  0  0  0  0  0  0  0  0
    2.7878   -8.3822   16.2137 C   0  0  0  0  0  0  0  0  0  0  0  0
    9.4601   -2.6590   25.6528 C   0  0  0  0  0  0  0  0  0  0  0  0
   10.1182   -1.5672   23.1165 C   0  0  0  0  0  0  0  0  0  0  0  0
    1.0552   -9.6360   17.0650 C   0  0  0  0  0  0  0  0  0  0  0  0
    3.6519   -9.1783   16.9039 C   0  0  0  0  0  0  0  0  0  0  0  0
    7.8675   -7.0096   15.9415 C   0  0  0  0  0  0  0  0  0  0  0  0
    5.9733   -9.6553   17.3832 N   0  0  0  0  0  0  0  0  0  0  0  0
   10.2411   -2.9363   23.4301 C   0  0  0  0  0  0  0  0  0  0  0  0
   10.7288   -3.8197   19.9525 C   0  0  0  0  0  0  0  0  0  0  0  0
   10.1189   -5.0054   19.6987 C   0  0  0  0  0  0  0  0  0  0  0  0
  1  3  4  0
  1  7  4  0
  2 21  4  0
  2 27  4  0
  3  9  4  0
  3 10  4  0
  4  8  4  0
  4 18  4  0
  4 25  1  0
  5  9  4  0
  5 12  4  0
  6 13  1  0
  6 27  1  0
  7 28  4  0
  8 11  4  0
  9 29  4  0
 10 12  4  0
 11 24  1  0
 11 26  4  0
 12 25  1  0
 13 28  1  0
 14 20  4  0
 14 23  4  0
 15 17  4  0
 15 21  4  0
 16 19  4  0
 16 23  4  0
 17 22  4  0
 18 26  4  0
 19 24  4  0
 20 24  4  0
 22 27  4  0
 28 29  4  0
M  END
$$$$

 Created by Python create_sdf_string function

 29 33  0  0  0  0  0  0  0  0999 V2000
   10.7215   -3.3326   17.6437 C   0  0  0  0  0  0  0  0  0  0  0  0
    9.9489   -3.4675   24.6487 N   0  0  0  0  0  0  0  0  0  0  0  0
   10.0172   -4.4740   17.4101 C   0  0  0  0  0  0  0  0  0  0  0  0
    6.9051   -7.9575   16.4222 C   0  0  0  0  0  0  0  0  0  0  0  0
    8.9969   -6.3552   17.9668 N   0  0  0  0  0  0  0  0  0  0  0  0
   10.6702   -3.9051   22.4070 C   0  0  0  0  0  0  0  0  0  0  0  0
   11.0625   -3.0028   18.8894 C   0  0  0  0  0  0  0  0  0  0  0  0
    5.6180   -7.9194   16.1754 O   0  0  0  0  0  0  0  0  0  0  0  0
    9.7259   -5.3080   18.4485 C   0  0  0  0  0  0  0  0  0  0  0  0
    9.4578   -5.0200   16.3036 N   0  0  0  0  0  0  0  0  0  0  0  0
    5.0287   -8.9365   16.8223 C   0  0  0  0  0  0  0  0  0  0  0  0
    8.7742   -6.1498   16.6764 C   0  0  0  0  0  0  0  0  0  0  0  0
   10.9418   -3.4032   21.2053 O   0  0  0  0  0  0  0  0  0  0  0  0
    1.4797   -8.6258   16.2950 C   0  0  0  0  0  0  0  0  0  0  0  0
    9.2861   -1.2743   25.3585 C   0  0  0  0  0  0  0  0  0  0  0  0
    1.8892  -10.3985   17.7511 N   0  0  0  0  0  0  0  0  0  0  0  0
    9.6210   -0.6952   24.0976 C   0  0  0  0  0  0  0  0  0  0  0  0
    7.0792   -9.0217   17.1429 C   0  0  0  0  0  0  0  0  0  0  0  0
    3.1713  -10.1816   17.6634 C   0  0  0  0  0  0  0  0  0  0  0  0
    2.7878   -8.3822   16.2137 C   0  0  0  0  0  0  0  0  0  0  0  0
    9.4601   -2.6590   25.6528 C   0  0  0  0  0  0  0  0  0  0  0  0
   10.1182   -1.5672   23.1165 C   0  0  0  0  0  0  0  0  0  0  0  0
    1.0552   -9.6360   17.0650 C   0  0  0  0  0  0  0  0  0  0  0  0
    3.6519   -9.1783   16.9039 C   0  0  0  0  0  0  0  0  0  0  0  0
    7.8675   -7.0096   15.9415 C   0  0  0  0  0  0  0  0  0  0  0  0
    5.9733   -9.6553   17.3832 N   0  0  0  0  0  0  0  0  0  0  0  0
   10.2411   -2.9363   23.4301 C   0  0  0  0  0  0  0  0  0  0  0  0
   10.7288   -3.8197   19.9525 C   0  0  0  0  0  0  0  0  0  0  0  0
   10.1189   -5.0054   19.6987 C   0  0  0  0  0  0  0  0  0  0  0  0
  1  3  4  0
  1  7  4  0
  2 21  4  0
  2 27  4  0
  3  9  4  0
  3 10  4  0
  4  8  4  0
  4 18  4  0
  4 25  1  0
  5  9  4  0
  5 12  4  0
  6 13  1  0
  6 27  1  0
  7 28  4  0
  8 11  4  0
  9 29  4  0
 10 12  4  0
 11 24  1  0
 11 26  4  0
 12 25  1  0
 13 28  1  0
 14 20  4  0
 14 23  4  0
 15 17  4  0
 15 21  4  0
 16 19  4  0
 16 23  4  0
 17 22  4  0
 18 26  4  0
 19 24  4  0
 20 24  4  0
 22 27  4  0
 28 29  4  0
M  END
$$$$

 Created by Python create_sdf_string function

 29 33  0  0  0  0  0  0  0  0999 V2000
   10.7215   -3.3326   17.6437 C   0  0  0  0  0  0  0  0  0  0  0  0
    9.9489   -3.4675   24.6487 N   0  0  0  0  0  0  0  0  0  0  0  0
   10.0172   -4.4740   17.4101 C   0  0  0  0  0  0  0  0  0  0  0  0
    6.9051   -7.9575   16.4222 C   0  0  0  0  0  0  0  0  0  0  0  0
    8.9969   -6.3552   17.9668 N   0  0  0  0  0  0  0  0  0  0  0  0
   10.6702   -3.9051   22.4070 C   0  0  0  0  0  0  0  0  0  0  0  0
   11.0625   -3.0028   18.8894 C   0  0  0  0  0  0  0  0  0  0  0  0
    5.6180   -7.9194   16.1754 O   0  0  0  0  0  0  0  0  0  0  0  0
    9.7259   -5.3080   18.4485 C   0  0  0  0  0  0  0  0  0  0  0  0
    9.4578   -5.0200   16.3036 N   0  0  0  0  0  0  0  0  0  0  0  0
    5.0287   -8.9365   16.8223 C   0  0  0  0  0  0  0  0  0  0  0  0
    8.7742   -6.1498   16.6764 C   0  0  0  0  0  0  0  0  0  0  0  0
   10.9418   -3.4032   21.2053 O   0  0  0  0  0  0  0  0  0  0  0  0
    1.4797   -8.6258   16.2950 C   0  0  0  0  0  0  0  0  0  0  0  0
    9.2861   -1.2743   25.3585 C   0  0  0  0  0  0  0  0  0  0  0  0
    1.8892  -10.3985   17.7511 N   0  0  0  0  0  0  0  0  0  0  0  0
    9.6210   -0.6952   24.0976 C   0  0  0  0  0  0  0  0  0  0  0  0
    7.0792   -9.0217   17.1429 C   0  0  0  0  0  0  0  0  0  0  0  0
    3.1713  -10.1816   17.6634 C   0  0  0  0  0  0  0  0  0  0  0  0
    2.7878   -8.3822   16.2137 C   0  0  0  0  0  0  0  0  0  0  0  0
    9.4601   -2.6590   25.6528 C   0  0  0  0  0  0  0  0  0  0  0  0
   10.1182   -1.5672   23.1165 C   0  0  0  0  0  0  0  0  0  0  0  0
    1.0552   -9.6360   17.0650 C   0  0  0  0  0  0  0  0  0  0  0  0
    3.6519   -9.1783   16.9039 C   0  0  0  0  0  0  0  0  0  0  0  0
    7.8675   -7.0096   15.9415 C   0  0  0  0  0  0  0  0  0  0  0  0
    5.9733   -9.6553   17.3832 N   0  0  0  0  0  0  0  0  0  0  0  0
   10.2411   -2.9363   23.4301 C   0  0  0  0  0  0  0  0  0  0  0  0
   10.7288   -3.8197   19.9525 C   0  0  0  0  0  0  0  0  0  0  0  0
   10.1189   -5.0054   19.6987 C   0  0  0  0  0  0  0  0  0  0  0  0
  1  3  4  0
  1  7  4  0
  2 21  4  0
  2 27  4  0
  3  9  4  0
  3 10  4  0
  4  8  4  0
  4 18  4  0
  4 25  1  0
  5  9  4  0
  5 12  4  0
  6 13  1  0
  6 27  1  0
  7 28  4  0
  8 11  4  0
  9 29  4  0
 10 12  4  0
 11 24  1  0
 11 26  4  0
 12 25  1  0
 13 28  1  0
 14 20  4  0
 14 23  4  0
 15 17  4  0
 15 21  4  0
 16 19  4  0
 16 23  4  0
 17 22  4  0
 18 26  4  0
 19 24  4  0
 20 24  4  0
 22 27  4  0
 28 29  4  0
M  END
$$$$

 Created by Python create_sdf_string function

 29 33  0  0  0  0  0  0  0  0999 V2000
   10.7215   -3.3326   17.6437 C   0  0  0  0  0  0  0  0  0  0  0  0
    9.9489   -3.4675   24.6487 N   0  0  0  0  0  0  0  0  0  0  0  0
   10.0172   -4.4740   17.4101 C   0  0  0  0  0  0  0  0  0  0  0  0
    6.9051   -7.9575   16.4222 C   0  0  0  0  0  0  0  0  0  0  0  0
    8.9969   -6.3552   17.9668 N   0  0  0  0  0  0  0  0  0  0  0  0
   10.6702   -3.9051   22.4070 C   0  0  0  0  0  0  0  0  0  0  0  0
   11.0625   -3.0028   18.8894 C   0  0  0  0  0  0  0  0  0  0  0  0
    5.6180   -7.9194   16.1754 O   0  0  0  0  0  0  0  0  0  0  0  0
    9.7259   -5.3080   18.4485 C   0  0  0  0  0  0  0  0  0  0  0  0
    9.4578   -5.0200   16.3036 N   0  0  0  0  0  0  0  0  0  0  0  0
    5.0287   -8.9365   16.8223 C   0  0  0  0  0  0  0  0  0  0  0  0
    8.7742   -6.1498   16.6764 C   0  0  0  0  0  0  0  0  0  0  0  0
   10.9418   -3.4032   21.2053 O   0  0  0  0  0  0  0  0  0  0  0  0
    1.4797   -8.6258   16.2950 C   0  0  0  0  0  0  0  0  0  0  0  0
    9.2861   -1.2743   25.3585 C   0  0  0  0  0  0  0  0  0  0  0  0
    1.8892  -10.3985   17.7511 N   0  0  0  0  0  0  0  0  0  0  0  0
    9.6210   -0.6952   24.0976 C   0  0  0  0  0  0  0  0  0  0  0  0
    7.0792   -9.0217   17.1429 C   0  0  0  0  0  0  0  0  0  0  0  0
    3.1713  -10.1816   17.6634 C   0  0  0  0  0  0  0  0  0  0  0  0
    2.7878   -8.3822   16.2137 C   0  0  0  0  0  0  0  0  0  0  0  0
    9.4601   -2.6590   25.6528 C   0  0  0  0  0  0  0  0  0  0  0  0
   10.1182   -1.5672   23.1165 C   0  0  0  0  0  0  0  0  0  0  0  0
    1.0552   -9.6360   17.0650 C   0  0  0  0  0  0  0  0  0  0  0  0
    3.6519   -9.1783   16.9039 C   0  0  0  0  0  0  0  0  0  0  0  0
    7.8675   -7.0096   15.9415 C   0  0  0  0  0  0  0  0  0  0  0  0
    5.9733   -9.6553   17.3832 N   0  0  0  0  0  0  0  0  0  0  0  0
   10.2411   -2.9363   23.4301 C   0  0  0  0  0  0  0  0  0  0  0  0
   10.7288   -3.8197   19.9525 C   0  0  0  0  0  0  0  0  0  0  0  0
   10.1189   -5.0054   19.6987 C   0  0  0  0  0  0  0  0  0  0  0  0
  1  3  4  0
  1  7  4  0
  2 21  4  0
  2 27  4  0
  3  9  4  0
  3 10  4  0
  4  8  4  0
  4 18  4  0
  4 25  1  0
  5  9  4  0
  5 12  4  0
  6 13  1  0
  6 27  1  0
  7 28  4  0
  8 11  4  0
  9 29  4  0
 10 12  4  0
 11 24  1  0
 11 26  4  0
 12 25  1  0
 13 28  1  0
 14 20  4  0
 14 23  4  0
 15 17  4  0
 15 21  4  0
 16 19  4  0
 16 23  4  0
 17 22  4  0
 18 26  4  0
 19 24  4  0
 20 24  4  0
 22 27  4  0
 28 29  4  0
M  END
$$$$

 Created by Python create_sdf_string function

 29 33  0  0  0  0  0  0  0  0999 V2000
   10.7215   -3.3326   17.6437 C   0  0  0  0  0  0  0  0  0  0  0  0
    9.9489   -3.4675   24.6487 N   0  0  0  0  0  0  0  0  0  0  0  0
   10.0172   -4.4740   17.4101 C   0  0  0  0  0  0  0  0  0  0  0  0
    6.9051   -7.9575   16.4222 C   0  0  0  0  0  0  0  0  0  0  0  0
    8.9969   -6.3552   17.9668 N   0  0  0  0  0  0  0  0  0  0  0  0
   10.6702   -3.9051   22.4070 C   0  0  0  0  0  0  0  0  0  0  0  0
   11.0625   -3.0028   18.8894 C   0  0  0  0  0  0  0  0  0  0  0  0
    5.6180   -7.9194   16.1754 O   0  0  0  0  0  0  0  0  0  0  0  0
    9.7259   -5.3080   18.4485 C   0  0  0  0  0  0  0  0  0  0  0  0
    9.4578   -5.0200   16.3036 N   0  0  0  0  0  0  0  0  0  0  0  0
    5.0287   -8.9365   16.8223 C   0  0  0  0  0  0  0  0  0  0  0  0
    8.7742   -6.1498   16.6764 C   0  0  0  0  0  0  0  0  0  0  0  0
   10.9418   -3.4032   21.2053 O   0  0  0  0  0  0  0  0  0  0  0  0
    1.4797   -8.6258   16.2950 C   0  0  0  0  0  0  0  0  0  0  0  0
    9.2861   -1.2743   25.3585 C   0  0  0  0  0  0  0  0  0  0  0  0
    1.8892  -10.3985   17.7511 N   0  0  0  0  0  0  0  0  0  0  0  0
    9.6210   -0.6952   24.0976 C   0  0  0  0  0  0  0  0  0  0  0  0
    7.0792   -9.0217   17.1429 C   0  0  0  0  0  0  0  0  0  0  0  0
    3.1713  -10.1816   17.6634 C   0  0  0  0  0  0  0  0  0  0  0  0
    2.7878   -8.3822   16.2137 C   0  0  0  0  0  0  0  0  0  0  0  0
    9.4601   -2.6590   25.6528 C   0  0  0  0  0  0  0  0  0  0  0  0
   10.1182   -1.5672   23.1165 C   0  0  0  0  0  0  0  0  0  0  0  0
    1.0552   -9.6360   17.0650 C   0  0  0  0  0  0  0  0  0  0  0  0
    3.6519   -9.1783   16.9039 C   0  0  0  0  0  0  0  0  0  0  0  0
    7.8675   -7.0096   15.9415 C   0  0  0  0  0  0  0  0  0  0  0  0
    5.9733   -9.6553   17.3832 N   0  0  0  0  0  0  0  0  0  0  0  0
   10.2411   -2.9363   23.4301 C   0  0  0  0  0  0  0  0  0  0  0  0
   10.7288   -3.8197   19.9525 C   0  0  0  0  0  0  0  0  0  0  0  0
   10.1189   -5.0054   19.6987 C   0  0  0  0  0  0  0  0  0  0  0  0
  1  3  4  0
  1  7  4  0
  2 21  4  0
  2 27  4  0
  3  9  4  0
  3 10  4  0
  4  8  4  0
  4 18  4  0
  4 25  1  0
  5  9  4  0
  5 12  4  0
  6 13  1  0
  6 27  1  0
  7 28  4  0
  8 11  4  0
  9 29  4  0
 10 12  4  0
 11 24  1  0
 11 26  4  0
 12 25  1  0
 13 28  1  0
 14 20  4  0
 14 23  4  0
 15 17  4  0
 15 21  4  0
 16 19  4  0
 16 23  4  0
 17 22  4  0
 18 26  4  0
 19 24  4  0
 20 24  4  0
 22 27  4  0
 28 29  4  0
M  END
$$$$

 Created by Python create_sdf_string function

 29 33  0  0  0  0  0  0  0  0999 V2000
   10.7215   -3.3326   17.6437 C   0  0  0  0  0  0  0  0  0  0  0  0
    9.9489   -3.4675   24.6487 N   0  0  0  0  0  0  0  0  0  0  0  0
   10.0172   -4.4740   17.4101 C   0  0  0  0  0  0  0  0  0  0  0  0
    6.9051   -7.9575   16.4222 C   0  0  0  0  0  0  0  0  0  0  0  0
    8.9969   -6.3552   17.9668 N   0  0  0  0  0  0  0  0  0  0  0  0
   10.6702   -3.9051   22.4070 C   0  0  0  0  0  0  0  0  0  0  0  0
   11.0625   -3.0028   18.8894 C   0  0  0  0  0  0  0  0  0  0  0  0
    5.6180   -7.9194   16.1754 O   0  0  0  0  0  0  0  0  0  0  0  0
    9.7259   -5.3080   18.4485 C   0  0  0  0  0  0  0  0  0  0  0  0
    9.4578   -5.0200   16.3036 N   0  0  0  0  0  0  0  0  0  0  0  0
    5.0287   -8.9365   16.8223 C   0  0  0  0  0  0  0  0  0  0  0  0
    8.7742   -6.1498   16.6764 C   0  0  0  0  0  0  0  0  0  0  0  0
   10.9418   -3.4032   21.2053 O   0  0  0  0  0  0  0  0  0  0  0  0
    1.4797   -8.6258   16.2950 C   0  0  0  0  0  0  0  0  0  0  0  0
    9.2861   -1.2743   25.3585 C   0  0  0  0  0  0  0  0  0  0  0  0
    1.8892  -10.3985   17.7511 N   0  0  0  0  0  0  0  0  0  0  0  0
    9.6210   -0.6952   24.0976 C   0  0  0  0  0  0  0  0  0  0  0  0
    7.0792   -9.0217   17.1429 C   0  0  0  0  0  0  0  0  0  0  0  0
    3.1713  -10.1816   17.6634 C   0  0  0  0  0  0  0  0  0  0  0  0
    2.7878   -8.3822   16.2137 C   0  0  0  0  0  0  0  0  0  0  0  0
    9.4601   -2.6590   25.6528 C   0  0  0  0  0  0  0  0  0  0  0  0
   10.1182   -1.5672   23.1165 C   0  0  0  0  0  0  0  0  0  0  0  0
    1.0552   -9.6360   17.0650 C   0  0  0  0  0  0  0  0  0  0  0  0
    3.6519   -9.1783   16.9039 C   0  0  0  0  0  0  0  0  0  0  0  0
    7.8675   -7.0096   15.9415 C   0  0  0  0  0  0  0  0  0  0  0  0
    5.9733   -9.6553   17.3832 N   0  0  0  0  0  0  0  0  0  0  0  0
   10.2411   -2.9363   23.4301 C   0  0  0  0  0  0  0  0  0  0  0  0
   10.7288   -3.8197   19.9525 C   0  0  0  0  0  0  0  0  0  0  0  0
   10.1189   -5.0054   19.6987 C   0  0  0  0  0  0  0  0  0  0  0  0
  1  3  4  0
  1  7  4  0
  2 21  4  0
  2 27  4  0
  3  9  4  0
  3 10  4  0
  4  8  4  0
  4 18  4  0
  4 25  1  0
  5  9  4  0
  5 12  4  0
  6 13  1  0
  6 27  1  0
  7 28  4  0
  8 11  4  0
  9 29  4  0
 10 12  4  0
 11 24  1  0
 11 26  4  0
 12 25  1  0
 13 28  1  0
 14 20  4  0
 14 23  4  0
 15 17  4  0
 15 21  4  0
 16 19  4  0
 16 23  4  0
 17 22  4  0
 18 26  4  0
 19 24  4  0
 20 24  4  0
 22 27  4  0
 28 29  4  0
M  END
$$$$

 Created by Python create_sdf_string function

 29 33  0  0  0  0  0  0  0  0999 V2000
   10.7215   -3.3326   17.6437 C   0  0  0  0  0  0  0  0  0  0  0  0
    9.9489   -3.4675   24.6487 N   0  0  0  0  0  0  0  0  0  0  0  0
   10.0172   -4.4740   17.4101 C   0  0  0  0  0  0  0  0  0  0  0  0
    6.9051   -7.9575   16.4222 C   0  0  0  0  0  0  0  0  0  0  0  0
    8.9969   -6.3552   17.9668 N   0  0  0  0  0  0  0  0  0  0  0  0
   10.6702   -3.9051   22.4070 C   0  0  0  0  0  0  0  0  0  0  0  0
   11.0625   -3.0028   18.8894 C   0  0  0  0  0  0  0  0  0  0  0  0
    5.6180   -7.9194   16.1754 O   0  0  0  0  0  0  0  0  0  0  0  0
    9.7259   -5.3080   18.4485 C   0  0  0  0  0  0  0  0  0  0  0  0
    9.4578   -5.0200   16.3036 N   0  0  0  0  0  0  0  0  0  0  0  0
    5.0287   -8.9365   16.8223 C   0  0  0  0  0  0  0  0  0  0  0  0
    8.7742   -6.1498   16.6764 C   0  0  0  0  0  0  0  0  0  0  0  0
   10.9418   -3.4032   21.2053 O   0  0  0  0  0  0  0  0  0  0  0  0
    1.4797   -8.6258   16.2950 C   0  0  0  0  0  0  0  0  0  0  0  0
    9.2861   -1.2743   25.3585 C   0  0  0  0  0  0  0  0  0  0  0  0
    1.8892  -10.3985   17.7511 N   0  0  0  0  0  0  0  0  0  0  0  0
    9.6210   -0.6952   24.0976 C   0  0  0  0  0  0  0  0  0  0  0  0
    7.0792   -9.0217   17.1429 C   0  0  0  0  0  0  0  0  0  0  0  0
    3.1713  -10.1816   17.6634 C   0  0  0  0  0  0  0  0  0  0  0  0
    2.7878   -8.3822   16.2137 C   0  0  0  0  0  0  0  0  0  0  0  0
    9.4601   -2.6590   25.6528 C   0  0  0  0  0  0  0  0  0  0  0  0
   10.1182   -1.5672   23.1165 C   0  0  0  0  0  0  0  0  0  0  0  0
    1.0552   -9.6360   17.0650 C   0  0  0  0  0  0  0  0  0  0  0  0
    3.6519   -9.1783   16.9039 C   0  0  0  0  0  0  0  0  0  0  0  0
    7.8675   -7.0096   15.9415 C   0  0  0  0  0  0  0  0  0  0  0  0
    5.9733   -9.6553   17.3832 N   0  0  0  0  0  0  0  0  0  0  0  0
   10.2411   -2.9363   23.4301 C   0  0  0  0  0  0  0  0  0  0  0  0
   10.7288   -3.8197   19.9525 C   0  0  0  0  0  0  0  0  0  0  0  0
   10.1189   -5.0054   19.6987 C   0  0  0  0  0  0  0  0  0  0  0  0
  1  3  4  0
  1  7  4  0
  2 21  4  0
  2 27  4  0
  3  9  4  0
  3 10  4  0
  4  8  4  0
  4 18  4  0
  4 25  1  0
  5  9  4  0
  5 12  4  0
  6 13  1  0
  6 27  1  0
  7 28  4  0
  8 11  4  0
  9 29  4  0
 10 12  4  0
 11 24  1  0
 11 26  4  0
 12 25  1  0
 13 28  1  0
 14 20  4  0
 14 23  4  0
 15 17  4  0
 15 21  4  0
 16 19  4  0
 16 23  4  0
 17 22  4  0
 18 26  4  0
 19 24  4  0
 20 24  4  0
 22 27  4  0
 28 29  4  0
M  END
$$$$

 Created by Python create_sdf_string function

 29 33  0  0  0  0  0  0  0  0999 V2000
   10.7215   -3.3326   17.6437 C   0  0  0  0  0  0  0  0  0  0  0  0
    9.9489   -3.4675   24.6487 N   0  0  0  0  0  0  0  0  0  0  0  0
   10.0172   -4.4740   17.4101 C   0  0  0  0  0  0  0  0  0  0  0  0
    6.9051   -7.9575   16.4222 C   0  0  0  0  0  0  0  0  0  0  0  0
    8.9969   -6.3552   17.9668 N   0  0  0  0  0  0  0  0  0  0  0  0
   10.6702   -3.9051   22.4070 C   0  0  0  0  0  0  0  0  0  0  0  0
   11.0625   -3.0028   18.8894 C   0  0  0  0  0  0  0  0  0  0  0  0
    5.6180   -7.9194   16.1754 O   0  0  0  0  0  0  0  0  0  0  0  0
    9.7259   -5.3080   18.4485 C   0  0  0  0  0  0  0  0  0  0  0  0
    9.4578   -5.0200   16.3036 N   0  0  0  0  0  0  0  0  0  0  0  0
    5.0287   -8.9365   16.8223 C   0  0  0  0  0  0  0  0  0  0  0  0
    8.7742   -6.1498   16.6764 C   0  0  0  0  0  0  0  0  0  0  0  0
   10.9418   -3.4032   21.2053 O   0  0  0  0  0  0  0  0  0  0  0  0
    1.4797   -8.6258   16.2950 C   0  0  0  0  0  0  0  0  0  0  0  0
    9.2861   -1.2743   25.3585 C   0  0  0  0  0  0  0  0  0  0  0  0
    1.8892  -10.3985   17.7511 N   0  0  0  0  0  0  0  0  0  0  0  0
    9.6210   -0.6952   24.0976 C   0  0  0  0  0  0  0  0  0  0  0  0
    7.0792   -9.0217   17.1429 C   0  0  0  0  0  0  0  0  0  0  0  0
    3.1713  -10.1816   17.6634 C   0  0  0  0  0  0  0  0  0  0  0  0
    2.7878   -8.3822   16.2137 C   0  0  0  0  0  0  0  0  0  0  0  0
    9.4601   -2.6590   25.6528 C   0  0  0  0  0  0  0  0  0  0  0  0
   10.1182   -1.5672   23.1165 C   0  0  0  0  0  0  0  0  0  0  0  0
    1.0552   -9.6360   17.0650 C   0  0  0  0  0  0  0  0  0  0  0  0
    3.6519   -9.1783   16.9039 C   0  0  0  0  0  0  0  0  0  0  0  0
    7.8675   -7.0096   15.9415 C   0  0  0  0  0  0  0  0  0  0  0  0
    5.9733   -9.6553   17.3832 N   0  0  0  0  0  0  0  0  0  0  0  0
   10.2411   -2.9363   23.4301 C   0  0  0  0  0  0  0  0  0  0  0  0
   10.7288   -3.8197   19.9525 C   0  0  0  0  0  0  0  0  0  0  0  0
   10.1189   -5.0054   19.6987 C   0  0  0  0  0  0  0  0  0  0  0  0
  1  3  4  0
  1  7  4  0
  2 21  4  0
  2 27  4  0
  3  9  4  0
  3 10  4  0
  4  8  4  0
  4 18  4  0
  4 25  1  0
  5  9  4  0
  5 12  4  0
  6 13  1  0
  6 27  1  0
  7 28  4  0
  8 11  4  0
  9 29  4  0
 10 12  4  0
 11 24  1  0
 11 26  4  0
 12 25  1  0
 13 28  1  0
 14 20  4  0
 14 23  4  0
 15 17  4  0
 15 21  4  0
 16 19  4  0
 16 23  4  0
 17 22  4  0
 18 26  4  0
 19 24  4  0
 20 24  4  0
 22 27  4  0
 28 29  4  0
M  END
$$$$

 Created by Python create_sdf_string function

 29 33  0  0  0  0  0  0  0  0999 V2000
   10.7215   -3.3326   17.6437 C   0  0  0  0  0  0  0  0  0  0  0  0
    9.9489   -3.4675   24.6487 N   0  0  0  0  0  0  0  0  0  0  0  0
   10.0172   -4.4740   17.4101 C   0  0  0  0  0  0  0  0  0  0  0  0
    6.9051   -7.9575   16.4222 C   0  0  0  0  0  0  0  0  0  0  0  0
    8.9969   -6.3552   17.9668 N   0  0  0  0  0  0  0  0  0  0  0  0
   10.6702   -3.9051   22.4070 C   0  0  0  0  0  0  0  0  0  0  0  0
   11.0625   -3.0028   18.8894 C   0  0  0  0  0  0  0  0  0  0  0  0
    5.6180   -7.9194   16.1754 O   0  0  0  0  0  0  0  0  0  0  0  0
    9.7259   -5.3080   18.4485 C   0  0  0  0  0  0  0  0  0  0  0  0
    9.4578   -5.0200   16.3036 N   0  0  0  0  0  0  0  0  0  0  0  0
    5.0287   -8.9365   16.8223 C   0  0  0  0  0  0  0  0  0  0  0  0
    8.7742   -6.1498   16.6764 C   0  0  0  0  0  0  0  0  0  0  0  0
   10.9418   -3.4032   21.2053 O   0  0  0  0  0  0  0  0  0  0  0  0
    1.4797   -8.6258   16.2950 C   0  0  0  0  0  0  0  0  0  0  0  0
    9.2861   -1.2743   25.3585 C   0  0  0  0  0  0  0  0  0  0  0  0
    1.8892  -10.3985   17.7511 N   0  0  0  0  0  0  0  0  0  0  0  0
    9.6210   -0.6952   24.0976 C   0  0  0  0  0  0  0  0  0  0  0  0
    7.0792   -9.0217   17.1429 C   0  0  0  0  0  0  0  0  0  0  0  0
    3.1713  -10.1816   17.6634 C   0  0  0  0  0  0  0  0  0  0  0  0
    2.7878   -8.3822   16.2137 C   0  0  0  0  0  0  0  0  0  0  0  0
    9.4601   -2.6590   25.6528 C   0  0  0  0  0  0  0  0  0  0  0  0
   10.1182   -1.5672   23.1165 C   0  0  0  0  0  0  0  0  0  0  0  0
    1.0552   -9.6360   17.0650 C   0  0  0  0  0  0  0  0  0  0  0  0
    3.6519   -9.1783   16.9039 C   0  0  0  0  0  0  0  0  0  0  0  0
    7.8675   -7.0096   15.9415 C   0  0  0  0  0  0  0  0  0  0  0  0
    5.9733   -9.6553   17.3832 N   0  0  0  0  0  0  0  0  0  0  0  0
   10.2411   -2.9363   23.4301 C   0  0  0  0  0  0  0  0  0  0  0  0
   10.7288   -3.8197   19.9525 C   0  0  0  0  0  0  0  0  0  0  0  0
   10.1189   -5.0054   19.6987 C   0  0  0  0  0  0  0  0  0  0  0  0
  1  3  4  0
  1  7  4  0
  2 21  4  0
  2 27  4  0
  3  9  4  0
  3 10  4  0
  4  8  4  0
  4 18  4  0
  4 25  1  0
  5  9  4  0
  5 12  4  0
  6 13  1  0
  6 27  1  0
  7 28  4  0
  8 11  4  0
  9 29  4  0
 10 12  4  0
 11 24  1  0
 11 26  4  0
 12 25  1  0
 13 28  1  0
 14 20  4  0
 14 23  4  0
 15 17  4  0
 15 21  4  0
 16 19  4  0
 16 23  4  0
 17 22  4  0
 18 26  4  0
 19 24  4  0
 20 24  4  0
 22 27  4  0
 28 29  4  0
M  END
$$$$

 Created by Python create_sdf_string function

 29 33  0  0  0  0  0  0  0  0999 V2000
   10.7215   -3.3326   17.6437 C   0  0  0  0  0  0  0  0  0  0  0  0
    9.9489   -3.4675   24.6487 N   0  0  0  0  0  0  0  0  0  0  0  0
   10.0172   -4.4740   17.4101 C   0  0  0  0  0  0  0  0  0  0  0  0
    6.9051   -7.9575   16.4222 C   0  0  0  0  0  0  0  0  0  0  0  0
    8.9969   -6.3552   17.9668 N   0  0  0  0  0  0  0  0  0  0  0  0
   10.6702   -3.9051   22.4070 C   0  0  0  0  0  0  0  0  0  0  0  0
   11.0625   -3.0028   18.8894 C   0  0  0  0  0  0  0  0  0  0  0  0
    5.6180   -7.9194   16.1754 O   0  0  0  0  0  0  0  0  0  0  0  0
    9.7259   -5.3080   18.4485 C   0  0  0  0  0  0  0  0  0  0  0  0
    9.4578   -5.0200   16.3036 N   0  0  0  0  0  0  0  0  0  0  0  0
    5.0287   -8.9365   16.8223 C   0  0  0  0  0  0  0  0  0  0  0  0
    8.7742   -6.1498   16.6764 C   0  0  0  0  0  0  0  0  0  0  0  0
   10.9418   -3.4032   21.2053 O   0  0  0  0  0  0  0  0  0  0  0  0
    1.4797   -8.6258   16.2950 C   0  0  0  0  0  0  0  0  0  0  0  0
    9.2861   -1.2743   25.3585 C   0  0  0  0  0  0  0  0  0  0  0  0
    1.8892  -10.3985   17.7511 N   0  0  0  0  0  0  0  0  0  0  0  0
    9.6210   -0.6952   24.0976 C   0  0  0  0  0  0  0  0  0  0  0  0
    7.0792   -9.0217   17.1429 C   0  0  0  0  0  0  0  0  0  0  0  0
    3.1713  -10.1816   17.6634 C   0  0  0  0  0  0  0  0  0  0  0  0
    2.7878   -8.3822   16.2137 C   0  0  0  0  0  0  0  0  0  0  0  0
    9.4601   -2.6590   25.6528 C   0  0  0  0  0  0  0  0  0  0  0  0
   10.1182   -1.5672   23.1165 C   0  0  0  0  0  0  0  0  0  0  0  0
    1.0552   -9.6360   17.0650 C   0  0  0  0  0  0  0  0  0  0  0  0
    3.6519   -9.1783   16.9039 C   0  0  0  0  0  0  0  0  0  0  0  0
    7.8675   -7.0096   15.9415 C   0  0  0  0  0  0  0  0  0  0  0  0
    5.9733   -9.6553   17.3832 N   0  0  0  0  0  0  0  0  0  0  0  0
   10.2411   -2.9363   23.4301 C   0  0  0  0  0  0  0  0  0  0  0  0
   10.7288   -3.8197   19.9525 C   0  0  0  0  0  0  0  0  0  0  0  0
   10.1189   -5.0054   19.6987 C   0  0  0  0  0  0  0  0  0  0  0  0
  1  3  4  0
  1  7  4  0
  2 21  4  0
  2 27  4  0
  3  9  4  0
  3 10  4  0
  4  8  4  0
  4 18  4  0
  4 25  1  0
  5  9  4  0
  5 12  4  0
  6 13  1  0
  6 27  1  0
  7 28  4  0
  8 11  4  0
  9 29  4  0
 10 12  4  0
 11 24  1  0
 11 26  4  0
 12 25  1  0
 13 28  1  0
 14 20  4  0
 14 23  4  0
 15 17  4  0
 15 21  4  0
 16 19  4  0
 16 23  4  0
 17 22  4  0
 18 26  4  0
 19 24  4  0
 20 24  4  0
 22 27  4  0
 28 29  4  0
M  END
$$$$

 Created by Python create_sdf_string function

 29 33  0  0  0  0  0  0  0  0999 V2000
   10.7215   -3.3326   17.6437 C   0  0  0  0  0  0  0  0  0  0  0  0
    9.9489   -3.4675   24.6487 N   0  0  0  0  0  0  0  0  0  0  0  0
   10.0172   -4.4740   17.4101 C   0  0  0  0  0  0  0  0  0  0  0  0
    6.9051   -7.9575   16.4222 C   0  0  0  0  0  0  0  0  0  0  0  0
    8.9969   -6.3552   17.9668 N   0  0  0  0  0  0  0  0  0  0  0  0
   10.6702   -3.9051   22.4070 C   0  0  0  0  0  0  0  0  0  0  0  0
   11.0625   -3.0028   18.8894 C   0  0  0  0  0  0  0  0  0  0  0  0
    5.6180   -7.9194   16.1754 O   0  0  0  0  0  0  0  0  0  0  0  0
    9.7259   -5.3080   18.4485 C   0  0  0  0  0  0  0  0  0  0  0  0
    9.4578   -5.0200   16.3036 N   0  0  0  0  0  0  0  0  0  0  0  0
    5.0287   -8.9365   16.8223 C   0  0  0  0  0  0  0  0  0  0  0  0
    8.7742   -6.1498   16.6764 C   0  0  0  0  0  0  0  0  0  0  0  0
   10.9418   -3.4032   21.2053 O   0  0  0  0  0  0  0  0  0  0  0  0
    1.4797   -8.6258   16.2950 C   0  0  0  0  0  0  0  0  0  0  0  0
    9.2861   -1.2743   25.3585 C   0  0  0  0  0  0  0  0  0  0  0  0
    1.8892  -10.3985   17.7511 N   0  0  0  0  0  0  0  0  0  0  0  0
    9.6210   -0.6952   24.0976 C   0  0  0  0  0  0  0  0  0  0  0  0
    7.0792   -9.0217   17.1429 C   0  0  0  0  0  0  0  0  0  0  0  0
    3.1713  -10.1816   17.6634 C   0  0  0  0  0  0  0  0  0  0  0  0
    2.7878   -8.3822   16.2137 C   0  0  0  0  0  0  0  0  0  0  0  0
    9.4601   -2.6590   25.6528 C   0  0  0  0  0  0  0  0  0  0  0  0
   10.1182   -1.5672   23.1165 C   0  0  0  0  0  0  0  0  0  0  0  0
    1.0552   -9.6360   17.0650 C   0  0  0  0  0  0  0  0  0  0  0  0
    3.6519   -9.1783   16.9039 C   0  0  0  0  0  0  0  0  0  0  0  0
    7.8675   -7.0096   15.9415 C   0  0  0  0  0  0  0  0  0  0  0  0
    5.9733   -9.6553   17.3832 N   0  0  0  0  0  0  0  0  0  0  0  0
   10.2411   -2.9363   23.4301 C   0  0  0  0  0  0  0  0  0  0  0  0
   10.7288   -3.8197   19.9525 C   0  0  0  0  0  0  0  0  0  0  0  0
   10.1189   -5.0054   19.6987 C   0  0  0  0  0  0  0  0  0  0  0  0
  1  3  4  0
  1  7  4  0
  2 21  4  0
  2 27  4  0
  3  9  4  0
  3 10  4  0
  4  8  4  0
  4 18  4  0
  4 25  1  0
  5  9  4  0
  5 12  4  0
  6 13  1  0
  6 27  1  0
  7 28  4  0
  8 11  4  0
  9 29  4  0
 10 12  4  0
 11 24  1  0
 11 26  4  0
 12 25  1  0
 13 28  1  0
 14 20  4  0
 14 23  4  0
 15 17  4  0
 15 21  4  0
 16 19  4  0
 16 23  4  0
 17 22  4  0
 18 26  4  0
 19 24  4  0
 20 24  4  0
 22 27  4  0
 28 29  4  0
M  END
$$$$

 Created by Python create_sdf_string function

 29 33  0  0  0  0  0  0  0  0999 V2000
   10.7215   -3.3326   17.6437 C   0  0  0  0  0  0  0  0  0  0  0  0
    9.9489   -3.4675   24.6487 N   0  0  0  0  0  0  0  0  0  0  0  0
   10.0172   -4.4740   17.4101 C   0  0  0  0  0  0  0  0  0  0  0  0
    6.9051   -7.9575   16.4222 C   0  0  0  0  0  0  0  0  0  0  0  0
    8.9969   -6.3552   17.9668 N   0  0  0  0  0  0  0  0  0  0  0  0
   10.6702   -3.9051   22.4070 C   0  0  0  0  0  0  0  0  0  0  0  0
   11.0625   -3.0028   18.8894 C   0  0  0  0  0  0  0  0  0  0  0  0
    5.6180   -7.9194   16.1754 O   0  0  0  0  0  0  0  0  0  0  0  0
    9.7259   -5.3080   18.4485 C   0  0  0  0  0  0  0  0  0  0  0  0
    9.4578   -5.0200   16.3036 N   0  0  0  0  0  0  0  0  0  0  0  0
    5.0287   -8.9365   16.8223 C   0  0  0  0  0  0  0  0  0  0  0  0
    8.7742   -6.1498   16.6764 C   0  0  0  0  0  0  0  0  0  0  0  0
   10.9418   -3.4032   21.2053 O   0  0  0  0  0  0  0  0  0  0  0  0
    1.4797   -8.6258   16.2950 C   0  0  0  0  0  0  0  0  0  0  0  0
    9.2861   -1.2743   25.3585 C   0  0  0  0  0  0  0  0  0  0  0  0
    1.8892  -10.3985   17.7511 N   0  0  0  0  0  0  0  0  0  0  0  0
    9.6210   -0.6952   24.0976 C   0  0  0  0  0  0  0  0  0  0  0  0
    7.0792   -9.0217   17.1429 C   0  0  0  0  0  0  0  0  0  0  0  0
    3.1713  -10.1816   17.6634 C   0  0  0  0  0  0  0  0  0  0  0  0
    2.7878   -8.3822   16.2137 C   0  0  0  0  0  0  0  0  0  0  0  0
    9.4601   -2.6590   25.6528 C   0  0  0  0  0  0  0  0  0  0  0  0
   10.1182   -1.5672   23.1165 C   0  0  0  0  0  0  0  0  0  0  0  0
    1.0552   -9.6360   17.0650 C   0  0  0  0  0  0  0  0  0  0  0  0
    3.6519   -9.1783   16.9039 C   0  0  0  0  0  0  0  0  0  0  0  0
    7.8675   -7.0096   15.9415 C   0  0  0  0  0  0  0  0  0  0  0  0
    5.9733   -9.6553   17.3832 N   0  0  0  0  0  0  0  0  0  0  0  0
   10.2411   -2.9363   23.4301 C   0  0  0  0  0  0  0  0  0  0  0  0
   10.7288   -3.8197   19.9525 C   0  0  0  0  0  0  0  0  0  0  0  0
   10.1189   -5.0054   19.6987 C   0  0  0  0  0  0  0  0  0  0  0  0
  1  3  4  0
  1  7  4  0
  2 21  4  0
  2 27  4  0
  3  9  4  0
  3 10  4  0
  4  8  4  0
  4 18  4  0
  4 25  1  0
  5  9  4  0
  5 12  4  0
  6 13  1  0
  6 27  1  0
  7 28  4  0
  8 11  4  0
  9 29  4  0
 10 12  4  0
 11 24  1  0
 11 26  4  0
 12 25  1  0
 13 28  1  0
 14 20  4  0
 14 23  4  0
 15 17  4  0
 15 21  4  0
 16 19  4  0
 16 23  4  0
 17 22  4  0
 18 26  4  0
 19 24  4  0
 20 24  4  0
 22 27  4  0
 28 29  4  0
M  END
$$$$

 Created by Python create_sdf_string function

 29 33  0  0  0  0  0  0  0  0999 V2000
   10.7215   -3.3326   17.6437 C   0  0  0  0  0  0  0  0  0  0  0  0
    9.9489   -3.4675   24.6487 N   0  0  0  0  0  0  0  0  0  0  0  0
   10.0172   -4.4740   17.4101 C   0  0  0  0  0  0  0  0  0  0  0  0
    6.9051   -7.9575   16.4222 C   0  0  0  0  0  0  0  0  0  0  0  0
    8.9969   -6.3552   17.9668 N   0  0  0  0  0  0  0  0  0  0  0  0
   10.6702   -3.9051   22.4070 C   0  0  0  0  0  0  0  0  0  0  0  0
   11.0625   -3.0028   18.8894 C   0  0  0  0  0  0  0  0  0  0  0  0
    5.6180   -7.9194   16.1754 O   0  0  0  0  0  0  0  0  0  0  0  0
    9.7259   -5.3080   18.4485 C   0  0  0  0  0  0  0  0  0  0  0  0
    9.4578   -5.0200   16.3036 N   0  0  0  0  0  0  0  0  0  0  0  0
    5.0287   -8.9365   16.8223 C   0  0  0  0  0  0  0  0  0  0  0  0
    8.7742   -6.1498   16.6764 C   0  0  0  0  0  0  0  0  0  0  0  0
   10.9418   -3.4032   21.2053 O   0  0  0  0  0  0  0  0  0  0  0  0
    1.4797   -8.6258   16.2950 C   0  0  0  0  0  0  0  0  0  0  0  0
    9.2861   -1.2743   25.3585 C   0  0  0  0  0  0  0  0  0  0  0  0
    1.8892  -10.3985   17.7511 N   0  0  0  0  0  0  0  0  0  0  0  0
    9.6210   -0.6952   24.0976 C   0  0  0  0  0  0  0  0  0  0  0  0
    7.0792   -9.0217   17.1429 C   0  0  0  0  0  0  0  0  0  0  0  0
    3.1713  -10.1816   17.6634 C   0  0  0  0  0  0  0  0  0  0  0  0
    2.7878   -8.3822   16.2137 C   0  0  0  0  0  0  0  0  0  0  0  0
    9.4601   -2.6590   25.6528 C   0  0  0  0  0  0  0  0  0  0  0  0
   10.1182   -1.5672   23.1165 C   0  0  0  0  0  0  0  0  0  0  0  0
    1.0552   -9.6360   17.0650 C   0  0  0  0  0  0  0  0  0  0  0  0
    3.6519   -9.1783   16.9039 C   0  0  0  0  0  0  0  0  0  0  0  0
    7.8675   -7.0096   15.9415 C   0  0  0  0  0  0  0  0  0  0  0  0
    5.9733   -9.6553   17.3832 N   0  0  0  0  0  0  0  0  0  0  0  0
   10.2411   -2.9363   23.4301 C   0  0  0  0  0  0  0  0  0  0  0  0
   10.7288   -3.8197   19.9525 C   0  0  0  0  0  0  0  0  0  0  0  0
   10.1189   -5.0054   19.6987 C   0  0  0  0  0  0  0  0  0  0  0  0
  1  3  4  0
  1  7  4  0
  2 21  4  0
  2 27  4  0
  3  9  4  0
  3 10  4  0
  4  8  4  0
  4 18  4  0
  4 25  1  0
  5  9  4  0
  5 12  4  0
  6 13  1  0
  6 27  1  0
  7 28  4  0
  8 11  4  0
  9 29  4  0
 10 12  4  0
 11 24  1  0
 11 26  4  0
 12 25  1  0
 13 28  1  0
 14 20  4  0
 14 23  4  0
 15 17  4  0
 15 21  4  0
 16 19  4  0
 16 23  4  0
 17 22  4  0
 18 26  4  0
 19 24  4  0
 20 24  4  0
 22 27  4  0
 28 29  4  0
M  END
$$$$

 Created by Python create_sdf_string function

 29 33  0  0  0  0  0  0  0  0999 V2000
   10.7215   -3.3326   17.6437 C   0  0  0  0  0  0  0  0  0  0  0  0
    9.9489   -3.4675   24.6487 N   0  0  0  0  0  0  0  0  0  0  0  0
   10.0172   -4.4740   17.4101 C   0  0  0  0  0  0  0  0  0  0  0  0
    6.9051   -7.9575   16.4222 C   0  0  0  0  0  0  0  0  0  0  0  0
    8.9969   -6.3552   17.9668 N   0  0  0  0  0  0  0  0  0  0  0  0
   10.6702   -3.9051   22.4070 C   0  0  0  0  0  0  0  0  0  0  0  0
   11.0625   -3.0028   18.8894 C   0  0  0  0  0  0  0  0  0  0  0  0
    5.6180   -7.9194   16.1754 O   0  0  0  0  0  0  0  0  0  0  0  0
    9.7259   -5.3080   18.4485 C   0  0  0  0  0  0  0  0  0  0  0  0
    9.4578   -5.0200   16.3036 N   0  0  0  0  0  0  0  0  0  0  0  0
    5.0287   -8.9365   16.8223 C   0  0  0  0  0  0  0  0  0  0  0  0
    8.7742   -6.1498   16.6764 C   0  0  0  0  0  0  0  0  0  0  0  0
   10.9418   -3.4032   21.2053 O   0  0  0  0  0  0  0  0  0  0  0  0
    1.4797   -8.6258   16.2950 C   0  0  0  0  0  0  0  0  0  0  0  0
    9.2861   -1.2743   25.3585 C   0  0  0  0  0  0  0  0  0  0  0  0
    1.8892  -10.3985   17.7511 N   0  0  0  0  0  0  0  0  0  0  0  0
    9.6210   -0.6952   24.0976 C   0  0  0  0  0  0  0  0  0  0  0  0
    7.0792   -9.0217   17.1429 C   0  0  0  0  0  0  0  0  0  0  0  0
    3.1713  -10.1816   17.6634 C   0  0  0  0  0  0  0  0  0  0  0  0
    2.7878   -8.3822   16.2137 C   0  0  0  0  0  0  0  0  0  0  0  0
    9.4601   -2.6590   25.6528 C   0  0  0  0  0  0  0  0  0  0  0  0
   10.1182   -1.5672   23.1165 C   0  0  0  0  0  0  0  0  0  0  0  0
    1.0552   -9.6360   17.0650 C   0  0  0  0  0  0  0  0  0  0  0  0
    3.6519   -9.1783   16.9039 C   0  0  0  0  0  0  0  0  0  0  0  0
    7.8675   -7.0096   15.9415 C   0  0  0  0  0  0  0  0  0  0  0  0
    5.9733   -9.6553   17.3832 N   0  0  0  0  0  0  0  0  0  0  0  0
   10.2411   -2.9363   23.4301 C   0  0  0  0  0  0  0  0  0  0  0  0
   10.7288   -3.8197   19.9525 C   0  0  0  0  0  0  0  0  0  0  0  0
   10.1189   -5.0054   19.6987 C   0  0  0  0  0  0  0  0  0  0  0  0
  1  3  4  0
  1  7  4  0
  2 21  4  0
  2 27  4  0
  3  9  4  0
  3 10  4  0
  4  8  4  0
  4 18  4  0
  4 25  1  0
  5  9  4  0
  5 12  4  0
  6 13  1  0
  6 27  1  0
  7 28  4  0
  8 11  4  0
  9 29  4  0
 10 12  4  0
 11 24  1  0
 11 26  4  0
 12 25  1  0
 13 28  1  0
 14 20  4  0
 14 23  4  0
 15 17  4  0
 15 21  4  0
 16 19  4  0
 16 23  4  0
 17 22  4  0
 18 26  4  0
 19 24  4  0
 20 24  4  0
 22 27  4  0
 28 29  4  0
M  END
$$$$

 Created by Python create_sdf_string function

 29 33  0  0  0  0  0  0  0  0999 V2000
   10.7215   -3.3326   17.6437 C   0  0  0  0  0  0  0  0  0  0  0  0
    9.9489   -3.4675   24.6487 N   0  0  0  0  0  0  0  0  0  0  0  0
   10.0172   -4.4740   17.4101 C   0  0  0  0  0  0  0  0  0  0  0  0
    6.9051   -7.9575   16.4222 C   0  0  0  0  0  0  0  0  0  0  0  0
    8.9969   -6.3552   17.9668 N   0  0  0  0  0  0  0  0  0  0  0  0
   10.6702   -3.9051   22.4070 C   0  0  0  0  0  0  0  0  0  0  0  0
   11.0625   -3.0028   18.8894 C   0  0  0  0  0  0  0  0  0  0  0  0
    5.6180   -7.9194   16.1754 O   0  0  0  0  0  0  0  0  0  0  0  0
    9.7259   -5.3080   18.4485 C   0  0  0  0  0  0  0  0  0  0  0  0
    9.4578   -5.0200   16.3036 N   0  0  0  0  0  0  0  0  0  0  0  0
    5.0287   -8.9365   16.8223 C   0  0  0  0  0  0  0  0  0  0  0  0
    8.7742   -6.1498   16.6764 C   0  0  0  0  0  0  0  0  0  0  0  0
   10.9418   -3.4032   21.2053 O   0  0  0  0  0  0  0  0  0  0  0  0
    1.4797   -8.6258   16.2950 C   0  0  0  0  0  0  0  0  0  0  0  0
    9.2861   -1.2743   25.3585 C   0  0  0  0  0  0  0  0  0  0  0  0
    1.8892  -10.3985   17.7511 N   0  0  0  0  0  0  0  0  0  0  0  0
    9.6210   -0.6952   24.0976 C   0  0  0  0  0  0  0  0  0  0  0  0
    7.0792   -9.0217   17.1429 C   0  0  0  0  0  0  0  0  0  0  0  0
    3.1713  -10.1816   17.6634 C   0  0  0  0  0  0  0  0  0  0  0  0
    2.7878   -8.3822   16.2137 C   0  0  0  0  0  0  0  0  0  0  0  0
    9.4601   -2.6590   25.6528 C   0  0  0  0  0  0  0  0  0  0  0  0
   10.1182   -1.5672   23.1165 C   0  0  0  0  0  0  0  0  0  0  0  0
    1.0552   -9.6360   17.0650 C   0  0  0  0  0  0  0  0  0  0  0  0
    3.6519   -9.1783   16.9039 C   0  0  0  0  0  0  0  0  0  0  0  0
    7.8675   -7.0096   15.9415 C   0  0  0  0  0  0  0  0  0  0  0  0
    5.9733   -9.6553   17.3832 N   0  0  0  0  0  0  0  0  0  0  0  0
   10.2411   -2.9363   23.4301 C   0  0  0  0  0  0  0  0  0  0  0  0
   10.7288   -3.8197   19.9525 C   0  0  0  0  0  0  0  0  0  0  0  0
   10.1189   -5.0054   19.6987 C   0  0  0  0  0  0  0  0  0  0  0  0
  1  3  4  0
  1  7  4  0
  2 21  4  0
  2 27  4  0
  3  9  4  0
  3 10  4  0
  4  8  4  0
  4 18  4  0
  4 25  1  0
  5  9  4  0
  5 12  4  0
  6 13  1  0
  6 27  1  0
  7 28  4  0
  8 11  4  0
  9 29  4  0
 10 12  4  0
 11 24  1  0
 11 26  4  0
 12 25  1  0
 13 28  1  0
 14 20  4  0
 14 23  4  0
 15 17  4  0
 15 21  4  0
 16 19  4  0
 16 23  4  0
 17 22  4  0
 18 26  4  0
 19 24  4  0
 20 24  4  0
 22 27  4  0
 28 29  4  0
M  END
$$$$

 Created by Python create_sdf_string function

 29 33  0  0  0  0  0  0  0  0999 V2000
   10.7215   -3.3326   17.6437 C   0  0  0  0  0  0  0  0  0  0  0  0
    9.9489   -3.4675   24.6487 N   0  0  0  0  0  0  0  0  0  0  0  0
   10.0172   -4.4740   17.4101 C   0  0  0  0  0  0  0  0  0  0  0  0
    6.9051   -7.9575   16.4222 C   0  0  0  0  0  0  0  0  0  0  0  0
    8.9969   -6.3552   17.9668 N   0  0  0  0  0  0  0  0  0  0  0  0
   10.6702   -3.9051   22.4070 C   0  0  0  0  0  0  0  0  0  0  0  0
   11.0625   -3.0028   18.8894 C   0  0  0  0  0  0  0  0  0  0  0  0
    5.6180   -7.9194   16.1754 O   0  0  0  0  0  0  0  0  0  0  0  0
    9.7259   -5.3080   18.4485 C   0  0  0  0  0  0  0  0  0  0  0  0
    9.4578   -5.0200   16.3036 N   0  0  0  0  0  0  0  0  0  0  0  0
    5.0287   -8.9365   16.8223 C   0  0  0  0  0  0  0  0  0  0  0  0
    8.7742   -6.1498   16.6764 C   0  0  0  0  0  0  0  0  0  0  0  0
   10.9418   -3.4032   21.2053 O   0  0  0  0  0  0  0  0  0  0  0  0
    1.4797   -8.6258   16.2950 C   0  0  0  0  0  0  0  0  0  0  0  0
    9.2861   -1.2743   25.3585 C   0  0  0  0  0  0  0  0  0  0  0  0
    1.8892  -10.3985   17.7511 N   0  0  0  0  0  0  0  0  0  0  0  0
    9.6210   -0.6952   24.0976 C   0  0  0  0  0  0  0  0  0  0  0  0
    7.0792   -9.0217   17.1429 C   0  0  0  0  0  0  0  0  0  0  0  0
    3.1713  -10.1816   17.6634 C   0  0  0  0  0  0  0  0  0  0  0  0
    2.7878   -8.3822   16.2137 C   0  0  0  0  0  0  0  0  0  0  0  0
    9.4601   -2.6590   25.6528 C   0  0  0  0  0  0  0  0  0  0  0  0
   10.1182   -1.5672   23.1165 C   0  0  0  0  0  0  0  0  0  0  0  0
    1.0552   -9.6360   17.0650 C   0  0  0  0  0  0  0  0  0  0  0  0
    3.6519   -9.1783   16.9039 C   0  0  0  0  0  0  0  0  0  0  0  0
    7.8675   -7.0096   15.9415 C   0  0  0  0  0  0  0  0  0  0  0  0
    5.9733   -9.6553   17.3832 N   0  0  0  0  0  0  0  0  0  0  0  0
   10.2411   -2.9363   23.4301 C   0  0  0  0  0  0  0  0  0  0  0  0
   10.7288   -3.8197   19.9525 C   0  0  0  0  0  0  0  0  0  0  0  0
   10.1189   -5.0054   19.6987 C   0  0  0  0  0  0  0  0  0  0  0  0
  1  3  4  0
  1  7  4  0
  2 21  4  0
  2 27  4  0
  3  9  4  0
  3 10  4  0
  4  8  4  0
  4 18  4  0
  4 25  1  0
  5  9  4  0
  5 12  4  0
  6 13  1  0
  6 27  1  0
  7 28  4  0
  8 11  4  0
  9 29  4  0
 10 12  4  0
 11 24  1  0
 11 26  4  0
 12 25  1  0
 13 28  1  0
 14 20  4  0
 14 23  4  0
 15 17  4  0
 15 21  4  0
 16 19  4  0
 16 23  4  0
 17 22  4  0
 18 26  4  0
 19 24  4  0
 20 24  4  0
 22 27  4  0
 28 29  4  0
M  END
$$$$

 Created by Python create_sdf_string function

 29 33  0  0  0  0  0  0  0  0999 V2000
   10.7215   -3.3326   17.6437 C   0  0  0  0  0  0  0  0  0  0  0  0
    9.9489   -3.4675   24.6487 N   0  0  0  0  0  0  0  0  0  0  0  0
   10.0172   -4.4740   17.4101 C   0  0  0  0  0  0  0  0  0  0  0  0
    6.9051   -7.9575   16.4222 C   0  0  0  0  0  0  0  0  0  0  0  0
    8.9969   -6.3552   17.9668 N   0  0  0  0  0  0  0  0  0  0  0  0
   10.6702   -3.9051   22.4070 C   0  0  0  0  0  0  0  0  0  0  0  0
   11.0625   -3.0028   18.8894 C   0  0  0  0  0  0  0  0  0  0  0  0
    5.6180   -7.9194   16.1754 O   0  0  0  0  0  0  0  0  0  0  0  0
    9.7259   -5.3080   18.4485 C   0  0  0  0  0  0  0  0  0  0  0  0
    9.4578   -5.0200   16.3036 N   0  0  0  0  0  0  0  0  0  0  0  0
    5.0287   -8.9365   16.8223 C   0  0  0  0  0  0  0  0  0  0  0  0
    8.7742   -6.1498   16.6764 C   0  0  0  0  0  0  0  0  0  0  0  0
   10.9418   -3.4032   21.2053 O   0  0  0  0  0  0  0  0  0  0  0  0
    1.4797   -8.6258   16.2950 C   0  0  0  0  0  0  0  0  0  0  0  0
    9.2861   -1.2743   25.3585 C   0  0  0  0  0  0  0  0  0  0  0  0
    1.8892  -10.3985   17.7511 N   0  0  0  0  0  0  0  0  0  0  0  0
    9.6210   -0.6952   24.0976 C   0  0  0  0  0  0  0  0  0  0  0  0
    7.0792   -9.0217   17.1429 C   0  0  0  0  0  0  0  0  0  0  0  0
    3.1713  -10.1816   17.6634 C   0  0  0  0  0  0  0  0  0  0  0  0
    2.7878   -8.3822   16.2137 C   0  0  0  0  0  0  0  0  0  0  0  0
    9.4601   -2.6590   25.6528 C   0  0  0  0  0  0  0  0  0  0  0  0
   10.1182   -1.5672   23.1165 C   0  0  0  0  0  0  0  0  0  0  0  0
    1.0552   -9.6360   17.0650 C   0  0  0  0  0  0  0  0  0  0  0  0
    3.6519   -9.1783   16.9039 C   0  0  0  0  0  0  0  0  0  0  0  0
    7.8675   -7.0096   15.9415 C   0  0  0  0  0  0  0  0  0  0  0  0
    5.9733   -9.6553   17.3832 N   0  0  0  0  0  0  0  0  0  0  0  0
   10.2411   -2.9363   23.4301 C   0  0  0  0  0  0  0  0  0  0  0  0
   10.7288   -3.8197   19.9525 C   0  0  0  0  0  0  0  0  0  0  0  0
   10.1189   -5.0054   19.6987 C   0  0  0  0  0  0  0  0  0  0  0  0
  1  3  4  0
  1  7  4  0
  2 21  4  0
  2 27  4  0
  3  9  4  0
  3 10  4  0
  4  8  4  0
  4 18  4  0
  4 25  1  0
  5  9  4  0
  5 12  4  0
  6 13  1  0
  6 27  1  0
  7 28  4  0
  8 11  4  0
  9 29  4  0
 10 12  4  0
 11 24  1  0
 11 26  4  0
 12 25  1  0
 13 28  1  0
 14 20  4  0
 14 23  4  0
 15 17  4  0
 15 21  4  0
 16 19  4  0
 16 23  4  0
 17 22  4  0
 18 26  4  0
 19 24  4  0
 20 24  4  0
 22 27  4  0
 28 29  4  0
M  END
$$$$

 Created by Python create_sdf_string function

 29 33  0  0  0  0  0  0  0  0999 V2000
   10.7215   -3.3326   17.6437 C   0  0  0  0  0  0  0  0  0  0  0  0
    9.9489   -3.4675   24.6487 N   0  0  0  0  0  0  0  0  0  0  0  0
   10.0172   -4.4740   17.4101 C   0  0  0  0  0  0  0  0  0  0  0  0
    6.9051   -7.9575   16.4222 C   0  0  0  0  0  0  0  0  0  0  0  0
    8.9969   -6.3552   17.9668 N   0  0  0  0  0  0  0  0  0  0  0  0
   10.6702   -3.9051   22.4070 C   0  0  0  0  0  0  0  0  0  0  0  0
   11.0625   -3.0028   18.8894 C   0  0  0  0  0  0  0  0  0  0  0  0
    5.6180   -7.9194   16.1754 O   0  0  0  0  0  0  0  0  0  0  0  0
    9.7259   -5.3080   18.4485 C   0  0  0  0  0  0  0  0  0  0  0  0
    9.4578   -5.0200   16.3036 N   0  0  0  0  0  0  0  0  0  0  0  0
    5.0287   -8.9365   16.8223 C   0  0  0  0  0  0  0  0  0  0  0  0
    8.7742   -6.1498   16.6764 C   0  0  0  0  0  0  0  0  0  0  0  0
   10.9418   -3.4032   21.2053 O   0  0  0  0  0  0  0  0  0  0  0  0
    1.4797   -8.6258   16.2950 C   0  0  0  0  0  0  0  0  0  0  0  0
    9.2861   -1.2743   25.3585 C   0  0  0  0  0  0  0  0  0  0  0  0
    1.8892  -10.3985   17.7511 N   0  0  0  0  0  0  0  0  0  0  0  0
    9.6210   -0.6952   24.0976 C   0  0  0  0  0  0  0  0  0  0  0  0
    7.0792   -9.0217   17.1429 C   0  0  0  0  0  0  0  0  0  0  0  0
    3.1713  -10.1816   17.6634 C   0  0  0  0  0  0  0  0  0  0  0  0
    2.7878   -8.3822   16.2137 C   0  0  0  0  0  0  0  0  0  0  0  0
    9.4601   -2.6590   25.6528 C   0  0  0  0  0  0  0  0  0  0  0  0
   10.1182   -1.5672   23.1165 C   0  0  0  0  0  0  0  0  0  0  0  0
    1.0552   -9.6360   17.0650 C   0  0  0  0  0  0  0  0  0  0  0  0
    3.6519   -9.1783   16.9039 C   0  0  0  0  0  0  0  0  0  0  0  0
    7.8675   -7.0096   15.9415 C   0  0  0  0  0  0  0  0  0  0  0  0
    5.9733   -9.6553   17.3832 N   0  0  0  0  0  0  0  0  0  0  0  0
   10.2411   -2.9363   23.4301 C   0  0  0  0  0  0  0  0  0  0  0  0
   10.7288   -3.8197   19.9525 C   0  0  0  0  0  0  0  0  0  0  0  0
   10.1189   -5.0054   19.6987 C   0  0  0  0  0  0  0  0  0  0  0  0
  1  3  4  0
  1  7  4  0
  2 21  4  0
  2 27  4  0
  3  9  4  0
  3 10  4  0
  4  8  4  0
  4 18  4  0
  4 25  1  0
  5  9  4  0
  5 12  4  0
  6 13  1  0
  6 27  1  0
  7 28  4  0
  8 11  4  0
  9 29  4  0
 10 12  4  0
 11 24  1  0
 11 26  4  0
 12 25  1  0
 13 28  1  0
 14 20  4  0
 14 23  4  0
 15 17  4  0
 15 21  4  0
 16 19  4  0
 16 23  4  0
 17 22  4  0
 18 26  4  0
 19 24  4  0
 20 24  4  0
 22 27  4  0
 28 29  4  0
M  END
$$$$

 Created by Python create_sdf_string function

 29 33  0  0  0  0  0  0  0  0999 V2000
   10.7215   -3.3326   17.6437 C   0  0  0  0  0  0  0  0  0  0  0  0
    9.9489   -3.4675   24.6487 N   0  0  0  0  0  0  0  0  0  0  0  0
   10.0172   -4.4740   17.4101 C   0  0  0  0  0  0  0  0  0  0  0  0
    6.9051   -7.9575   16.4222 C   0  0  0  0  0  0  0  0  0  0  0  0
    8.9969   -6.3552   17.9668 N   0  0  0  0  0  0  0  0  0  0  0  0
   10.6702   -3.9051   22.4070 C   0  0  0  0  0  0  0  0  0  0  0  0
   11.0625   -3.0028   18.8894 C   0  0  0  0  0  0  0  0  0  0  0  0
    5.6180   -7.9194   16.1754 O   0  0  0  0  0  0  0  0  0  0  0  0
    9.7259   -5.3080   18.4485 C   0  0  0  0  0  0  0  0  0  0  0  0
    9.4578   -5.0200   16.3036 N   0  0  0  0  0  0  0  0  0  0  0  0
    5.0287   -8.9365   16.8223 C   0  0  0  0  0  0  0  0  0  0  0  0
    8.7742   -6.1498   16.6764 C   0  0  0  0  0  0  0  0  0  0  0  0
   10.9418   -3.4032   21.2053 O   0  0  0  0  0  0  0  0  0  0  0  0
    1.4797   -8.6258   16.2950 C   0  0  0  0  0  0  0  0  0  0  0  0
    9.2861   -1.2743   25.3585 C   0  0  0  0  0  0  0  0  0  0  0  0
    1.8892  -10.3985   17.7511 N   0  0  0  0  0  0  0  0  0  0  0  0
    9.6210   -0.6952   24.0976 C   0  0  0  0  0  0  0  0  0  0  0  0
    7.0792   -9.0217   17.1429 C   0  0  0  0  0  0  0  0  0  0  0  0
    3.1713  -10.1816   17.6634 C   0  0  0  0  0  0  0  0  0  0  0  0
    2.7878   -8.3822   16.2137 C   0  0  0  0  0  0  0  0  0  0  0  0
    9.4601   -2.6590   25.6528 C   0  0  0  0  0  0  0  0  0  0  0  0
   10.1182   -1.5672   23.1165 C   0  0  0  0  0  0  0  0  0  0  0  0
    1.0552   -9.6360   17.0650 C   0  0  0  0  0  0  0  0  0  0  0  0
    3.6519   -9.1783   16.9039 C   0  0  0  0  0  0  0  0  0  0  0  0
    7.8675   -7.0096   15.9415 C   0  0  0  0  0  0  0  0  0  0  0  0
    5.9733   -9.6553   17.3832 N   0  0  0  0  0  0  0  0  0  0  0  0
   10.2411   -2.9363   23.4301 C   0  0  0  0  0  0  0  0  0  0  0  0
   10.7288   -3.8197   19.9525 C   0  0  0  0  0  0  0  0  0  0  0  0
   10.1189   -5.0054   19.6987 C   0  0  0  0  0  0  0  0  0  0  0  0
  1  3  4  0
  1  7  4  0
  2 21  4  0
  2 27  4  0
  3  9  4  0
  3 10  4  0
  4  8  4  0
  4 18  4  0
  4 25  1  0
  5  9  4  0
  5 12  4  0
  6 13  1  0
  6 27  1  0
  7 28  4  0
  8 11  4  0
  9 29  4  0
 10 12  4  0
 11 24  1  0
 11 26  4  0
 12 25  1  0
 13 28  1  0
 14 20  4  0
 14 23  4  0
 15 17  4  0
 15 21  4  0
 16 19  4  0
 16 23  4  0
 17 22  4  0
 18 26  4  0
 19 24  4  0
 20 24  4  0
 22 27  4  0
 28 29  4  0
M  END
$$$$

 Created by Python create_sdf_string function

 29 33  0  0  0  0  0  0  0  0999 V2000
   10.7215   -3.3326   17.6437 C   0  0  0  0  0  0  0  0  0  0  0  0
    9.9489   -3.4675   24.6487 N   0  0  0  0  0  0  0  0  0  0  0  0
   10.0172   -4.4740   17.4101 C   0  0  0  0  0  0  0  0  0  0  0  0
    6.9051   -7.9575   16.4222 C   0  0  0  0  0  0  0  0  0  0  0  0
    8.9969   -6.3552   17.9668 N   0  0  0  0  0  0  0  0  0  0  0  0
   10.6702   -3.9051   22.4070 C   0  0  0  0  0  0  0  0  0  0  0  0
   11.0625   -3.0028   18.8894 C   0  0  0  0  0  0  0  0  0  0  0  0
    5.6180   -7.9194   16.1754 O   0  0  0  0  0  0  0  0  0  0  0  0
    9.7259   -5.3080   18.4485 C   0  0  0  0  0  0  0  0  0  0  0  0
    9.4578   -5.0200   16.3036 N   0  0  0  0  0  0  0  0  0  0  0  0
    5.0287   -8.9365   16.8223 C   0  0  0  0  0  0  0  0  0  0  0  0
    8.7742   -6.1498   16.6764 C   0  0  0  0  0  0  0  0  0  0  0  0
   10.9418   -3.4032   21.2053 O   0  0  0  0  0  0  0  0  0  0  0  0
    1.4797   -8.6258   16.2950 C   0  0  0  0  0  0  0  0  0  0  0  0
    9.2861   -1.2743   25.3585 C   0  0  0  0  0  0  0  0  0  0  0  0
    1.8892  -10.3985   17.7511 N   0  0  0  0  0  0  0  0  0  0  0  0
    9.6210   -0.6952   24.0976 C   0  0  0  0  0  0  0  0  0  0  0  0
    7.0792   -9.0217   17.1429 C   0  0  0  0  0  0  0  0  0  0  0  0
    3.1713  -10.1816   17.6634 C   0  0  0  0  0  0  0  0  0  0  0  0
    2.7878   -8.3822   16.2137 C   0  0  0  0  0  0  0  0  0  0  0  0
    9.4601   -2.6590   25.6528 C   0  0  0  0  0  0  0  0  0  0  0  0
   10.1182   -1.5672   23.1165 C   0  0  0  0  0  0  0  0  0  0  0  0
    1.0552   -9.6360   17.0650 C   0  0  0  0  0  0  0  0  0  0  0  0
    3.6519   -9.1783   16.9039 C   0  0  0  0  0  0  0  0  0  0  0  0
    7.8675   -7.0096   15.9415 C   0  0  0  0  0  0  0  0  0  0  0  0
    5.9733   -9.6553   17.3832 N   0  0  0  0  0  0  0  0  0  0  0  0
   10.2411   -2.9363   23.4301 C   0  0  0  0  0  0  0  0  0  0  0  0
   10.7288   -3.8197   19.9525 C   0  0  0  0  0  0  0  0  0  0  0  0
   10.1189   -5.0054   19.6987 C   0  0  0  0  0  0  0  0  0  0  0  0
  1  3  4  0
  1  7  4  0
  2 21  4  0
  2 27  4  0
  3  9  4  0
  3 10  4  0
  4  8  4  0
  4 18  4  0
  4 25  1  0
  5  9  4  0
  5 12  4  0
  6 13  1  0
  6 27  1  0
  7 28  4  0
  8 11  4  0
  9 29  4  0
 10 12  4  0
 11 24  1  0
 11 26  4  0
 12 25  1  0
 13 28  1  0
 14 20  4  0
 14 23  4  0
 15 17  4  0
 15 21  4  0
 16 19  4  0
 16 23  4  0
 17 22  4  0
 18 26  4  0
 19 24  4  0
 20 24  4  0
 22 27  4  0
 28 29  4  0
M  END
$$$$

 Created by Python create_sdf_string function

 29 33  0  0  0  0  0  0  0  0999 V2000
   10.7215   -3.3326   17.6437 C   0  0  0  0  0  0  0  0  0  0  0  0
    9.9489   -3.4675   24.6487 N   0  0  0  0  0  0  0  0  0  0  0  0
   10.0172   -4.4740   17.4101 C   0  0  0  0  0  0  0  0  0  0  0  0
    6.9051   -7.9575   16.4222 C   0  0  0  0  0  0  0  0  0  0  0  0
    8.9969   -6.3552   17.9668 N   0  0  0  0  0  0  0  0  0  0  0  0
   10.6702   -3.9051   22.4070 C   0  0  0  0  0  0  0  0  0  0  0  0
   11.0625   -3.0028   18.8894 C   0  0  0  0  0  0  0  0  0  0  0  0
    5.6180   -7.9194   16.1754 O   0  0  0  0  0  0  0  0  0  0  0  0
    9.7259   -5.3080   18.4485 C   0  0  0  0  0  0  0  0  0  0  0  0
    9.4578   -5.0200   16.3036 N   0  0  0  0  0  0  0  0  0  0  0  0
    5.0287   -8.9365   16.8223 C   0  0  0  0  0  0  0  0  0  0  0  0
    8.7742   -6.1498   16.6764 C   0  0  0  0  0  0  0  0  0  0  0  0
   10.9418   -3.4032   21.2053 O   0  0  0  0  0  0  0  0  0  0  0  0
    1.4797   -8.6258   16.2950 C   0  0  0  0  0  0  0  0  0  0  0  0
    9.2861   -1.2743   25.3585 C   0  0  0  0  0  0  0  0  0  0  0  0
    1.8892  -10.3985   17.7511 N   0  0  0  0  0  0  0  0  0  0  0  0
    9.6210   -0.6952   24.0976 C   0  0  0  0  0  0  0  0  0  0  0  0
    7.0792   -9.0217   17.1429 C   0  0  0  0  0  0  0  0  0  0  0  0
    3.1713  -10.1816   17.6634 C   0  0  0  0  0  0  0  0  0  0  0  0
    2.7878   -8.3822   16.2137 C   0  0  0  0  0  0  0  0  0  0  0  0
    9.4601   -2.6590   25.6528 C   0  0  0  0  0  0  0  0  0  0  0  0
   10.1182   -1.5672   23.1165 C   0  0  0  0  0  0  0  0  0  0  0  0
    1.0552   -9.6360   17.0650 C   0  0  0  0  0  0  0  0  0  0  0  0
    3.6519   -9.1783   16.9039 C   0  0  0  0  0  0  0  0  0  0  0  0
    7.8675   -7.0096   15.9415 C   0  0  0  0  0  0  0  0  0  0  0  0
    5.9733   -9.6553   17.3832 N   0  0  0  0  0  0  0  0  0  0  0  0
   10.2411   -2.9363   23.4301 C   0  0  0  0  0  0  0  0  0  0  0  0
   10.7288   -3.8197   19.9525 C   0  0  0  0  0  0  0  0  0  0  0  0
   10.1189   -5.0054   19.6987 C   0  0  0  0  0  0  0  0  0  0  0  0
  1  3  4  0
  1  7  4  0
  2 21  4  0
  2 27  4  0
  3  9  4  0
  3 10  4  0
  4  8  4  0
  4 18  4  0
  4 25  1  0
  5  9  4  0
  5 12  4  0
  6 13  1  0
  6 27  1  0
  7 28  4  0
  8 11  4  0
  9 29  4  0
 10 12  4  0
 11 24  1  0
 11 26  4  0
 12 25  1  0
 13 28  1  0
 14 20  4  0
 14 23  4  0
 15 17  4  0
 15 21  4  0
 16 19  4  0
 16 23  4  0
 17 22  4  0
 18 26  4  0
 19 24  4  0
 20 24  4  0
 22 27  4  0
 28 29  4  0
M  END
$$$$

 Created by Python create_sdf_string function

 29 33  0  0  0  0  0  0  0  0999 V2000
   10.7215   -3.3326   17.6437 C   0  0  0  0  0  0  0  0  0  0  0  0
    9.9489   -3.4675   24.6487 N   0  0  0  0  0  0  0  0  0  0  0  0
   10.0172   -4.4740   17.4101 C   0  0  0  0  0  0  0  0  0  0  0  0
    6.9051   -7.9575   16.4222 C   0  0  0  0  0  0  0  0  0  0  0  0
    8.9969   -6.3552   17.9668 N   0  0  0  0  0  0  0  0  0  0  0  0
   10.6702   -3.9051   22.4070 C   0  0  0  0  0  0  0  0  0  0  0  0
   11.0625   -3.0028   18.8894 C   0  0  0  0  0  0  0  0  0  0  0  0
    5.6180   -7.9194   16.1754 O   0  0  0  0  0  0  0  0  0  0  0  0
    9.7259   -5.3080   18.4485 C   0  0  0  0  0  0  0  0  0  0  0  0
    9.4578   -5.0200   16.3036 N   0  0  0  0  0  0  0  0  0  0  0  0
    5.0287   -8.9365   16.8223 C   0  0  0  0  0  0  0  0  0  0  0  0
    8.7742   -6.1498   16.6764 C   0  0  0  0  0  0  0  0  0  0  0  0
   10.9418   -3.4032   21.2053 O   0  0  0  0  0  0  0  0  0  0  0  0
    1.4797   -8.6258   16.2950 C   0  0  0  0  0  0  0  0  0  0  0  0
    9.2861   -1.2743   25.3585 C   0  0  0  0  0  0  0  0  0  0  0  0
    1.8892  -10.3985   17.7511 N   0  0  0  0  0  0  0  0  0  0  0  0
    9.6210   -0.6952   24.0976 C   0  0  0  0  0  0  0  0  0  0  0  0
    7.0792   -9.0217   17.1429 C   0  0  0  0  0  0  0  0  0  0  0  0
    3.1713  -10.1816   17.6634 C   0  0  0  0  0  0  0  0  0  0  0  0
    2.7878   -8.3822   16.2137 C   0  0  0  0  0  0  0  0  0  0  0  0
    9.4601   -2.6590   25.6528 C   0  0  0  0  0  0  0  0  0  0  0  0
   10.1182   -1.5672   23.1165 C   0  0  0  0  0  0  0  0  0  0  0  0
    1.0552   -9.6360   17.0650 C   0  0  0  0  0  0  0  0  0  0  0  0
    3.6519   -9.1783   16.9039 C   0  0  0  0  0  0  0  0  0  0  0  0
    7.8675   -7.0096   15.9415 C   0  0  0  0  0  0  0  0  0  0  0  0
    5.9733   -9.6553   17.3832 N   0  0  0  0  0  0  0  0  0  0  0  0
   10.2411   -2.9363   23.4301 C   0  0  0  0  0  0  0  0  0  0  0  0
   10.7288   -3.8197   19.9525 C   0  0  0  0  0  0  0  0  0  0  0  0
   10.1189   -5.0054   19.6987 C   0  0  0  0  0  0  0  0  0  0  0  0
  1  3  4  0
  1  7  4  0
  2 21  4  0
  2 27  4  0
  3  9  4  0
  3 10  4  0
  4  8  4  0
  4 18  4  0
  4 25  1  0
  5  9  4  0
  5 12  4  0
  6 13  1  0
  6 27  1  0
  7 28  4  0
  8 11  4  0
  9 29  4  0
 10 12  4  0
 11 24  1  0
 11 26  4  0
 12 25  1  0
 13 28  1  0
 14 20  4  0
 14 23  4  0
 15 17  4  0
 15 21  4  0
 16 19  4  0
 16 23  4  0
 17 22  4  0
 18 26  4  0
 19 24  4  0
 20 24  4  0
 22 27  4  0
 28 29  4  0
M  END
$$$$

 Created by Python create_sdf_string function

 29 33  0  0  0  0  0  0  0  0999 V2000
   10.7215   -3.3326   17.6437 C   0  0  0  0  0  0  0  0  0  0  0  0
    9.9489   -3.4675   24.6487 N   0  0  0  0  0  0  0  0  0  0  0  0
   10.0172   -4.4740   17.4101 C   0  0  0  0  0  0  0  0  0  0  0  0
    6.9051   -7.9575   16.4222 C   0  0  0  0  0  0  0  0  0  0  0  0
    8.9969   -6.3552   17.9668 N   0  0  0  0  0  0  0  0  0  0  0  0
   10.6702   -3.9051   22.4070 C   0  0  0  0  0  0  0  0  0  0  0  0
   11.0625   -3.0028   18.8894 C   0  0  0  0  0  0  0  0  0  0  0  0
    5.6180   -7.9194   16.1754 O   0  0  0  0  0  0  0  0  0  0  0  0
    9.7259   -5.3080   18.4485 C   0  0  0  0  0  0  0  0  0  0  0  0
    9.4578   -5.0200   16.3036 N   0  0  0  0  0  0  0  0  0  0  0  0
    5.0287   -8.9365   16.8223 C   0  0  0  0  0  0  0  0  0  0  0  0
    8.7742   -6.1498   16.6764 C   0  0  0  0  0  0  0  0  0  0  0  0
   10.9418   -3.4032   21.2053 O   0  0  0  0  0  0  0  0  0  0  0  0
    1.4797   -8.6258   16.2950 C   0  0  0  0  0  0  0  0  0  0  0  0
    9.2861   -1.2743   25.3585 C   0  0  0  0  0  0  0  0  0  0  0  0
    1.8892  -10.3985   17.7511 N   0  0  0  0  0  0  0  0  0  0  0  0
    9.6210   -0.6952   24.0976 C   0  0  0  0  0  0  0  0  0  0  0  0
    7.0792   -9.0217   17.1429 C   0  0  0  0  0  0  0  0  0  0  0  0
    3.1713  -10.1816   17.6634 C   0  0  0  0  0  0  0  0  0  0  0  0
    2.7878   -8.3822   16.2137 C   0  0  0  0  0  0  0  0  0  0  0  0
    9.4601   -2.6590   25.6528 C   0  0  0  0  0  0  0  0  0  0  0  0
   10.1182   -1.5672   23.1165 C   0  0  0  0  0  0  0  0  0  0  0  0
    1.0552   -9.6360   17.0650 C   0  0  0  0  0  0  0  0  0  0  0  0
    3.6519   -9.1783   16.9039 C   0  0  0  0  0  0  0  0  0  0  0  0
    7.8675   -7.0096   15.9415 C   0  0  0  0  0  0  0  0  0  0  0  0
    5.9733   -9.6553   17.3832 N   0  0  0  0  0  0  0  0  0  0  0  0
   10.2411   -2.9363   23.4301 C   0  0  0  0  0  0  0  0  0  0  0  0
   10.7288   -3.8197   19.9525 C   0  0  0  0  0  0  0  0  0  0  0  0
   10.1189   -5.0054   19.6987 C   0  0  0  0  0  0  0  0  0  0  0  0
  1  3  4  0
  1  7  4  0
  2 21  4  0
  2 27  4  0
  3  9  4  0
  3 10  4  0
  4  8  4  0
  4 18  4  0
  4 25  1  0
  5  9  4  0
  5 12  4  0
  6 13  1  0
  6 27  1  0
  7 28  4  0
  8 11  4  0
  9 29  4  0
 10 12  4  0
 11 24  1  0
 11 26  4  0
 12 25  1  0
 13 28  1  0
 14 20  4  0
 14 23  4  0
 15 17  4  0
 15 21  4  0
 16 19  4  0
 16 23  4  0
 17 22  4  0
 18 26  4  0
 19 24  4  0
 20 24  4  0
 22 27  4  0
 28 29  4  0
M  END
$$$$

 Created by Python create_sdf_string function

 29 33  0  0  0  0  0  0  0  0999 V2000
   10.7215   -3.3326   17.6437 C   0  0  0  0  0  0  0  0  0  0  0  0
    9.9489   -3.4675   24.6487 N   0  0  0  0  0  0  0  0  0  0  0  0
   10.0172   -4.4740   17.4101 C   0  0  0  0  0  0  0  0  0  0  0  0
    6.9051   -7.9575   16.4222 C   0  0  0  0  0  0  0  0  0  0  0  0
    8.9969   -6.3552   17.9668 N   0  0  0  0  0  0  0  0  0  0  0  0
   10.6702   -3.9051   22.4070 C   0  0  0  0  0  0  0  0  0  0  0  0
   11.0625   -3.0028   18.8894 C   0  0  0  0  0  0  0  0  0  0  0  0
    5.6180   -7.9194   16.1754 O   0  0  0  0  0  0  0  0  0  0  0  0
    9.7259   -5.3080   18.4485 C   0  0  0  0  0  0  0  0  0  0  0  0
    9.4578   -5.0200   16.3036 N   0  0  0  0  0  0  0  0  0  0  0  0
    5.0287   -8.9365   16.8223 C   0  0  0  0  0  0  0  0  0  0  0  0
    8.7742   -6.1498   16.6764 C   0  0  0  0  0  0  0  0  0  0  0  0
   10.9418   -3.4032   21.2053 O   0  0  0  0  0  0  0  0  0  0  0  0
    1.4797   -8.6258   16.2950 C   0  0  0  0  0  0  0  0  0  0  0  0
    9.2861   -1.2743   25.3585 C   0  0  0  0  0  0  0  0  0  0  0  0
    1.8892  -10.3985   17.7511 N   0  0  0  0  0  0  0  0  0  0  0  0
    9.6210   -0.6952   24.0976 C   0  0  0  0  0  0  0  0  0  0  0  0
    7.0792   -9.0217   17.1429 C   0  0  0  0  0  0  0  0  0  0  0  0
    3.1713  -10.1816   17.6634 C   0  0  0  0  0  0  0  0  0  0  0  0
    2.7878   -8.3822   16.2137 C   0  0  0  0  0  0  0  0  0  0  0  0
    9.4601   -2.6590   25.6528 C   0  0  0  0  0  0  0  0  0  0  0  0
   10.1182   -1.5672   23.1165 C   0  0  0  0  0  0  0  0  0  0  0  0
    1.0552   -9.6360   17.0650 C   0  0  0  0  0  0  0  0  0  0  0  0
    3.6519   -9.1783   16.9039 C   0  0  0  0  0  0  0  0  0  0  0  0
    7.8675   -7.0096   15.9415 C   0  0  0  0  0  0  0  0  0  0  0  0
    5.9733   -9.6553   17.3832 N   0  0  0  0  0  0  0  0  0  0  0  0
   10.2411   -2.9363   23.4301 C   0  0  0  0  0  0  0  0  0  0  0  0
   10.7288   -3.8197   19.9525 C   0  0  0  0  0  0  0  0  0  0  0  0
   10.1189   -5.0054   19.6987 C   0  0  0  0  0  0  0  0  0  0  0  0
  1  3  4  0
  1  7  4  0
  2 21  4  0
  2 27  4  0
  3  9  4  0
  3 10  4  0
  4  8  4  0
  4 18  4  0
  4 25  1  0
  5  9  4  0
  5 12  4  0
  6 13  1  0
  6 27  1  0
  7 28  4  0
  8 11  4  0
  9 29  4  0
 10 12  4  0
 11 24  1  0
 11 26  4  0
 12 25  1  0
 13 28  1  0
 14 20  4  0
 14 23  4  0
 15 17  4  0
 15 21  4  0
 16 19  4  0
 16 23  4  0
 17 22  4  0
 18 26  4  0
 19 24  4  0
 20 24  4  0
 22 27  4  0
 28 29  4  0
M  END
$$$$

 Created by Python create_sdf_string function

 29 33  0  0  0  0  0  0  0  0999 V2000
   10.7215   -3.3326   17.6437 C   0  0  0  0  0  0  0  0  0  0  0  0
    9.9489   -3.4675   24.6487 N   0  0  0  0  0  0  0  0  0  0  0  0
   10.0172   -4.4740   17.4101 C   0  0  0  0  0  0  0  0  0  0  0  0
    6.9051   -7.9575   16.4222 C   0  0  0  0  0  0  0  0  0  0  0  0
    8.9969   -6.3552   17.9668 N   0  0  0  0  0  0  0  0  0  0  0  0
   10.6702   -3.9051   22.4070 C   0  0  0  0  0  0  0  0  0  0  0  0
   11.0625   -3.0028   18.8894 C   0  0  0  0  0  0  0  0  0  0  0  0
    5.6180   -7.9194   16.1754 O   0  0  0  0  0  0  0  0  0  0  0  0
    9.7259   -5.3080   18.4485 C   0  0  0  0  0  0  0  0  0  0  0  0
    9.4578   -5.0200   16.3036 N   0  0  0  0  0  0  0  0  0  0  0  0
    5.0287   -8.9365   16.8223 C   0  0  0  0  0  0  0  0  0  0  0  0
    8.7742   -6.1498   16.6764 C   0  0  0  0  0  0  0  0  0  0  0  0
   10.9418   -3.4032   21.2053 O   0  0  0  0  0  0  0  0  0  0  0  0
    1.4797   -8.6258   16.2950 C   0  0  0  0  0  0  0  0  0  0  0  0
    9.2861   -1.2743   25.3585 C   0  0  0  0  0  0  0  0  0  0  0  0
    1.8892  -10.3985   17.7511 N   0  0  0  0  0  0  0  0  0  0  0  0
    9.6210   -0.6952   24.0976 C   0  0  0  0  0  0  0  0  0  0  0  0
    7.0792   -9.0217   17.1429 C   0  0  0  0  0  0  0  0  0  0  0  0
    3.1713  -10.1816   17.6634 C   0  0  0  0  0  0  0  0  0  0  0  0
    2.7878   -8.3822   16.2137 C   0  0  0  0  0  0  0  0  0  0  0  0
    9.4601   -2.6590   25.6528 C   0  0  0  0  0  0  0  0  0  0  0  0
   10.1182   -1.5672   23.1165 C   0  0  0  0  0  0  0  0  0  0  0  0
    1.0552   -9.6360   17.0650 C   0  0  0  0  0  0  0  0  0  0  0  0
    3.6519   -9.1783   16.9039 C   0  0  0  0  0  0  0  0  0  0  0  0
    7.8675   -7.0096   15.9415 C   0  0  0  0  0  0  0  0  0  0  0  0
    5.9733   -9.6553   17.3832 N   0  0  0  0  0  0  0  0  0  0  0  0
   10.2411   -2.9363   23.4301 C   0  0  0  0  0  0  0  0  0  0  0  0
   10.7288   -3.8197   19.9525 C   0  0  0  0  0  0  0  0  0  0  0  0
   10.1189   -5.0054   19.6987 C   0  0  0  0  0  0  0  0  0  0  0  0
  1  3  4  0
  1  7  4  0
  2 21  4  0
  2 27  4  0
  3  9  4  0
  3 10  4  0
  4  8  4  0
  4 18  4  0
  4 25  1  0
  5  9  4  0
  5 12  4  0
  6 13  1  0
  6 27  1  0
  7 28  4  0
  8 11  4  0
  9 29  4  0
 10 12  4  0
 11 24  1  0
 11 26  4  0
 12 25  1  0
 13 28  1  0
 14 20  4  0
 14 23  4  0
 15 17  4  0
 15 21  4  0
 16 19  4  0
 16 23  4  0
 17 22  4  0
 18 26  4  0
 19 24  4  0
 20 24  4  0
 22 27  4  0
 28 29  4  0
M  END
$$$$

 Created by Python create_sdf_string function

 29 33  0  0  0  0  0  0  0  0999 V2000
   10.7215   -3.3326   17.6437 C   0  0  0  0  0  0  0  0  0  0  0  0
    9.9489   -3.4675   24.6487 N   0  0  0  0  0  0  0  0  0  0  0  0
   10.0172   -4.4740   17.4101 C   0  0  0  0  0  0  0  0  0  0  0  0
    6.9051   -7.9575   16.4222 C   0  0  0  0  0  0  0  0  0  0  0  0
    8.9969   -6.3552   17.9668 N   0  0  0  0  0  0  0  0  0  0  0  0
   10.6702   -3.9051   22.4070 C   0  0  0  0  0  0  0  0  0  0  0  0
   11.0625   -3.0028   18.8894 C   0  0  0  0  0  0  0  0  0  0  0  0
    5.6180   -7.9194   16.1754 O   0  0  0  0  0  0  0  0  0  0  0  0
    9.7259   -5.3080   18.4485 C   0  0  0  0  0  0  0  0  0  0  0  0
    9.4578   -5.0200   16.3036 N   0  0  0  0  0  0  0  0  0  0  0  0
    5.0287   -8.9365   16.8223 C   0  0  0  0  0  0  0  0  0  0  0  0
    8.7742   -6.1498   16.6764 C   0  0  0  0  0  0  0  0  0  0  0  0
   10.9418   -3.4032   21.2053 O   0  0  0  0  0  0  0  0  0  0  0  0
    1.4797   -8.6258   16.2950 C   0  0  0  0  0  0  0  0  0  0  0  0
    9.2861   -1.2743   25.3585 C   0  0  0  0  0  0  0  0  0  0  0  0
    1.8892  -10.3985   17.7511 N   0  0  0  0  0  0  0  0  0  0  0  0
    9.6210   -0.6952   24.0976 C   0  0  0  0  0  0  0  0  0  0  0  0
    7.0792   -9.0217   17.1429 C   0  0  0  0  0  0  0  0  0  0  0  0
    3.1713  -10.1816   17.6634 C   0  0  0  0  0  0  0  0  0  0  0  0
    2.7878   -8.3822   16.2137 C   0  0  0  0  0  0  0  0  0  0  0  0
    9.4601   -2.6590   25.6528 C   0  0  0  0  0  0  0  0  0  0  0  0
   10.1182   -1.5672   23.1165 C   0  0  0  0  0  0  0  0  0  0  0  0
    1.0552   -9.6360   17.0650 C   0  0  0  0  0  0  0  0  0  0  0  0
    3.6519   -9.1783   16.9039 C   0  0  0  0  0  0  0  0  0  0  0  0
    7.8675   -7.0096   15.9415 C   0  0  0  0  0  0  0  0  0  0  0  0
    5.9733   -9.6553   17.3832 N   0  0  0  0  0  0  0  0  0  0  0  0
   10.2411   -2.9363   23.4301 C   0  0  0  0  0  0  0  0  0  0  0  0
   10.7288   -3.8197   19.9525 C   0  0  0  0  0  0  0  0  0  0  0  0
   10.1189   -5.0054   19.6987 C   0  0  0  0  0  0  0  0  0  0  0  0
  1  3  4  0
  1  7  4  0
  2 21  4  0
  2 27  4  0
  3  9  4  0
  3 10  4  0
  4  8  4  0
  4 18  4  0
  4 25  1  0
  5  9  4  0
  5 12  4  0
  6 13  1  0
  6 27  1  0
  7 28  4  0
  8 11  4  0
  9 29  4  0
 10 12  4  0
 11 24  1  0
 11 26  4  0
 12 25  1  0
 13 28  1  0
 14 20  4  0
 14 23  4  0
 15 17  4  0
 15 21  4  0
 16 19  4  0
 16 23  4  0
 17 22  4  0
 18 26  4  0
 19 24  4  0
 20 24  4  0
 22 27  4  0
 28 29  4  0
M  END
$$$$

 Created by Python create_sdf_string function

 29 33  0  0  0  0  0  0  0  0999 V2000
   10.7215   -3.3326   17.6437 C   0  0  0  0  0  0  0  0  0  0  0  0
    9.9489   -3.4675   24.6487 N   0  0  0  0  0  0  0  0  0  0  0  0
   10.0172   -4.4740   17.4101 C   0  0  0  0  0  0  0  0  0  0  0  0
    6.9051   -7.9575   16.4222 C   0  0  0  0  0  0  0  0  0  0  0  0
    8.9969   -6.3552   17.9668 N   0  0  0  0  0  0  0  0  0  0  0  0
   10.6702   -3.9051   22.4070 C   0  0  0  0  0  0  0  0  0  0  0  0
   11.0625   -3.0028   18.8894 C   0  0  0  0  0  0  0  0  0  0  0  0
    5.6180   -7.9194   16.1754 O   0  0  0  0  0  0  0  0  0  0  0  0
    9.7259   -5.3080   18.4485 C   0  0  0  0  0  0  0  0  0  0  0  0
    9.4578   -5.0200   16.3036 N   0  0  0  0  0  0  0  0  0  0  0  0
    5.0287   -8.9365   16.8223 C   0  0  0  0  0  0  0  0  0  0  0  0
    8.7742   -6.1498   16.6764 C   0  0  0  0  0  0  0  0  0  0  0  0
   10.9418   -3.4032   21.2053 O   0  0  0  0  0  0  0  0  0  0  0  0
    1.4797   -8.6258   16.2950 C   0  0  0  0  0  0  0  0  0  0  0  0
    9.2861   -1.2743   25.3585 C   0  0  0  0  0  0  0  0  0  0  0  0
    1.8892  -10.3985   17.7511 N   0  0  0  0  0  0  0  0  0  0  0  0
    9.6210   -0.6952   24.0976 C   0  0  0  0  0  0  0  0  0  0  0  0
    7.0792   -9.0217   17.1429 C   0  0  0  0  0  0  0  0  0  0  0  0
    3.1713  -10.1816   17.6634 C   0  0  0  0  0  0  0  0  0  0  0  0
    2.7878   -8.3822   16.2137 C   0  0  0  0  0  0  0  0  0  0  0  0
    9.4601   -2.6590   25.6528 C   0  0  0  0  0  0  0  0  0  0  0  0
   10.1182   -1.5672   23.1165 C   0  0  0  0  0  0  0  0  0  0  0  0
    1.0552   -9.6360   17.0650 C   0  0  0  0  0  0  0  0  0  0  0  0
    3.6519   -9.1783   16.9039 C   0  0  0  0  0  0  0  0  0  0  0  0
    7.8675   -7.0096   15.9415 C   0  0  0  0  0  0  0  0  0  0  0  0
    5.9733   -9.6553   17.3832 N   0  0  0  0  0  0  0  0  0  0  0  0
   10.2411   -2.9363   23.4301 C   0  0  0  0  0  0  0  0  0  0  0  0
   10.7288   -3.8197   19.9525 C   0  0  0  0  0  0  0  0  0  0  0  0
   10.1189   -5.0054   19.6987 C   0  0  0  0  0  0  0  0  0  0  0  0
  1  3  4  0
  1  7  4  0
  2 21  4  0
  2 27  4  0
  3  9  4  0
  3 10  4  0
  4  8  4  0
  4 18  4  0
  4 25  1  0
  5  9  4  0
  5 12  4  0
  6 13  1  0
  6 27  1  0
  7 28  4  0
  8 11  4  0
  9 29  4  0
 10 12  4  0
 11 24  1  0
 11 26  4  0
 12 25  1  0
 13 28  1  0
 14 20  4  0
 14 23  4  0
 15 17  4  0
 15 21  4  0
 16 19  4  0
 16 23  4  0
 17 22  4  0
 18 26  4  0
 19 24  4  0
 20 24  4  0
 22 27  4  0
 28 29  4  0
M  END
$$$$

 Created by Python create_sdf_string function

 29 33  0  0  0  0  0  0  0  0999 V2000
   10.7215   -3.3326   17.6437 C   0  0  0  0  0  0  0  0  0  0  0  0
    9.9489   -3.4675   24.6487 N   0  0  0  0  0  0  0  0  0  0  0  0
   10.0172   -4.4740   17.4101 C   0  0  0  0  0  0  0  0  0  0  0  0
    6.9051   -7.9575   16.4222 C   0  0  0  0  0  0  0  0  0  0  0  0
    8.9969   -6.3552   17.9668 N   0  0  0  0  0  0  0  0  0  0  0  0
   10.6702   -3.9051   22.4070 C   0  0  0  0  0  0  0  0  0  0  0  0
   11.0625   -3.0028   18.8894 C   0  0  0  0  0  0  0  0  0  0  0  0
    5.6180   -7.9194   16.1754 O   0  0  0  0  0  0  0  0  0  0  0  0
    9.7259   -5.3080   18.4485 C   0  0  0  0  0  0  0  0  0  0  0  0
    9.4578   -5.0200   16.3036 N   0  0  0  0  0  0  0  0  0  0  0  0
    5.0287   -8.9365   16.8223 C   0  0  0  0  0  0  0  0  0  0  0  0
    8.7742   -6.1498   16.6764 C   0  0  0  0  0  0  0  0  0  0  0  0
   10.9418   -3.4032   21.2053 O   0  0  0  0  0  0  0  0  0  0  0  0
    1.4797   -8.6258   16.2950 C   0  0  0  0  0  0  0  0  0  0  0  0
    9.2861   -1.2743   25.3585 C   0  0  0  0  0  0  0  0  0  0  0  0
    1.8892  -10.3985   17.7511 N   0  0  0  0  0  0  0  0  0  0  0  0
    9.6210   -0.6952   24.0976 C   0  0  0  0  0  0  0  0  0  0  0  0
    7.0792   -9.0217   17.1429 C   0  0  0  0  0  0  0  0  0  0  0  0
    3.1713  -10.1816   17.6634 C   0  0  0  0  0  0  0  0  0  0  0  0
    2.7878   -8.3822   16.2137 C   0  0  0  0  0  0  0  0  0  0  0  0
    9.4601   -2.6590   25.6528 C   0  0  0  0  0  0  0  0  0  0  0  0
   10.1182   -1.5672   23.1165 C   0  0  0  0  0  0  0  0  0  0  0  0
    1.0552   -9.6360   17.0650 C   0  0  0  0  0  0  0  0  0  0  0  0
    3.6519   -9.1783   16.9039 C   0  0  0  0  0  0  0  0  0  0  0  0
    7.8675   -7.0096   15.9415 C   0  0  0  0  0  0  0  0  0  0  0  0
    5.9733   -9.6553   17.3832 N   0  0  0  0  0  0  0  0  0  0  0  0
   10.2411   -2.9363   23.4301 C   0  0  0  0  0  0  0  0  0  0  0  0
   10.7288   -3.8197   19.9525 C   0  0  0  0  0  0  0  0  0  0  0  0
   10.1189   -5.0054   19.6987 C   0  0  0  0  0  0  0  0  0  0  0  0
  1  3  4  0
  1  7  4  0
  2 21  4  0
  2 27  4  0
  3  9  4  0
  3 10  4  0
  4  8  4  0
  4 18  4  0
  4 25  1  0
  5  9  4  0
  5 12  4  0
  6 13  1  0
  6 27  1  0
  7 28  4  0
  8 11  4  0
  9 29  4  0
 10 12  4  0
 11 24  1  0
 11 26  4  0
 12 25  1  0
 13 28  1  0
 14 20  4  0
 14 23  4  0
 15 17  4  0
 15 21  4  0
 16 19  4  0
 16 23  4  0
 17 22  4  0
 18 26  4  0
 19 24  4  0
 20 24  4  0
 22 27  4  0
 28 29  4  0
M  END
$$$$

 Created by Python create_sdf_string function

 29 33  0  0  0  0  0  0  0  0999 V2000
   10.7215   -3.3326   17.6437 C   0  0  0  0  0  0  0  0  0  0  0  0
    9.9489   -3.4675   24.6487 N   0  0  0  0  0  0  0  0  0  0  0  0
   10.0172   -4.4740   17.4101 C   0  0  0  0  0  0  0  0  0  0  0  0
    6.9051   -7.9575   16.4222 C   0  0  0  0  0  0  0  0  0  0  0  0
    8.9969   -6.3552   17.9668 N   0  0  0  0  0  0  0  0  0  0  0  0
   10.6702   -3.9051   22.4070 C   0  0  0  0  0  0  0  0  0  0  0  0
   11.0625   -3.0028   18.8894 C   0  0  0  0  0  0  0  0  0  0  0  0
    5.6180   -7.9194   16.1754 O   0  0  0  0  0  0  0  0  0  0  0  0
    9.7259   -5.3080   18.4485 C   0  0  0  0  0  0  0  0  0  0  0  0
    9.4578   -5.0200   16.3036 N   0  0  0  0  0  0  0  0  0  0  0  0
    5.0287   -8.9365   16.8223 C   0  0  0  0  0  0  0  0  0  0  0  0
    8.7742   -6.1498   16.6764 C   0  0  0  0  0  0  0  0  0  0  0  0
   10.9418   -3.4032   21.2053 O   0  0  0  0  0  0  0  0  0  0  0  0
    1.4797   -8.6258   16.2950 C   0  0  0  0  0  0  0  0  0  0  0  0
    9.2861   -1.2743   25.3585 C   0  0  0  0  0  0  0  0  0  0  0  0
    1.8892  -10.3985   17.7511 N   0  0  0  0  0  0  0  0  0  0  0  0
    9.6210   -0.6952   24.0976 C   0  0  0  0  0  0  0  0  0  0  0  0
    7.0792   -9.0217   17.1429 C   0  0  0  0  0  0  0  0  0  0  0  0
    3.1713  -10.1816   17.6634 C   0  0  0  0  0  0  0  0  0  0  0  0
    2.7878   -8.3822   16.2137 C   0  0  0  0  0  0  0  0  0  0  0  0
    9.4601   -2.6590   25.6528 C   0  0  0  0  0  0  0  0  0  0  0  0
   10.1182   -1.5672   23.1165 C   0  0  0  0  0  0  0  0  0  0  0  0
    1.0552   -9.6360   17.0650 C   0  0  0  0  0  0  0  0  0  0  0  0
    3.6519   -9.1783   16.9039 C   0  0  0  0  0  0  0  0  0  0  0  0
    7.8675   -7.0096   15.9415 C   0  0  0  0  0  0  0  0  0  0  0  0
    5.9733   -9.6553   17.3832 N   0  0  0  0  0  0  0  0  0  0  0  0
   10.2411   -2.9363   23.4301 C   0  0  0  0  0  0  0  0  0  0  0  0
   10.7288   -3.8197   19.9525 C   0  0  0  0  0  0  0  0  0  0  0  0
   10.1189   -5.0054   19.6987 C   0  0  0  0  0  0  0  0  0  0  0  0
  1  3  4  0
  1  7  4  0
  2 21  4  0
  2 27  4  0
  3  9  4  0
  3 10  4  0
  4  8  4  0
  4 18  4  0
  4 25  1  0
  5  9  4  0
  5 12  4  0
  6 13  1  0
  6 27  1  0
  7 28  4  0
  8 11  4  0
  9 29  4  0
 10 12  4  0
 11 24  1  0
 11 26  4  0
 12 25  1  0
 13 28  1  0
 14 20  4  0
 14 23  4  0
 15 17  4  0
 15 21  4  0
 16 19  4  0
 16 23  4  0
 17 22  4  0
 18 26  4  0
 19 24  4  0
 20 24  4  0
 22 27  4  0
 28 29  4  0
M  END
$$$$

 Created by Python create_sdf_string function

 29 33  0  0  0  0  0  0  0  0999 V2000
   10.7215   -3.3326   17.6437 C   0  0  0  0  0  0  0  0  0  0  0  0
    9.9489   -3.4675   24.6487 N   0  0  0  0  0  0  0  0  0  0  0  0
   10.0172   -4.4740   17.4101 C   0  0  0  0  0  0  0  0  0  0  0  0
    6.9051   -7.9575   16.4222 C   0  0  0  0  0  0  0  0  0  0  0  0
    8.9969   -6.3552   17.9668 N   0  0  0  0  0  0  0  0  0  0  0  0
   10.6702   -3.9051   22.4070 C   0  0  0  0  0  0  0  0  0  0  0  0
   11.0625   -3.0028   18.8894 C   0  0  0  0  0  0  0  0  0  0  0  0
    5.6180   -7.9194   16.1754 O   0  0  0  0  0  0  0  0  0  0  0  0
    9.7259   -5.3080   18.4485 C   0  0  0  0  0  0  0  0  0  0  0  0
    9.4578   -5.0200   16.3036 N   0  0  0  0  0  0  0  0  0  0  0  0
    5.0287   -8.9365   16.8223 C   0  0  0  0  0  0  0  0  0  0  0  0
    8.7742   -6.1498   16.6764 C   0  0  0  0  0  0  0  0  0  0  0  0
   10.9418   -3.4032   21.2053 O   0  0  0  0  0  0  0  0  0  0  0  0
    1.4797   -8.6258   16.2950 C   0  0  0  0  0  0  0  0  0  0  0  0
    9.2861   -1.2743   25.3585 C   0  0  0  0  0  0  0  0  0  0  0  0
    1.8892  -10.3985   17.7511 N   0  0  0  0  0  0  0  0  0  0  0  0
    9.6210   -0.6952   24.0976 C   0  0  0  0  0  0  0  0  0  0  0  0
    7.0792   -9.0217   17.1429 C   0  0  0  0  0  0  0  0  0  0  0  0
    3.1713  -10.1816   17.6634 C   0  0  0  0  0  0  0  0  0  0  0  0
    2.7878   -8.3822   16.2137 C   0  0  0  0  0  0  0  0  0  0  0  0
    9.4601   -2.6590   25.6528 C   0  0  0  0  0  0  0  0  0  0  0  0
   10.1182   -1.5672   23.1165 C   0  0  0  0  0  0  0  0  0  0  0  0
    1.0552   -9.6360   17.0650 C   0  0  0  0  0  0  0  0  0  0  0  0
    3.6519   -9.1783   16.9039 C   0  0  0  0  0  0  0  0  0  0  0  0
    7.8675   -7.0096   15.9415 C   0  0  0  0  0  0  0  0  0  0  0  0
    5.9733   -9.6553   17.3832 N   0  0  0  0  0  0  0  0  0  0  0  0
   10.2411   -2.9363   23.4301 C   0  0  0  0  0  0  0  0  0  0  0  0
   10.7288   -3.8197   19.9525 C   0  0  0  0  0  0  0  0  0  0  0  0
   10.1189   -5.0054   19.6987 C   0  0  0  0  0  0  0  0  0  0  0  0
  1  3  4  0
  1  7  4  0
  2 21  4  0
  2 27  4  0
  3  9  4  0
  3 10  4  0
  4  8  4  0
  4 18  4  0
  4 25  1  0
  5  9  4  0
  5 12  4  0
  6 13  1  0
  6 27  1  0
  7 28  4  0
  8 11  4  0
  9 29  4  0
 10 12  4  0
 11 24  1  0
 11 26  4  0
 12 25  1  0
 13 28  1  0
 14 20  4  0
 14 23  4  0
 15 17  4  0
 15 21  4  0
 16 19  4  0
 16 23  4  0
 17 22  4  0
 18 26  4  0
 19 24  4  0
 20 24  4  0
 22 27  4  0
 28 29  4  0
M  END
$$$$

 Created by Python create_sdf_string function

 29 33  0  0  0  0  0  0  0  0999 V2000
   10.7215   -3.3326   17.6437 C   0  0  0  0  0  0  0  0  0  0  0  0
    9.9489   -3.4675   24.6487 N   0  0  0  0  0  0  0  0  0  0  0  0
   10.0172   -4.4740   17.4101 C   0  0  0  0  0  0  0  0  0  0  0  0
    6.9051   -7.9575   16.4222 C   0  0  0  0  0  0  0  0  0  0  0  0
    8.9969   -6.3552   17.9668 N   0  0  0  0  0  0  0  0  0  0  0  0
   10.6702   -3.9051   22.4070 C   0  0  0  0  0  0  0  0  0  0  0  0
   11.0625   -3.0028   18.8894 C   0  0  0  0  0  0  0  0  0  0  0  0
    5.6180   -7.9194   16.1754 O   0  0  0  0  0  0  0  0  0  0  0  0
    9.7259   -5.3080   18.4485 C   0  0  0  0  0  0  0  0  0  0  0  0
    9.4578   -5.0200   16.3036 N   0  0  0  0  0  0  0  0  0  0  0  0
    5.0287   -8.9365   16.8223 C   0  0  0  0  0  0  0  0  0  0  0  0
    8.7742   -6.1498   16.6764 C   0  0  0  0  0  0  0  0  0  0  0  0
   10.9418   -3.4032   21.2053 O   0  0  0  0  0  0  0  0  0  0  0  0
    1.4797   -8.6258   16.2950 C   0  0  0  0  0  0  0  0  0  0  0  0
    9.2861   -1.2743   25.3585 C   0  0  0  0  0  0  0  0  0  0  0  0
    1.8892  -10.3985   17.7511 N   0  0  0  0  0  0  0  0  0  0  0  0
    9.6210   -0.6952   24.0976 C   0  0  0  0  0  0  0  0  0  0  0  0
    7.0792   -9.0217   17.1429 C   0  0  0  0  0  0  0  0  0  0  0  0
    3.1713  -10.1816   17.6634 C   0  0  0  0  0  0  0  0  0  0  0  0
    2.7878   -8.3822   16.2137 C   0  0  0  0  0  0  0  0  0  0  0  0
    9.4601   -2.6590   25.6528 C   0  0  0  0  0  0  0  0  0  0  0  0
   10.1182   -1.5672   23.1165 C   0  0  0  0  0  0  0  0  0  0  0  0
    1.0552   -9.6360   17.0650 C   0  0  0  0  0  0  0  0  0  0  0  0
    3.6519   -9.1783   16.9039 C   0  0  0  0  0  0  0  0  0  0  0  0
    7.8675   -7.0096   15.9415 C   0  0  0  0  0  0  0  0  0  0  0  0
    5.9733   -9.6553   17.3832 N   0  0  0  0  0  0  0  0  0  0  0  0
   10.2411   -2.9363   23.4301 C   0  0  0  0  0  0  0  0  0  0  0  0
   10.7288   -3.8197   19.9525 C   0  0  0  0  0  0  0  0  0  0  0  0
   10.1189   -5.0054   19.6987 C   0  0  0  0  0  0  0  0  0  0  0  0
  1  3  4  0
  1  7  4  0
  2 21  4  0
  2 27  4  0
  3  9  4  0
  3 10  4  0
  4  8  4  0
  4 18  4  0
  4 25  1  0
  5  9  4  0
  5 12  4  0
  6 13  1  0
  6 27  1  0
  7 28  4  0
  8 11  4  0
  9 29  4  0
 10 12  4  0
 11 24  1  0
 11 26  4  0
 12 25  1  0
 13 28  1  0
 14 20  4  0
 14 23  4  0
 15 17  4  0
 15 21  4  0
 16 19  4  0
 16 23  4  0
 17 22  4  0
 18 26  4  0
 19 24  4  0
 20 24  4  0
 22 27  4  0
 28 29  4  0
M  END
$$$$

 Created by Python create_sdf_string function

 29 33  0  0  0  0  0  0  0  0999 V2000
   10.7215   -3.3326   17.6437 C   0  0  0  0  0  0  0  0  0  0  0  0
    9.9489   -3.4675   24.6487 N   0  0  0  0  0  0  0  0  0  0  0  0
   10.0172   -4.4740   17.4101 C   0  0  0  0  0  0  0  0  0  0  0  0
    6.9051   -7.9575   16.4222 C   0  0  0  0  0  0  0  0  0  0  0  0
    8.9969   -6.3552   17.9668 N   0  0  0  0  0  0  0  0  0  0  0  0
   10.6702   -3.9051   22.4070 C   0  0  0  0  0  0  0  0  0  0  0  0
   11.0625   -3.0028   18.8894 C   0  0  0  0  0  0  0  0  0  0  0  0
    5.6180   -7.9194   16.1754 O   0  0  0  0  0  0  0  0  0  0  0  0
    9.7259   -5.3080   18.4485 C   0  0  0  0  0  0  0  0  0  0  0  0
    9.4578   -5.0200   16.3036 N   0  0  0  0  0  0  0  0  0  0  0  0
    5.0287   -8.9365   16.8223 C   0  0  0  0  0  0  0  0  0  0  0  0
    8.7742   -6.1498   16.6764 C   0  0  0  0  0  0  0  0  0  0  0  0
   10.9418   -3.4032   21.2053 O   0  0  0  0  0  0  0  0  0  0  0  0
    1.4797   -8.6258   16.2950 C   0  0  0  0  0  0  0  0  0  0  0  0
    9.2861   -1.2743   25.3585 C   0  0  0  0  0  0  0  0  0  0  0  0
    1.8892  -10.3985   17.7511 N   0  0  0  0  0  0  0  0  0  0  0  0
    9.6210   -0.6952   24.0976 C   0  0  0  0  0  0  0  0  0  0  0  0
    7.0792   -9.0217   17.1429 C   0  0  0  0  0  0  0  0  0  0  0  0
    3.1713  -10.1816   17.6634 C   0  0  0  0  0  0  0  0  0  0  0  0
    2.7878   -8.3822   16.2137 C   0  0  0  0  0  0  0  0  0  0  0  0
    9.4601   -2.6590   25.6528 C   0  0  0  0  0  0  0  0  0  0  0  0
   10.1182   -1.5672   23.1165 C   0  0  0  0  0  0  0  0  0  0  0  0
    1.0552   -9.6360   17.0650 C   0  0  0  0  0  0  0  0  0  0  0  0
    3.6519   -9.1783   16.9039 C   0  0  0  0  0  0  0  0  0  0  0  0
    7.8675   -7.0096   15.9415 C   0  0  0  0  0  0  0  0  0  0  0  0
    5.9733   -9.6553   17.3832 N   0  0  0  0  0  0  0  0  0  0  0  0
   10.2411   -2.9363   23.4301 C   0  0  0  0  0  0  0  0  0  0  0  0
   10.7288   -3.8197   19.9525 C   0  0  0  0  0  0  0  0  0  0  0  0
   10.1189   -5.0054   19.6987 C   0  0  0  0  0  0  0  0  0  0  0  0
  1  3  4  0
  1  7  4  0
  2 21  4  0
  2 27  4  0
  3  9  4  0
  3 10  4  0
  4  8  4  0
  4 18  4  0
  4 25  1  0
  5  9  4  0
  5 12  4  0
  6 13  1  0
  6 27  1  0
  7 28  4  0
  8 11  4  0
  9 29  4  0
 10 12  4  0
 11 24  1  0
 11 26  4  0
 12 25  1  0
 13 28  1  0
 14 20  4  0
 14 23  4  0
 15 17  4  0
 15 21  4  0
 16 19  4  0
 16 23  4  0
 17 22  4  0
 18 26  4  0
 19 24  4  0
 20 24  4  0
 22 27  4  0
 28 29  4  0
M  END
$$$$

 Created by Python create_sdf_string function

 29 33  0  0  0  0  0  0  0  0999 V2000
   10.7215   -3.3326   17.6437 C   0  0  0  0  0  0  0  0  0  0  0  0
    9.9489   -3.4675   24.6487 N   0  0  0  0  0  0  0  0  0  0  0  0
   10.0172   -4.4740   17.4101 C   0  0  0  0  0  0  0  0  0  0  0  0
    6.9051   -7.9575   16.4222 C   0  0  0  0  0  0  0  0  0  0  0  0
    8.9969   -6.3552   17.9668 N   0  0  0  0  0  0  0  0  0  0  0  0
   10.6702   -3.9051   22.4070 C   0  0  0  0  0  0  0  0  0  0  0  0
   11.0625   -3.0028   18.8894 C   0  0  0  0  0  0  0  0  0  0  0  0
    5.6180   -7.9194   16.1754 O   0  0  0  0  0  0  0  0  0  0  0  0
    9.7259   -5.3080   18.4485 C   0  0  0  0  0  0  0  0  0  0  0  0
    9.4578   -5.0200   16.3036 N   0  0  0  0  0  0  0  0  0  0  0  0
    5.0287   -8.9365   16.8223 C   0  0  0  0  0  0  0  0  0  0  0  0
    8.7742   -6.1498   16.6764 C   0  0  0  0  0  0  0  0  0  0  0  0
   10.9418   -3.4032   21.2053 O   0  0  0  0  0  0  0  0  0  0  0  0
    1.4797   -8.6258   16.2950 C   0  0  0  0  0  0  0  0  0  0  0  0
    9.2861   -1.2743   25.3585 C   0  0  0  0  0  0  0  0  0  0  0  0
    1.8892  -10.3985   17.7511 N   0  0  0  0  0  0  0  0  0  0  0  0
    9.6210   -0.6952   24.0976 C   0  0  0  0  0  0  0  0  0  0  0  0
    7.0792   -9.0217   17.1429 C   0  0  0  0  0  0  0  0  0  0  0  0
    3.1713  -10.1816   17.6634 C   0  0  0  0  0  0  0  0  0  0  0  0
    2.7878   -8.3822   16.2137 C   0  0  0  0  0  0  0  0  0  0  0  0
    9.4601   -2.6590   25.6528 C   0  0  0  0  0  0  0  0  0  0  0  0
   10.1182   -1.5672   23.1165 C   0  0  0  0  0  0  0  0  0  0  0  0
    1.0552   -9.6360   17.0650 C   0  0  0  0  0  0  0  0  0  0  0  0
    3.6519   -9.1783   16.9039 C   0  0  0  0  0  0  0  0  0  0  0  0
    7.8675   -7.0096   15.9415 C   0  0  0  0  0  0  0  0  0  0  0  0
    5.9733   -9.6553   17.3832 N   0  0  0  0  0  0  0  0  0  0  0  0
   10.2411   -2.9363   23.4301 C   0  0  0  0  0  0  0  0  0  0  0  0
   10.7288   -3.8197   19.9525 C   0  0  0  0  0  0  0  0  0  0  0  0
   10.1189   -5.0054   19.6987 C   0  0  0  0  0  0  0  0  0  0  0  0
  1  3  4  0
  1  7  4  0
  2 21  4  0
  2 27  4  0
  3  9  4  0
  3 10  4  0
  4  8  4  0
  4 18  4  0
  4 25  1  0
  5  9  4  0
  5 12  4  0
  6 13  1  0
  6 27  1  0
  7 28  4  0
  8 11  4  0
  9 29  4  0
 10 12  4  0
 11 24  1  0
 11 26  4  0
 12 25  1  0
 13 28  1  0
 14 20  4  0
 14 23  4  0
 15 17  4  0
 15 21  4  0
 16 19  4  0
 16 23  4  0
 17 22  4  0
 18 26  4  0
 19 24  4  0
 20 24  4  0
 22 27  4  0
 28 29  4  0
M  END
$$$$

 Created by Python create_sdf_string function

 29 33  0  0  0  0  0  0  0  0999 V2000
   10.7215   -3.3326   17.6437 C   0  0  0  0  0  0  0  0  0  0  0  0
    9.9489   -3.4675   24.6487 N   0  0  0  0  0  0  0  0  0  0  0  0
   10.0172   -4.4740   17.4101 C   0  0  0  0  0  0  0  0  0  0  0  0
    6.9051   -7.9575   16.4222 C   0  0  0  0  0  0  0  0  0  0  0  0
    8.9969   -6.3552   17.9668 N   0  0  0  0  0  0  0  0  0  0  0  0
   10.6702   -3.9051   22.4070 C   0  0  0  0  0  0  0  0  0  0  0  0
   11.0625   -3.0028   18.8894 C   0  0  0  0  0  0  0  0  0  0  0  0
    5.6180   -7.9194   16.1754 O   0  0  0  0  0  0  0  0  0  0  0  0
    9.7259   -5.3080   18.4485 C   0  0  0  0  0  0  0  0  0  0  0  0
    9.4578   -5.0200   16.3036 N   0  0  0  0  0  0  0  0  0  0  0  0
    5.0287   -8.9365   16.8223 C   0  0  0  0  0  0  0  0  0  0  0  0
    8.7742   -6.1498   16.6764 C   0  0  0  0  0  0  0  0  0  0  0  0
   10.9418   -3.4032   21.2053 O   0  0  0  0  0  0  0  0  0  0  0  0
    1.4797   -8.6258   16.2950 C   0  0  0  0  0  0  0  0  0  0  0  0
    9.2861   -1.2743   25.3585 C   0  0  0  0  0  0  0  0  0  0  0  0
    1.8892  -10.3985   17.7511 N   0  0  0  0  0  0  0  0  0  0  0  0
    9.6210   -0.6952   24.0976 C   0  0  0  0  0  0  0  0  0  0  0  0
    7.0792   -9.0217   17.1429 C   0  0  0  0  0  0  0  0  0  0  0  0
    3.1713  -10.1816   17.6634 C   0  0  0  0  0  0  0  0  0  0  0  0
    2.7878   -8.3822   16.2137 C   0  0  0  0  0  0  0  0  0  0  0  0
    9.4601   -2.6590   25.6528 C   0  0  0  0  0  0  0  0  0  0  0  0
   10.1182   -1.5672   23.1165 C   0  0  0  0  0  0  0  0  0  0  0  0
    1.0552   -9.6360   17.0650 C   0  0  0  0  0  0  0  0  0  0  0  0
    3.6519   -9.1783   16.9039 C   0  0  0  0  0  0  0  0  0  0  0  0
    7.8675   -7.0096   15.9415 C   0  0  0  0  0  0  0  0  0  0  0  0
    5.9733   -9.6553   17.3832 N   0  0  0  0  0  0  0  0  0  0  0  0
   10.2411   -2.9363   23.4301 C   0  0  0  0  0  0  0  0  0  0  0  0
   10.7288   -3.8197   19.9525 C   0  0  0  0  0  0  0  0  0  0  0  0
   10.1189   -5.0054   19.6987 C   0  0  0  0  0  0  0  0  0  0  0  0
  1  3  4  0
  1  7  4  0
  2 21  4  0
  2 27  4  0
  3  9  4  0
  3 10  4  0
  4  8  4  0
  4 18  4  0
  4 25  1  0
  5  9  4  0
  5 12  4  0
  6 13  1  0
  6 27  1  0
  7 28  4  0
  8 11  4  0
  9 29  4  0
 10 12  4  0
 11 24  1  0
 11 26  4  0
 12 25  1  0
 13 28  1  0
 14 20  4  0
 14 23  4  0
 15 17  4  0
 15 21  4  0
 16 19  4  0
 16 23  4  0
 17 22  4  0
 18 26  4  0
 19 24  4  0
 20 24  4  0
 22 27  4  0
 28 29  4  0
M  END
$$$$

 Created by Python create_sdf_string function

 29 33  0  0  0  0  0  0  0  0999 V2000
   10.7215   -3.3326   17.6437 C   0  0  0  0  0  0  0  0  0  0  0  0
    9.9489   -3.4675   24.6487 N   0  0  0  0  0  0  0  0  0  0  0  0
   10.0172   -4.4740   17.4101 C   0  0  0  0  0  0  0  0  0  0  0  0
    6.9051   -7.9575   16.4222 C   0  0  0  0  0  0  0  0  0  0  0  0
    8.9969   -6.3552   17.9668 N   0  0  0  0  0  0  0  0  0  0  0  0
   10.6702   -3.9051   22.4070 C   0  0  0  0  0  0  0  0  0  0  0  0
   11.0625   -3.0028   18.8894 C   0  0  0  0  0  0  0  0  0  0  0  0
    5.6180   -7.9194   16.1754 O   0  0  0  0  0  0  0  0  0  0  0  0
    9.7259   -5.3080   18.4485 C   0  0  0  0  0  0  0  0  0  0  0  0
    9.4578   -5.0200   16.3036 N   0  0  0  0  0  0  0  0  0  0  0  0
    5.0287   -8.9365   16.8223 C   0  0  0  0  0  0  0  0  0  0  0  0
    8.7742   -6.1498   16.6764 C   0  0  0  0  0  0  0  0  0  0  0  0
   10.9418   -3.4032   21.2053 O   0  0  0  0  0  0  0  0  0  0  0  0
    1.4797   -8.6258   16.2950 C   0  0  0  0  0  0  0  0  0  0  0  0
    9.2861   -1.2743   25.3585 C   0  0  0  0  0  0  0  0  0  0  0  0
    1.8892  -10.3985   17.7511 N   0  0  0  0  0  0  0  0  0  0  0  0
    9.6210   -0.6952   24.0976 C   0  0  0  0  0  0  0  0  0  0  0  0
    7.0792   -9.0217   17.1429 C   0  0  0  0  0  0  0  0  0  0  0  0
    3.1713  -10.1816   17.6634 C   0  0  0  0  0  0  0  0  0  0  0  0
    2.7878   -8.3822   16.2137 C   0  0  0  0  0  0  0  0  0  0  0  0
    9.4601   -2.6590   25.6528 C   0  0  0  0  0  0  0  0  0  0  0  0
   10.1182   -1.5672   23.1165 C   0  0  0  0  0  0  0  0  0  0  0  0
    1.0552   -9.6360   17.0650 C   0  0  0  0  0  0  0  0  0  0  0  0
    3.6519   -9.1783   16.9039 C   0  0  0  0  0  0  0  0  0  0  0  0
    7.8675   -7.0096   15.9415 C   0  0  0  0  0  0  0  0  0  0  0  0
    5.9733   -9.6553   17.3832 N   0  0  0  0  0  0  0  0  0  0  0  0
   10.2411   -2.9363   23.4301 C   0  0  0  0  0  0  0  0  0  0  0  0
   10.7288   -3.8197   19.9525 C   0  0  0  0  0  0  0  0  0  0  0  0
   10.1189   -5.0054   19.6987 C   0  0  0  0  0  0  0  0  0  0  0  0
  1  3  4  0
  1  7  4  0
  2 21  4  0
  2 27  4  0
  3  9  4  0
  3 10  4  0
  4  8  4  0
  4 18  4  0
  4 25  1  0
  5  9  4  0
  5 12  4  0
  6 13  1  0
  6 27  1  0
  7 28  4  0
  8 11  4  0
  9 29  4  0
 10 12  4  0
 11 24  1  0
 11 26  4  0
 12 25  1  0
 13 28  1  0
 14 20  4  0
 14 23  4  0
 15 17  4  0
 15 21  4  0
 16 19  4  0
 16 23  4  0
 17 22  4  0
 18 26  4  0
 19 24  4  0
 20 24  4  0
 22 27  4  0
 28 29  4  0
M  END
$$$$

 Created by Python create_sdf_string function

 29 33  0  0  0  0  0  0  0  0999 V2000
   10.7215   -3.3326   17.6437 C   0  0  0  0  0  0  0  0  0  0  0  0
    9.9489   -3.4675   24.6487 N   0  0  0  0  0  0  0  0  0  0  0  0
   10.0172   -4.4740   17.4101 C   0  0  0  0  0  0  0  0  0  0  0  0
    6.9051   -7.9575   16.4222 C   0  0  0  0  0  0  0  0  0  0  0  0
    8.9969   -6.3552   17.9668 N   0  0  0  0  0  0  0  0  0  0  0  0
   10.6702   -3.9051   22.4070 C   0  0  0  0  0  0  0  0  0  0  0  0
   11.0625   -3.0028   18.8894 C   0  0  0  0  0  0  0  0  0  0  0  0
    5.6180   -7.9194   16.1754 O   0  0  0  0  0  0  0  0  0  0  0  0
    9.7259   -5.3080   18.4485 C   0  0  0  0  0  0  0  0  0  0  0  0
    9.4578   -5.0200   16.3036 N   0  0  0  0  0  0  0  0  0  0  0  0
    5.0287   -8.9365   16.8223 C   0  0  0  0  0  0  0  0  0  0  0  0
    8.7742   -6.1498   16.6764 C   0  0  0  0  0  0  0  0  0  0  0  0
   10.9418   -3.4032   21.2053 O   0  0  0  0  0  0  0  0  0  0  0  0
    1.4797   -8.6258   16.2950 C   0  0  0  0  0  0  0  0  0  0  0  0
    9.2861   -1.2743   25.3585 C   0  0  0  0  0  0  0  0  0  0  0  0
    1.8892  -10.3985   17.7511 N   0  0  0  0  0  0  0  0  0  0  0  0
    9.6210   -0.6952   24.0976 C   0  0  0  0  0  0  0  0  0  0  0  0
    7.0792   -9.0217   17.1429 C   0  0  0  0  0  0  0  0  0  0  0  0
    3.1713  -10.1816   17.6634 C   0  0  0  0  0  0  0  0  0  0  0  0
    2.7878   -8.3822   16.2137 C   0  0  0  0  0  0  0  0  0  0  0  0
    9.4601   -2.6590   25.6528 C   0  0  0  0  0  0  0  0  0  0  0  0
   10.1182   -1.5672   23.1165 C   0  0  0  0  0  0  0  0  0  0  0  0
    1.0552   -9.6360   17.0650 C   0  0  0  0  0  0  0  0  0  0  0  0
    3.6519   -9.1783   16.9039 C   0  0  0  0  0  0  0  0  0  0  0  0
    7.8675   -7.0096   15.9415 C   0  0  0  0  0  0  0  0  0  0  0  0
    5.9733   -9.6553   17.3832 N   0  0  0  0  0  0  0  0  0  0  0  0
   10.2411   -2.9363   23.4301 C   0  0  0  0  0  0  0  0  0  0  0  0
   10.7288   -3.8197   19.9525 C   0  0  0  0  0  0  0  0  0  0  0  0
   10.1189   -5.0054   19.6987 C   0  0  0  0  0  0  0  0  0  0  0  0
  1  3  4  0
  1  7  4  0
  2 21  4  0
  2 27  4  0
  3  9  4  0
  3 10  4  0
  4  8  4  0
  4 18  4  0
  4 25  1  0
  5  9  4  0
  5 12  4  0
  6 13  1  0
  6 27  1  0
  7 28  4  0
  8 11  4  0
  9 29  4  0
 10 12  4  0
 11 24  1  0
 11 26  4  0
 12 25  1  0
 13 28  1  0
 14 20  4  0
 14 23  4  0
 15 17  4  0
 15 21  4  0
 16 19  4  0
 16 23  4  0
 17 22  4  0
 18 26  4  0
 19 24  4  0
 20 24  4  0
 22 27  4  0
 28 29  4  0
M  END
$$$$

 Created by Python create_sdf_string function

 29 33  0  0  0  0  0  0  0  0999 V2000
   10.7215   -3.3326   17.6437 C   0  0  0  0  0  0  0  0  0  0  0  0
    9.9489   -3.4675   24.6487 N   0  0  0  0  0  0  0  0  0  0  0  0
   10.0172   -4.4740   17.4101 C   0  0  0  0  0  0  0  0  0  0  0  0
    6.9051   -7.9575   16.4222 C   0  0  0  0  0  0  0  0  0  0  0  0
    8.9969   -6.3552   17.9668 N   0  0  0  0  0  0  0  0  0  0  0  0
   10.6702   -3.9051   22.4070 C   0  0  0  0  0  0  0  0  0  0  0  0
   11.0625   -3.0028   18.8894 C   0  0  0  0  0  0  0  0  0  0  0  0
    5.6180   -7.9194   16.1754 O   0  0  0  0  0  0  0  0  0  0  0  0
    9.7259   -5.3080   18.4485 C   0  0  0  0  0  0  0  0  0  0  0  0
    9.4578   -5.0200   16.3036 N   0  0  0  0  0  0  0  0  0  0  0  0
    5.0287   -8.9365   16.8223 C   0  0  0  0  0  0  0  0  0  0  0  0
    8.7742   -6.1498   16.6764 C   0  0  0  0  0  0  0  0  0  0  0  0
   10.9418   -3.4032   21.2053 O   0  0  0  0  0  0  0  0  0  0  0  0
    1.4797   -8.6258   16.2950 C   0  0  0  0  0  0  0  0  0  0  0  0
    9.2861   -1.2743   25.3585 C   0  0  0  0  0  0  0  0  0  0  0  0
    1.8892  -10.3985   17.7511 N   0  0  0  0  0  0  0  0  0  0  0  0
    9.6210   -0.6952   24.0976 C   0  0  0  0  0  0  0  0  0  0  0  0
    7.0792   -9.0217   17.1429 C   0  0  0  0  0  0  0  0  0  0  0  0
    3.1713  -10.1816   17.6634 C   0  0  0  0  0  0  0  0  0  0  0  0
    2.7878   -8.3822   16.2137 C   0  0  0  0  0  0  0  0  0  0  0  0
    9.4601   -2.6590   25.6528 C   0  0  0  0  0  0  0  0  0  0  0  0
   10.1182   -1.5672   23.1165 C   0  0  0  0  0  0  0  0  0  0  0  0
    1.0552   -9.6360   17.0650 C   0  0  0  0  0  0  0  0  0  0  0  0
    3.6519   -9.1783   16.9039 C   0  0  0  0  0  0  0  0  0  0  0  0
    7.8675   -7.0096   15.9415 C   0  0  0  0  0  0  0  0  0  0  0  0
    5.9733   -9.6553   17.3832 N   0  0  0  0  0  0  0  0  0  0  0  0
   10.2411   -2.9363   23.4301 C   0  0  0  0  0  0  0  0  0  0  0  0
   10.7288   -3.8197   19.9525 C   0  0  0  0  0  0  0  0  0  0  0  0
   10.1189   -5.0054   19.6987 C   0  0  0  0  0  0  0  0  0  0  0  0
  1  3  4  0
  1  7  4  0
  2 21  4  0
  2 27  4  0
  3  9  4  0
  3 10  4  0
  4  8  4  0
  4 18  4  0
  4 25  1  0
  5  9  4  0
  5 12  4  0
  6 13  1  0
  6 27  1  0
  7 28  4  0
  8 11  4  0
  9 29  4  0
 10 12  4  0
 11 24  1  0
 11 26  4  0
 12 25  1  0
 13 28  1  0
 14 20  4  0
 14 23  4  0
 15 17  4  0
 15 21  4  0
 16 19  4  0
 16 23  4  0
 17 22  4  0
 18 26  4  0
 19 24  4  0
 20 24  4  0
 22 27  4  0
 28 29  4  0
M  END
$$$$

 Created by Python create_sdf_string function

 29 33  0  0  0  0  0  0  0  0999 V2000
   10.7215   -3.3326   17.6437 C   0  0  0  0  0  0  0  0  0  0  0  0
    9.9489   -3.4675   24.6487 N   0  0  0  0  0  0  0  0  0  0  0  0
   10.0172   -4.4740   17.4101 C   0  0  0  0  0  0  0  0  0  0  0  0
    6.9051   -7.9575   16.4222 C   0  0  0  0  0  0  0  0  0  0  0  0
    8.9969   -6.3552   17.9668 N   0  0  0  0  0  0  0  0  0  0  0  0
   10.6702   -3.9051   22.4070 C   0  0  0  0  0  0  0  0  0  0  0  0
   11.0625   -3.0028   18.8894 C   0  0  0  0  0  0  0  0  0  0  0  0
    5.6180   -7.9194   16.1754 O   0  0  0  0  0  0  0  0  0  0  0  0
    9.7259   -5.3080   18.4485 C   0  0  0  0  0  0  0  0  0  0  0  0
    9.4578   -5.0200   16.3036 N   0  0  0  0  0  0  0  0  0  0  0  0
    5.0287   -8.9365   16.8223 C   0  0  0  0  0  0  0  0  0  0  0  0
    8.7742   -6.1498   16.6764 C   0  0  0  0  0  0  0  0  0  0  0  0
   10.9418   -3.4032   21.2053 O   0  0  0  0  0  0  0  0  0  0  0  0
    1.4797   -8.6258   16.2950 C   0  0  0  0  0  0  0  0  0  0  0  0
    9.2861   -1.2743   25.3585 C   0  0  0  0  0  0  0  0  0  0  0  0
    1.8892  -10.3985   17.7511 N   0  0  0  0  0  0  0  0  0  0  0  0
    9.6210   -0.6952   24.0976 C   0  0  0  0  0  0  0  0  0  0  0  0
    7.0792   -9.0217   17.1429 C   0  0  0  0  0  0  0  0  0  0  0  0
    3.1713  -10.1816   17.6634 C   0  0  0  0  0  0  0  0  0  0  0  0
    2.7878   -8.3822   16.2137 C   0  0  0  0  0  0  0  0  0  0  0  0
    9.4601   -2.6590   25.6528 C   0  0  0  0  0  0  0  0  0  0  0  0
   10.1182   -1.5672   23.1165 C   0  0  0  0  0  0  0  0  0  0  0  0
    1.0552   -9.6360   17.0650 C   0  0  0  0  0  0  0  0  0  0  0  0
    3.6519   -9.1783   16.9039 C   0  0  0  0  0  0  0  0  0  0  0  0
    7.8675   -7.0096   15.9415 C   0  0  0  0  0  0  0  0  0  0  0  0
    5.9733   -9.6553   17.3832 N   0  0  0  0  0  0  0  0  0  0  0  0
   10.2411   -2.9363   23.4301 C   0  0  0  0  0  0  0  0  0  0  0  0
   10.7288   -3.8197   19.9525 C   0  0  0  0  0  0  0  0  0  0  0  0
   10.1189   -5.0054   19.6987 C   0  0  0  0  0  0  0  0  0  0  0  0
  1  3  4  0
  1  7  4  0
  2 21  4  0
  2 27  4  0
  3  9  4  0
  3 10  4  0
  4  8  4  0
  4 18  4  0
  4 25  1  0
  5  9  4  0
  5 12  4  0
  6 13  1  0
  6 27  1  0
  7 28  4  0
  8 11  4  0
  9 29  4  0
 10 12  4  0
 11 24  1  0
 11 26  4  0
 12 25  1  0
 13 28  1  0
 14 20  4  0
 14 23  4  0
 15 17  4  0
 15 21  4  0
 16 19  4  0
 16 23  4  0
 17 22  4  0
 18 26  4  0
 19 24  4  0
 20 24  4  0
 22 27  4  0
 28 29  4  0
M  END
$$$$

 Created by Python create_sdf_string function

 29 33  0  0  0  0  0  0  0  0999 V2000
   10.7215   -3.3326   17.6437 C   0  0  0  0  0  0  0  0  0  0  0  0
    9.9489   -3.4675   24.6487 N   0  0  0  0  0  0  0  0  0  0  0  0
   10.0172   -4.4740   17.4101 C   0  0  0  0  0  0  0  0  0  0  0  0
    6.9051   -7.9575   16.4222 C   0  0  0  0  0  0  0  0  0  0  0  0
    8.9969   -6.3552   17.9668 N   0  0  0  0  0  0  0  0  0  0  0  0
   10.6702   -3.9051   22.4070 C   0  0  0  0  0  0  0  0  0  0  0  0
   11.0625   -3.0028   18.8894 C   0  0  0  0  0  0  0  0  0  0  0  0
    5.6180   -7.9194   16.1754 O   0  0  0  0  0  0  0  0  0  0  0  0
    9.7259   -5.3080   18.4485 C   0  0  0  0  0  0  0  0  0  0  0  0
    9.4578   -5.0200   16.3036 N   0  0  0  0  0  0  0  0  0  0  0  0
    5.0287   -8.9365   16.8223 C   0  0  0  0  0  0  0  0  0  0  0  0
    8.7742   -6.1498   16.6764 C   0  0  0  0  0  0  0  0  0  0  0  0
   10.9418   -3.4032   21.2053 O   0  0  0  0  0  0  0  0  0  0  0  0
    1.4797   -8.6258   16.2950 C   0  0  0  0  0  0  0  0  0  0  0  0
    9.2861   -1.2743   25.3585 C   0  0  0  0  0  0  0  0  0  0  0  0
    1.8892  -10.3985   17.7511 N   0  0  0  0  0  0  0  0  0  0  0  0
    9.6210   -0.6952   24.0976 C   0  0  0  0  0  0  0  0  0  0  0  0
    7.0792   -9.0217   17.1429 C   0  0  0  0  0  0  0  0  0  0  0  0
    3.1713  -10.1816   17.6634 C   0  0  0  0  0  0  0  0  0  0  0  0
    2.7878   -8.3822   16.2137 C   0  0  0  0  0  0  0  0  0  0  0  0
    9.4601   -2.6590   25.6528 C   0  0  0  0  0  0  0  0  0  0  0  0
   10.1182   -1.5672   23.1165 C   0  0  0  0  0  0  0  0  0  0  0  0
    1.0552   -9.6360   17.0650 C   0  0  0  0  0  0  0  0  0  0  0  0
    3.6519   -9.1783   16.9039 C   0  0  0  0  0  0  0  0  0  0  0  0
    7.8675   -7.0096   15.9415 C   0  0  0  0  0  0  0  0  0  0  0  0
    5.9733   -9.6553   17.3832 N   0  0  0  0  0  0  0  0  0  0  0  0
   10.2411   -2.9363   23.4301 C   0  0  0  0  0  0  0  0  0  0  0  0
   10.7288   -3.8197   19.9525 C   0  0  0  0  0  0  0  0  0  0  0  0
   10.1189   -5.0054   19.6987 C   0  0  0  0  0  0  0  0  0  0  0  0
  1  3  4  0
  1  7  4  0
  2 21  4  0
  2 27  4  0
  3  9  4  0
  3 10  4  0
  4  8  4  0
  4 18  4  0
  4 25  1  0
  5  9  4  0
  5 12  4  0
  6 13  1  0
  6 27  1  0
  7 28  4  0
  8 11  4  0
  9 29  4  0
 10 12  4  0
 11 24  1  0
 11 26  4  0
 12 25  1  0
 13 28  1  0
 14 20  4  0
 14 23  4  0
 15 17  4  0
 15 21  4  0
 16 19  4  0
 16 23  4  0
 17 22  4  0
 18 26  4  0
 19 24  4  0
 20 24  4  0
 22 27  4  0
 28 29  4  0
M  END
$$$$

 Created by Python create_sdf_string function

 29 33  0  0  0  0  0  0  0  0999 V2000
   10.7215   -3.3326   17.6437 C   0  0  0  0  0  0  0  0  0  0  0  0
    9.9489   -3.4675   24.6487 N   0  0  0  0  0  0  0  0  0  0  0  0
   10.0172   -4.4740   17.4101 C   0  0  0  0  0  0  0  0  0  0  0  0
    6.9051   -7.9575   16.4222 C   0  0  0  0  0  0  0  0  0  0  0  0
    8.9969   -6.3552   17.9668 N   0  0  0  0  0  0  0  0  0  0  0  0
   10.6702   -3.9051   22.4070 C   0  0  0  0  0  0  0  0  0  0  0  0
   11.0625   -3.0028   18.8894 C   0  0  0  0  0  0  0  0  0  0  0  0
    5.6180   -7.9194   16.1754 O   0  0  0  0  0  0  0  0  0  0  0  0
    9.7259   -5.3080   18.4485 C   0  0  0  0  0  0  0  0  0  0  0  0
    9.4578   -5.0200   16.3036 N   0  0  0  0  0  0  0  0  0  0  0  0
    5.0287   -8.9365   16.8223 C   0  0  0  0  0  0  0  0  0  0  0  0
    8.7742   -6.1498   16.6764 C   0  0  0  0  0  0  0  0  0  0  0  0
   10.9418   -3.4032   21.2053 O   0  0  0  0  0  0  0  0  0  0  0  0
    1.4797   -8.6258   16.2950 C   0  0  0  0  0  0  0  0  0  0  0  0
    9.2861   -1.2743   25.3585 C   0  0  0  0  0  0  0  0  0  0  0  0
    1.8892  -10.3985   17.7511 N   0  0  0  0  0  0  0  0  0  0  0  0
    9.6210   -0.6952   24.0976 C   0  0  0  0  0  0  0  0  0  0  0  0
    7.0792   -9.0217   17.1429 C   0  0  0  0  0  0  0  0  0  0  0  0
    3.1713  -10.1816   17.6634 C   0  0  0  0  0  0  0  0  0  0  0  0
    2.7878   -8.3822   16.2137 C   0  0  0  0  0  0  0  0  0  0  0  0
    9.4601   -2.6590   25.6528 C   0  0  0  0  0  0  0  0  0  0  0  0
   10.1182   -1.5672   23.1165 C   0  0  0  0  0  0  0  0  0  0  0  0
    1.0552   -9.6360   17.0650 C   0  0  0  0  0  0  0  0  0  0  0  0
    3.6519   -9.1783   16.9039 C   0  0  0  0  0  0  0  0  0  0  0  0
    7.8675   -7.0096   15.9415 C   0  0  0  0  0  0  0  0  0  0  0  0
    5.9733   -9.6553   17.3832 N   0  0  0  0  0  0  0  0  0  0  0  0
   10.2411   -2.9363   23.4301 C   0  0  0  0  0  0  0  0  0  0  0  0
   10.7288   -3.8197   19.9525 C   0  0  0  0  0  0  0  0  0  0  0  0
   10.1189   -5.0054   19.6987 C   0  0  0  0  0  0  0  0  0  0  0  0
  1  3  4  0
  1  7  4  0
  2 21  4  0
  2 27  4  0
  3  9  4  0
  3 10  4  0
  4  8  4  0
  4 18  4  0
  4 25  1  0
  5  9  4  0
  5 12  4  0
  6 13  1  0
  6 27  1  0
  7 28  4  0
  8 11  4  0
  9 29  4  0
 10 12  4  0
 11 24  1  0
 11 26  4  0
 12 25  1  0
 13 28  1  0
 14 20  4  0
 14 23  4  0
 15 17  4  0
 15 21  4  0
 16 19  4  0
 16 23  4  0
 17 22  4  0
 18 26  4  0
 19 24  4  0
 20 24  4  0
 22 27  4  0
 28 29  4  0
M  END
$$$$

 Created by Python create_sdf_string function

 29 33  0  0  0  0  0  0  0  0999 V2000
   10.7215   -3.3326   17.6437 C   0  0  0  0  0  0  0  0  0  0  0  0
    9.9489   -3.4675   24.6487 N   0  0  0  0  0  0  0  0  0  0  0  0
   10.0172   -4.4740   17.4101 C   0  0  0  0  0  0  0  0  0  0  0  0
    6.9051   -7.9575   16.4222 C   0  0  0  0  0  0  0  0  0  0  0  0
    8.9969   -6.3552   17.9668 N   0  0  0  0  0  0  0  0  0  0  0  0
   10.6702   -3.9051   22.4070 C   0  0  0  0  0  0  0  0  0  0  0  0
   11.0625   -3.0028   18.8894 C   0  0  0  0  0  0  0  0  0  0  0  0
    5.6180   -7.9194   16.1754 O   0  0  0  0  0  0  0  0  0  0  0  0
    9.7259   -5.3080   18.4485 C   0  0  0  0  0  0  0  0  0  0  0  0
    9.4578   -5.0200   16.3036 N   0  0  0  0  0  0  0  0  0  0  0  0
    5.0287   -8.9365   16.8223 C   0  0  0  0  0  0  0  0  0  0  0  0
    8.7742   -6.1498   16.6764 C   0  0  0  0  0  0  0  0  0  0  0  0
   10.9418   -3.4032   21.2053 O   0  0  0  0  0  0  0  0  0  0  0  0
    1.4797   -8.6258   16.2950 C   0  0  0  0  0  0  0  0  0  0  0  0
    9.2861   -1.2743   25.3585 C   0  0  0  0  0  0  0  0  0  0  0  0
    1.8892  -10.3985   17.7511 N   0  0  0  0  0  0  0  0  0  0  0  0
    9.6210   -0.6952   24.0976 C   0  0  0  0  0  0  0  0  0  0  0  0
    7.0792   -9.0217   17.1429 C   0  0  0  0  0  0  0  0  0  0  0  0
    3.1713  -10.1816   17.6634 C   0  0  0  0  0  0  0  0  0  0  0  0
    2.7878   -8.3822   16.2137 C   0  0  0  0  0  0  0  0  0  0  0  0
    9.4601   -2.6590   25.6528 C   0  0  0  0  0  0  0  0  0  0  0  0
   10.1182   -1.5672   23.1165 C   0  0  0  0  0  0  0  0  0  0  0  0
    1.0552   -9.6360   17.0650 C   0  0  0  0  0  0  0  0  0  0  0  0
    3.6519   -9.1783   16.9039 C   0  0  0  0  0  0  0  0  0  0  0  0
    7.8675   -7.0096   15.9415 C   0  0  0  0  0  0  0  0  0  0  0  0
    5.9733   -9.6553   17.3832 N   0  0  0  0  0  0  0  0  0  0  0  0
   10.2411   -2.9363   23.4301 C   0  0  0  0  0  0  0  0  0  0  0  0
   10.7288   -3.8197   19.9525 C   0  0  0  0  0  0  0  0  0  0  0  0
   10.1189   -5.0054   19.6987 C   0  0  0  0  0  0  0  0  0  0  0  0
  1  3  4  0
  1  7  4  0
  2 21  4  0
  2 27  4  0
  3  9  4  0
  3 10  4  0
  4  8  4  0
  4 18  4  0
  4 25  1  0
  5  9  4  0
  5 12  4  0
  6 13  1  0
  6 27  1  0
  7 28  4  0
  8 11  4  0
  9 29  4  0
 10 12  4  0
 11 24  1  0
 11 26  4  0
 12 25  1  0
 13 28  1  0
 14 20  4  0
 14 23  4  0
 15 17  4  0
 15 21  4  0
 16 19  4  0
 16 23  4  0
 17 22  4  0
 18 26  4  0
 19 24  4  0
 20 24  4  0
 22 27  4  0
 28 29  4  0
M  END
$$$$

 Created by Python create_sdf_string function

 29 33  0  0  0  0  0  0  0  0999 V2000
   10.7215   -3.3326   17.6437 C   0  0  0  0  0  0  0  0  0  0  0  0
    9.9489   -3.4675   24.6487 N   0  0  0  0  0  0  0  0  0  0  0  0
   10.0172   -4.4740   17.4101 C   0  0  0  0  0  0  0  0  0  0  0  0
    6.9051   -7.9575   16.4222 C   0  0  0  0  0  0  0  0  0  0  0  0
    8.9969   -6.3552   17.9668 N   0  0  0  0  0  0  0  0  0  0  0  0
   10.6702   -3.9051   22.4070 C   0  0  0  0  0  0  0  0  0  0  0  0
   11.0625   -3.0028   18.8894 C   0  0  0  0  0  0  0  0  0  0  0  0
    5.6180   -7.9194   16.1754 O   0  0  0  0  0  0  0  0  0  0  0  0
    9.7259   -5.3080   18.4485 C   0  0  0  0  0  0  0  0  0  0  0  0
    9.4578   -5.0200   16.3036 N   0  0  0  0  0  0  0  0  0  0  0  0
    5.0287   -8.9365   16.8223 C   0  0  0  0  0  0  0  0  0  0  0  0
    8.7742   -6.1498   16.6764 C   0  0  0  0  0  0  0  0  0  0  0  0
   10.9418   -3.4032   21.2053 O   0  0  0  0  0  0  0  0  0  0  0  0
    1.4797   -8.6258   16.2950 C   0  0  0  0  0  0  0  0  0  0  0  0
    9.2861   -1.2743   25.3585 C   0  0  0  0  0  0  0  0  0  0  0  0
    1.8892  -10.3985   17.7511 N   0  0  0  0  0  0  0  0  0  0  0  0
    9.6210   -0.6952   24.0976 C   0  0  0  0  0  0  0  0  0  0  0  0
    7.0792   -9.0217   17.1429 C   0  0  0  0  0  0  0  0  0  0  0  0
    3.1713  -10.1816   17.6634 C   0  0  0  0  0  0  0  0  0  0  0  0
    2.7878   -8.3822   16.2137 C   0  0  0  0  0  0  0  0  0  0  0  0
    9.4601   -2.6590   25.6528 C   0  0  0  0  0  0  0  0  0  0  0  0
   10.1182   -1.5672   23.1165 C   0  0  0  0  0  0  0  0  0  0  0  0
    1.0552   -9.6360   17.0650 C   0  0  0  0  0  0  0  0  0  0  0  0
    3.6519   -9.1783   16.9039 C   0  0  0  0  0  0  0  0  0  0  0  0
    7.8675   -7.0096   15.9415 C   0  0  0  0  0  0  0  0  0  0  0  0
    5.9733   -9.6553   17.3832 N   0  0  0  0  0  0  0  0  0  0  0  0
   10.2411   -2.9363   23.4301 C   0  0  0  0  0  0  0  0  0  0  0  0
   10.7288   -3.8197   19.9525 C   0  0  0  0  0  0  0  0  0  0  0  0
   10.1189   -5.0054   19.6987 C   0  0  0  0  0  0  0  0  0  0  0  0
  1  3  4  0
  1  7  4  0
  2 21  4  0
  2 27  4  0
  3  9  4  0
  3 10  4  0
  4  8  4  0
  4 18  4  0
  4 25  1  0
  5  9  4  0
  5 12  4  0
  6 13  1  0
  6 27  1  0
  7 28  4  0
  8 11  4  0
  9 29  4  0
 10 12  4  0
 11 24  1  0
 11 26  4  0
 12 25  1  0
 13 28  1  0
 14 20  4  0
 14 23  4  0
 15 17  4  0
 15 21  4  0
 16 19  4  0
 16 23  4  0
 17 22  4  0
 18 26  4  0
 19 24  4  0
 20 24  4  0
 22 27  4  0
 28 29  4  0
M  END
$$$$

 Created by Python create_sdf_string function

 29 33  0  0  0  0  0  0  0  0999 V2000
   10.7215   -3.3326   17.6437 C   0  0  0  0  0  0  0  0  0  0  0  0
    9.9489   -3.4675   24.6487 N   0  0  0  0  0  0  0  0  0  0  0  0
   10.0172   -4.4740   17.4101 C   0  0  0  0  0  0  0  0  0  0  0  0
    6.9051   -7.9575   16.4222 C   0  0  0  0  0  0  0  0  0  0  0  0
    8.9969   -6.3552   17.9668 N   0  0  0  0  0  0  0  0  0  0  0  0
   10.6702   -3.9051   22.4070 C   0  0  0  0  0  0  0  0  0  0  0  0
   11.0625   -3.0028   18.8894 C   0  0  0  0  0  0  0  0  0  0  0  0
    5.6180   -7.9194   16.1754 O   0  0  0  0  0  0  0  0  0  0  0  0
    9.7259   -5.3080   18.4485 C   0  0  0  0  0  0  0  0  0  0  0  0
    9.4578   -5.0200   16.3036 N   0  0  0  0  0  0  0  0  0  0  0  0
    5.0287   -8.9365   16.8223 C   0  0  0  0  0  0  0  0  0  0  0  0
    8.7742   -6.1498   16.6764 C   0  0  0  0  0  0  0  0  0  0  0  0
   10.9418   -3.4032   21.2053 O   0  0  0  0  0  0  0  0  0  0  0  0
    1.4797   -8.6258   16.2950 C   0  0  0  0  0  0  0  0  0  0  0  0
    9.2861   -1.2743   25.3585 C   0  0  0  0  0  0  0  0  0  0  0  0
    1.8892  -10.3985   17.7511 N   0  0  0  0  0  0  0  0  0  0  0  0
    9.6210   -0.6952   24.0976 C   0  0  0  0  0  0  0  0  0  0  0  0
    7.0792   -9.0217   17.1429 C   0  0  0  0  0  0  0  0  0  0  0  0
    3.1713  -10.1816   17.6634 C   0  0  0  0  0  0  0  0  0  0  0  0
    2.7878   -8.3822   16.2137 C   0  0  0  0  0  0  0  0  0  0  0  0
    9.4601   -2.6590   25.6528 C   0  0  0  0  0  0  0  0  0  0  0  0
   10.1182   -1.5672   23.1165 C   0  0  0  0  0  0  0  0  0  0  0  0
    1.0552   -9.6360   17.0650 C   0  0  0  0  0  0  0  0  0  0  0  0
    3.6519   -9.1783   16.9039 C   0  0  0  0  0  0  0  0  0  0  0  0
    7.8675   -7.0096   15.9415 C   0  0  0  0  0  0  0  0  0  0  0  0
    5.9733   -9.6553   17.3832 N   0  0  0  0  0  0  0  0  0  0  0  0
   10.2411   -2.9363   23.4301 C   0  0  0  0  0  0  0  0  0  0  0  0
   10.7288   -3.8197   19.9525 C   0  0  0  0  0  0  0  0  0  0  0  0
   10.1189   -5.0054   19.6987 C   0  0  0  0  0  0  0  0  0  0  0  0
  1  3  4  0
  1  7  4  0
  2 21  4  0
  2 27  4  0
  3  9  4  0
  3 10  4  0
  4  8  4  0
  4 18  4  0
  4 25  1  0
  5  9  4  0
  5 12  4  0
  6 13  1  0
  6 27  1  0
  7 28  4  0
  8 11  4  0
  9 29  4  0
 10 12  4  0
 11 24  1  0
 11 26  4  0
 12 25  1  0
 13 28  1  0
 14 20  4  0
 14 23  4  0
 15 17  4  0
 15 21  4  0
 16 19  4  0
 16 23  4  0
 17 22  4  0
 18 26  4  0
 19 24  4  0
 20 24  4  0
 22 27  4  0
 28 29  4  0
M  END
$$$$

 Created by Python create_sdf_string function

 29 33  0  0  0  0  0  0  0  0999 V2000
   10.7215   -3.3326   17.6437 C   0  0  0  0  0  0  0  0  0  0  0  0
    9.9489   -3.4675   24.6487 N   0  0  0  0  0  0  0  0  0  0  0  0
   10.0172   -4.4740   17.4101 C   0  0  0  0  0  0  0  0  0  0  0  0
    6.9051   -7.9575   16.4222 C   0  0  0  0  0  0  0  0  0  0  0  0
    8.9969   -6.3552   17.9668 N   0  0  0  0  0  0  0  0  0  0  0  0
   10.6702   -3.9051   22.4070 C   0  0  0  0  0  0  0  0  0  0  0  0
   11.0625   -3.0028   18.8894 C   0  0  0  0  0  0  0  0  0  0  0  0
    5.6180   -7.9194   16.1754 O   0  0  0  0  0  0  0  0  0  0  0  0
    9.7259   -5.3080   18.4485 C   0  0  0  0  0  0  0  0  0  0  0  0
    9.4578   -5.0200   16.3036 N   0  0  0  0  0  0  0  0  0  0  0  0
    5.0287   -8.9365   16.8223 C   0  0  0  0  0  0  0  0  0  0  0  0
    8.7742   -6.1498   16.6764 C   0  0  0  0  0  0  0  0  0  0  0  0
   10.9418   -3.4032   21.2053 O   0  0  0  0  0  0  0  0  0  0  0  0
    1.4797   -8.6258   16.2950 C   0  0  0  0  0  0  0  0  0  0  0  0
    9.2861   -1.2743   25.3585 C   0  0  0  0  0  0  0  0  0  0  0  0
    1.8892  -10.3985   17.7511 N   0  0  0  0  0  0  0  0  0  0  0  0
    9.6210   -0.6952   24.0976 C   0  0  0  0  0  0  0  0  0  0  0  0
    7.0792   -9.0217   17.1429 C   0  0  0  0  0  0  0  0  0  0  0  0
    3.1713  -10.1816   17.6634 C   0  0  0  0  0  0  0  0  0  0  0  0
    2.7878   -8.3822   16.2137 C   0  0  0  0  0  0  0  0  0  0  0  0
    9.4601   -2.6590   25.6528 C   0  0  0  0  0  0  0  0  0  0  0  0
   10.1182   -1.5672   23.1165 C   0  0  0  0  0  0  0  0  0  0  0  0
    1.0552   -9.6360   17.0650 C   0  0  0  0  0  0  0  0  0  0  0  0
    3.6519   -9.1783   16.9039 C   0  0  0  0  0  0  0  0  0  0  0  0
    7.8675   -7.0096   15.9415 C   0  0  0  0  0  0  0  0  0  0  0  0
    5.9733   -9.6553   17.3832 N   0  0  0  0  0  0  0  0  0  0  0  0
   10.2411   -2.9363   23.4301 C   0  0  0  0  0  0  0  0  0  0  0  0
   10.7288   -3.8197   19.9525 C   0  0  0  0  0  0  0  0  0  0  0  0
   10.1189   -5.0054   19.6987 C   0  0  0  0  0  0  0  0  0  0  0  0
  1  3  4  0
  1  7  4  0
  2 21  4  0
  2 27  4  0
  3  9  4  0
  3 10  4  0
  4  8  4  0
  4 18  4  0
  4 25  1  0
  5  9  4  0
  5 12  4  0
  6 13  1  0
  6 27  1  0
  7 28  4  0
  8 11  4  0
  9 29  4  0
 10 12  4  0
 11 24  1  0
 11 26  4  0
 12 25  1  0
 13 28  1  0
 14 20  4  0
 14 23  4  0
 15 17  4  0
 15 21  4  0
 16 19  4  0
 16 23  4  0
 17 22  4  0
 18 26  4  0
 19 24  4  0
 20 24  4  0
 22 27  4  0
 28 29  4  0
M  END
$$$$

 Created by Python create_sdf_string function

 29 33  0  0  0  0  0  0  0  0999 V2000
   10.7215   -3.3326   17.6437 C   0  0  0  0  0  0  0  0  0  0  0  0
    9.9489   -3.4675   24.6487 N   0  0  0  0  0  0  0  0  0  0  0  0
   10.0172   -4.4740   17.4101 C   0  0  0  0  0  0  0  0  0  0  0  0
    6.9051   -7.9575   16.4222 C   0  0  0  0  0  0  0  0  0  0  0  0
    8.9969   -6.3552   17.9668 N   0  0  0  0  0  0  0  0  0  0  0  0
   10.6702   -3.9051   22.4070 C   0  0  0  0  0  0  0  0  0  0  0  0
   11.0625   -3.0028   18.8894 C   0  0  0  0  0  0  0  0  0  0  0  0
    5.6180   -7.9194   16.1754 O   0  0  0  0  0  0  0  0  0  0  0  0
    9.7259   -5.3080   18.4485 C   0  0  0  0  0  0  0  0  0  0  0  0
    9.4578   -5.0200   16.3036 N   0  0  0  0  0  0  0  0  0  0  0  0
    5.0287   -8.9365   16.8223 C   0  0  0  0  0  0  0  0  0  0  0  0
    8.7742   -6.1498   16.6764 C   0  0  0  0  0  0  0  0  0  0  0  0
   10.9418   -3.4032   21.2053 O   0  0  0  0  0  0  0  0  0  0  0  0
    1.4797   -8.6258   16.2950 C   0  0  0  0  0  0  0  0  0  0  0  0
    9.2861   -1.2743   25.3585 C   0  0  0  0  0  0  0  0  0  0  0  0
    1.8892  -10.3985   17.7511 N   0  0  0  0  0  0  0  0  0  0  0  0
    9.6210   -0.6952   24.0976 C   0  0  0  0  0  0  0  0  0  0  0  0
    7.0792   -9.0217   17.1429 C   0  0  0  0  0  0  0  0  0  0  0  0
    3.1713  -10.1816   17.6634 C   0  0  0  0  0  0  0  0  0  0  0  0
    2.7878   -8.3822   16.2137 C   0  0  0  0  0  0  0  0  0  0  0  0
    9.4601   -2.6590   25.6528 C   0  0  0  0  0  0  0  0  0  0  0  0
   10.1182   -1.5672   23.1165 C   0  0  0  0  0  0  0  0  0  0  0  0
    1.0552   -9.6360   17.0650 C   0  0  0  0  0  0  0  0  0  0  0  0
    3.6519   -9.1783   16.9039 C   0  0  0  0  0  0  0  0  0  0  0  0
    7.8675   -7.0096   15.9415 C   0  0  0  0  0  0  0  0  0  0  0  0
    5.9733   -9.6553   17.3832 N   0  0  0  0  0  0  0  0  0  0  0  0
   10.2411   -2.9363   23.4301 C   0  0  0  0  0  0  0  0  0  0  0  0
   10.7288   -3.8197   19.9525 C   0  0  0  0  0  0  0  0  0  0  0  0
   10.1189   -5.0054   19.6987 C   0  0  0  0  0  0  0  0  0  0  0  0
  1  3  4  0
  1  7  4  0
  2 21  4  0
  2 27  4  0
  3  9  4  0
  3 10  4  0
  4  8  4  0
  4 18  4  0
  4 25  1  0
  5  9  4  0
  5 12  4  0
  6 13  1  0
  6 27  1  0
  7 28  4  0
  8 11  4  0
  9 29  4  0
 10 12  4  0
 11 24  1  0
 11 26  4  0
 12 25  1  0
 13 28  1  0
 14 20  4  0
 14 23  4  0
 15 17  4  0
 15 21  4  0
 16 19  4  0
 16 23  4  0
 17 22  4  0
 18 26  4  0
 19 24  4  0
 20 24  4  0
 22 27  4  0
 28 29  4  0
M  END
$$$$

 Created by Python create_sdf_string function

 29 33  0  0  0  0  0  0  0  0999 V2000
   10.7215   -3.3326   17.6437 C   0  0  0  0  0  0  0  0  0  0  0  0
    9.9489   -3.4675   24.6487 N   0  0  0  0  0  0  0  0  0  0  0  0
   10.0172   -4.4740   17.4101 C   0  0  0  0  0  0  0  0  0  0  0  0
    6.9051   -7.9575   16.4222 C   0  0  0  0  0  0  0  0  0  0  0  0
    8.9969   -6.3552   17.9668 N   0  0  0  0  0  0  0  0  0  0  0  0
   10.6702   -3.9051   22.4070 C   0  0  0  0  0  0  0  0  0  0  0  0
   11.0625   -3.0028   18.8894 C   0  0  0  0  0  0  0  0  0  0  0  0
    5.6180   -7.9194   16.1754 O   0  0  0  0  0  0  0  0  0  0  0  0
    9.7259   -5.3080   18.4485 C   0  0  0  0  0  0  0  0  0  0  0  0
    9.4578   -5.0200   16.3036 N   0  0  0  0  0  0  0  0  0  0  0  0
    5.0287   -8.9365   16.8223 C   0  0  0  0  0  0  0  0  0  0  0  0
    8.7742   -6.1498   16.6764 C   0  0  0  0  0  0  0  0  0  0  0  0
   10.9418   -3.4032   21.2053 O   0  0  0  0  0  0  0  0  0  0  0  0
    1.4797   -8.6258   16.2950 C   0  0  0  0  0  0  0  0  0  0  0  0
    9.2861   -1.2743   25.3585 C   0  0  0  0  0  0  0  0  0  0  0  0
    1.8892  -10.3985   17.7511 N   0  0  0  0  0  0  0  0  0  0  0  0
    9.6210   -0.6952   24.0976 C   0  0  0  0  0  0  0  0  0  0  0  0
    7.0792   -9.0217   17.1429 C   0  0  0  0  0  0  0  0  0  0  0  0
    3.1713  -10.1816   17.6634 C   0  0  0  0  0  0  0  0  0  0  0  0
    2.7878   -8.3822   16.2137 C   0  0  0  0  0  0  0  0  0  0  0  0
    9.4601   -2.6590   25.6528 C   0  0  0  0  0  0  0  0  0  0  0  0
   10.1182   -1.5672   23.1165 C   0  0  0  0  0  0  0  0  0  0  0  0
    1.0552   -9.6360   17.0650 C   0  0  0  0  0  0  0  0  0  0  0  0
    3.6519   -9.1783   16.9039 C   0  0  0  0  0  0  0  0  0  0  0  0
    7.8675   -7.0096   15.9415 C   0  0  0  0  0  0  0  0  0  0  0  0
    5.9733   -9.6553   17.3832 N   0  0  0  0  0  0  0  0  0  0  0  0
   10.2411   -2.9363   23.4301 C   0  0  0  0  0  0  0  0  0  0  0  0
   10.7288   -3.8197   19.9525 C   0  0  0  0  0  0  0  0  0  0  0  0
   10.1189   -5.0054   19.6987 C   0  0  0  0  0  0  0  0  0  0  0  0
  1  3  4  0
  1  7  4  0
  2 21  4  0
  2 27  4  0
  3  9  4  0
  3 10  4  0
  4  8  4  0
  4 18  4  0
  4 25  1  0
  5  9  4  0
  5 12  4  0
  6 13  1  0
  6 27  1  0
  7 28  4  0
  8 11  4  0
  9 29  4  0
 10 12  4  0
 11 24  1  0
 11 26  4  0
 12 25  1  0
 13 28  1  0
 14 20  4  0
 14 23  4  0
 15 17  4  0
 15 21  4  0
 16 19  4  0
 16 23  4  0
 17 22  4  0
 18 26  4  0
 19 24  4  0
 20 24  4  0
 22 27  4  0
 28 29  4  0
M  END
$$$$

 Created by Python create_sdf_string function

 29 33  0  0  0  0  0  0  0  0999 V2000
   10.7215   -3.3326   17.6437 C   0  0  0  0  0  0  0  0  0  0  0  0
    9.9489   -3.4675   24.6487 N   0  0  0  0  0  0  0  0  0  0  0  0
   10.0172   -4.4740   17.4101 C   0  0  0  0  0  0  0  0  0  0  0  0
    6.9051   -7.9575   16.4222 C   0  0  0  0  0  0  0  0  0  0  0  0
    8.9969   -6.3552   17.9668 N   0  0  0  0  0  0  0  0  0  0  0  0
   10.6702   -3.9051   22.4070 C   0  0  0  0  0  0  0  0  0  0  0  0
   11.0625   -3.0028   18.8894 C   0  0  0  0  0  0  0  0  0  0  0  0
    5.6180   -7.9194   16.1754 O   0  0  0  0  0  0  0  0  0  0  0  0
    9.7259   -5.3080   18.4485 C   0  0  0  0  0  0  0  0  0  0  0  0
    9.4578   -5.0200   16.3036 N   0  0  0  0  0  0  0  0  0  0  0  0
    5.0287   -8.9365   16.8223 C   0  0  0  0  0  0  0  0  0  0  0  0
    8.7742   -6.1498   16.6764 C   0  0  0  0  0  0  0  0  0  0  0  0
   10.9418   -3.4032   21.2053 O   0  0  0  0  0  0  0  0  0  0  0  0
    1.4797   -8.6258   16.2950 C   0  0  0  0  0  0  0  0  0  0  0  0
    9.2861   -1.2743   25.3585 C   0  0  0  0  0  0  0  0  0  0  0  0
    1.8892  -10.3985   17.7511 N   0  0  0  0  0  0  0  0  0  0  0  0
    9.6210   -0.6952   24.0976 C   0  0  0  0  0  0  0  0  0  0  0  0
    7.0792   -9.0217   17.1429 C   0  0  0  0  0  0  0  0  0  0  0  0
    3.1713  -10.1816   17.6634 C   0  0  0  0  0  0  0  0  0  0  0  0
    2.7878   -8.3822   16.2137 C   0  0  0  0  0  0  0  0  0  0  0  0
    9.4601   -2.6590   25.6528 C   0  0  0  0  0  0  0  0  0  0  0  0
   10.1182   -1.5672   23.1165 C   0  0  0  0  0  0  0  0  0  0  0  0
    1.0552   -9.6360   17.0650 C   0  0  0  0  0  0  0  0  0  0  0  0
    3.6519   -9.1783   16.9039 C   0  0  0  0  0  0  0  0  0  0  0  0
    7.8675   -7.0096   15.9415 C   0  0  0  0  0  0  0  0  0  0  0  0
    5.9733   -9.6553   17.3832 N   0  0  0  0  0  0  0  0  0  0  0  0
   10.2411   -2.9363   23.4301 C   0  0  0  0  0  0  0  0  0  0  0  0
   10.7288   -3.8197   19.9525 C   0  0  0  0  0  0  0  0  0  0  0  0
   10.1189   -5.0054   19.6987 C   0  0  0  0  0  0  0  0  0  0  0  0
  1  3  4  0
  1  7  4  0
  2 21  4  0
  2 27  4  0
  3  9  4  0
  3 10  4  0
  4  8  4  0
  4 18  4  0
  4 25  1  0
  5  9  4  0
  5 12  4  0
  6 13  1  0
  6 27  1  0
  7 28  4  0
  8 11  4  0
  9 29  4  0
 10 12  4  0
 11 24  1  0
 11 26  4  0
 12 25  1  0
 13 28  1  0
 14 20  4  0
 14 23  4  0
 15 17  4  0
 15 21  4  0
 16 19  4  0
 16 23  4  0
 17 22  4  0
 18 26  4  0
 19 24  4  0
 20 24  4  0
 22 27  4  0
 28 29  4  0
M  END
$$$$

 Created by Python create_sdf_string function

 29 33  0  0  0  0  0  0  0  0999 V2000
   10.7215   -3.3326   17.6437 C   0  0  0  0  0  0  0  0  0  0  0  0
    9.9489   -3.4675   24.6487 N   0  0  0  0  0  0  0  0  0  0  0  0
   10.0172   -4.4740   17.4101 C   0  0  0  0  0  0  0  0  0  0  0  0
    6.9051   -7.9575   16.4222 C   0  0  0  0  0  0  0  0  0  0  0  0
    8.9969   -6.3552   17.9668 N   0  0  0  0  0  0  0  0  0  0  0  0
   10.6702   -3.9051   22.4070 C   0  0  0  0  0  0  0  0  0  0  0  0
   11.0625   -3.0028   18.8894 C   0  0  0  0  0  0  0  0  0  0  0  0
    5.6180   -7.9194   16.1754 O   0  0  0  0  0  0  0  0  0  0  0  0
    9.7259   -5.3080   18.4485 C   0  0  0  0  0  0  0  0  0  0  0  0
    9.4578   -5.0200   16.3036 N   0  0  0  0  0  0  0  0  0  0  0  0
    5.0287   -8.9365   16.8223 C   0  0  0  0  0  0  0  0  0  0  0  0
    8.7742   -6.1498   16.6764 C   0  0  0  0  0  0  0  0  0  0  0  0
   10.9418   -3.4032   21.2053 O   0  0  0  0  0  0  0  0  0  0  0  0
    1.4797   -8.6258   16.2950 C   0  0  0  0  0  0  0  0  0  0  0  0
    9.2861   -1.2743   25.3585 C   0  0  0  0  0  0  0  0  0  0  0  0
    1.8892  -10.3985   17.7511 N   0  0  0  0  0  0  0  0  0  0  0  0
    9.6210   -0.6952   24.0976 C   0  0  0  0  0  0  0  0  0  0  0  0
    7.0792   -9.0217   17.1429 C   0  0  0  0  0  0  0  0  0  0  0  0
    3.1713  -10.1816   17.6634 C   0  0  0  0  0  0  0  0  0  0  0  0
    2.7878   -8.3822   16.2137 C   0  0  0  0  0  0  0  0  0  0  0  0
    9.4601   -2.6590   25.6528 C   0  0  0  0  0  0  0  0  0  0  0  0
   10.1182   -1.5672   23.1165 C   0  0  0  0  0  0  0  0  0  0  0  0
    1.0552   -9.6360   17.0650 C   0  0  0  0  0  0  0  0  0  0  0  0
    3.6519   -9.1783   16.9039 C   0  0  0  0  0  0  0  0  0  0  0  0
    7.8675   -7.0096   15.9415 C   0  0  0  0  0  0  0  0  0  0  0  0
    5.9733   -9.6553   17.3832 N   0  0  0  0  0  0  0  0  0  0  0  0
   10.2411   -2.9363   23.4301 C   0  0  0  0  0  0  0  0  0  0  0  0
   10.7288   -3.8197   19.9525 C   0  0  0  0  0  0  0  0  0  0  0  0
   10.1189   -5.0054   19.6987 C   0  0  0  0  0  0  0  0  0  0  0  0
  1  3  4  0
  1  7  4  0
  2 21  4  0
  2 27  4  0
  3  9  4  0
  3 10  4  0
  4  8  4  0
  4 18  4  0
  4 25  1  0
  5  9  4  0
  5 12  4  0
  6 13  1  0
  6 27  1  0
  7 28  4  0
  8 11  4  0
  9 29  4  0
 10 12  4  0
 11 24  1  0
 11 26  4  0
 12 25  1  0
 13 28  1  0
 14 20  4  0
 14 23  4  0
 15 17  4  0
 15 21  4  0
 16 19  4  0
 16 23  4  0
 17 22  4  0
 18 26  4  0
 19 24  4  0
 20 24  4  0
 22 27  4  0
 28 29  4  0
M  END
$$$$

 Created by Python create_sdf_string function

 29 33  0  0  0  0  0  0  0  0999 V2000
   10.7215   -3.3326   17.6437 C   0  0  0  0  0  0  0  0  0  0  0  0
    9.9489   -3.4675   24.6487 N   0  0  0  0  0  0  0  0  0  0  0  0
   10.0172   -4.4740   17.4101 C   0  0  0  0  0  0  0  0  0  0  0  0
    6.9051   -7.9575   16.4222 C   0  0  0  0  0  0  0  0  0  0  0  0
    8.9969   -6.3552   17.9668 N   0  0  0  0  0  0  0  0  0  0  0  0
   10.6702   -3.9051   22.4070 C   0  0  0  0  0  0  0  0  0  0  0  0
   11.0625   -3.0028   18.8894 C   0  0  0  0  0  0  0  0  0  0  0  0
    5.6180   -7.9194   16.1754 O   0  0  0  0  0  0  0  0  0  0  0  0
    9.7259   -5.3080   18.4485 C   0  0  0  0  0  0  0  0  0  0  0  0
    9.4578   -5.0200   16.3036 N   0  0  0  0  0  0  0  0  0  0  0  0
    5.0287   -8.9365   16.8223 C   0  0  0  0  0  0  0  0  0  0  0  0
    8.7742   -6.1498   16.6764 C   0  0  0  0  0  0  0  0  0  0  0  0
   10.9418   -3.4032   21.2053 O   0  0  0  0  0  0  0  0  0  0  0  0
    1.4797   -8.6258   16.2950 C   0  0  0  0  0  0  0  0  0  0  0  0
    9.2861   -1.2743   25.3585 C   0  0  0  0  0  0  0  0  0  0  0  0
    1.8892  -10.3985   17.7511 N   0  0  0  0  0  0  0  0  0  0  0  0
    9.6210   -0.6952   24.0976 C   0  0  0  0  0  0  0  0  0  0  0  0
    7.0792   -9.0217   17.1429 C   0  0  0  0  0  0  0  0  0  0  0  0
    3.1713  -10.1816   17.6634 C   0  0  0  0  0  0  0  0  0  0  0  0
    2.7878   -8.3822   16.2137 C   0  0  0  0  0  0  0  0  0  0  0  0
    9.4601   -2.6590   25.6528 C   0  0  0  0  0  0  0  0  0  0  0  0
   10.1182   -1.5672   23.1165 C   0  0  0  0  0  0  0  0  0  0  0  0
    1.0552   -9.6360   17.0650 C   0  0  0  0  0  0  0  0  0  0  0  0
    3.6519   -9.1783   16.9039 C   0  0  0  0  0  0  0  0  0  0  0  0
    7.8675   -7.0096   15.9415 C   0  0  0  0  0  0  0  0  0  0  0  0
    5.9733   -9.6553   17.3832 N   0  0  0  0  0  0  0  0  0  0  0  0
   10.2411   -2.9363   23.4301 C   0  0  0  0  0  0  0  0  0  0  0  0
   10.7288   -3.8197   19.9525 C   0  0  0  0  0  0  0  0  0  0  0  0
   10.1189   -5.0054   19.6987 C   0  0  0  0  0  0  0  0  0  0  0  0
  1  3  4  0
  1  7  4  0
  2 21  4  0
  2 27  4  0
  3  9  4  0
  3 10  4  0
  4  8  4  0
  4 18  4  0
  4 25  1  0
  5  9  4  0
  5 12  4  0
  6 13  1  0
  6 27  1  0
  7 28  4  0
  8 11  4  0
  9 29  4  0
 10 12  4  0
 11 24  1  0
 11 26  4  0
 12 25  1  0
 13 28  1  0
 14 20  4  0
 14 23  4  0
 15 17  4  0
 15 21  4  0
 16 19  4  0
 16 23  4  0
 17 22  4  0
 18 26  4  0
 19 24  4  0
 20 24  4  0
 22 27  4  0
 28 29  4  0
M  END
$$$$

 Created by Python create_sdf_string function

 29 33  0  0  0  0  0  0  0  0999 V2000
   10.7215   -3.3326   17.6437 C   0  0  0  0  0  0  0  0  0  0  0  0
    9.9489   -3.4675   24.6487 N   0  0  0  0  0  0  0  0  0  0  0  0
   10.0172   -4.4740   17.4101 C   0  0  0  0  0  0  0  0  0  0  0  0
    6.9051   -7.9575   16.4222 C   0  0  0  0  0  0  0  0  0  0  0  0
    8.9969   -6.3552   17.9668 N   0  0  0  0  0  0  0  0  0  0  0  0
   10.6702   -3.9051   22.4070 C   0  0  0  0  0  0  0  0  0  0  0  0
   11.0625   -3.0028   18.8894 C   0  0  0  0  0  0  0  0  0  0  0  0
    5.6180   -7.9194   16.1754 O   0  0  0  0  0  0  0  0  0  0  0  0
    9.7259   -5.3080   18.4485 C   0  0  0  0  0  0  0  0  0  0  0  0
    9.4578   -5.0200   16.3036 N   0  0  0  0  0  0  0  0  0  0  0  0
    5.0287   -8.9365   16.8223 C   0  0  0  0  0  0  0  0  0  0  0  0
    8.7742   -6.1498   16.6764 C   0  0  0  0  0  0  0  0  0  0  0  0
   10.9418   -3.4032   21.2053 O   0  0  0  0  0  0  0  0  0  0  0  0
    1.4797   -8.6258   16.2950 C   0  0  0  0  0  0  0  0  0  0  0  0
    9.2861   -1.2743   25.3585 C   0  0  0  0  0  0  0  0  0  0  0  0
    1.8892  -10.3985   17.7511 N   0  0  0  0  0  0  0  0  0  0  0  0
    9.6210   -0.6952   24.0976 C   0  0  0  0  0  0  0  0  0  0  0  0
    7.0792   -9.0217   17.1429 C   0  0  0  0  0  0  0  0  0  0  0  0
    3.1713  -10.1816   17.6634 C   0  0  0  0  0  0  0  0  0  0  0  0
    2.7878   -8.3822   16.2137 C   0  0  0  0  0  0  0  0  0  0  0  0
    9.4601   -2.6590   25.6528 C   0  0  0  0  0  0  0  0  0  0  0  0
   10.1182   -1.5672   23.1165 C   0  0  0  0  0  0  0  0  0  0  0  0
    1.0552   -9.6360   17.0650 C   0  0  0  0  0  0  0  0  0  0  0  0
    3.6519   -9.1783   16.9039 C   0  0  0  0  0  0  0  0  0  0  0  0
    7.8675   -7.0096   15.9415 C   0  0  0  0  0  0  0  0  0  0  0  0
    5.9733   -9.6553   17.3832 N   0  0  0  0  0  0  0  0  0  0  0  0
   10.2411   -2.9363   23.4301 C   0  0  0  0  0  0  0  0  0  0  0  0
   10.7288   -3.8197   19.9525 C   0  0  0  0  0  0  0  0  0  0  0  0
   10.1189   -5.0054   19.6987 C   0  0  0  0  0  0  0  0  0  0  0  0
  1  3  4  0
  1  7  4  0
  2 21  4  0
  2 27  4  0
  3  9  4  0
  3 10  4  0
  4  8  4  0
  4 18  4  0
  4 25  1  0
  5  9  4  0
  5 12  4  0
  6 13  1  0
  6 27  1  0
  7 28  4  0
  8 11  4  0
  9 29  4  0
 10 12  4  0
 11 24  1  0
 11 26  4  0
 12 25  1  0
 13 28  1  0
 14 20  4  0
 14 23  4  0
 15 17  4  0
 15 21  4  0
 16 19  4  0
 16 23  4  0
 17 22  4  0
 18 26  4  0
 19 24  4  0
 20 24  4  0
 22 27  4  0
 28 29  4  0
M  END
$$$$

 Created by Python create_sdf_string function

 29 33  0  0  0  0  0  0  0  0999 V2000
   10.7215   -3.3326   17.6437 C   0  0  0  0  0  0  0  0  0  0  0  0
    9.9489   -3.4675   24.6487 N   0  0  0  0  0  0  0  0  0  0  0  0
   10.0172   -4.4740   17.4101 C   0  0  0  0  0  0  0  0  0  0  0  0
    6.9051   -7.9575   16.4222 C   0  0  0  0  0  0  0  0  0  0  0  0
    8.9969   -6.3552   17.9668 N   0  0  0  0  0  0  0  0  0  0  0  0
   10.6702   -3.9051   22.4070 C   0  0  0  0  0  0  0  0  0  0  0  0
   11.0625   -3.0028   18.8894 C   0  0  0  0  0  0  0  0  0  0  0  0
    5.6180   -7.9194   16.1754 O   0  0  0  0  0  0  0  0  0  0  0  0
    9.7259   -5.3080   18.4485 C   0  0  0  0  0  0  0  0  0  0  0  0
    9.4578   -5.0200   16.3036 N   0  0  0  0  0  0  0  0  0  0  0  0
    5.0287   -8.9365   16.8223 C   0  0  0  0  0  0  0  0  0  0  0  0
    8.7742   -6.1498   16.6764 C   0  0  0  0  0  0  0  0  0  0  0  0
   10.9418   -3.4032   21.2053 O   0  0  0  0  0  0  0  0  0  0  0  0
    1.4797   -8.6258   16.2950 C   0  0  0  0  0  0  0  0  0  0  0  0
    9.2861   -1.2743   25.3585 C   0  0  0  0  0  0  0  0  0  0  0  0
    1.8892  -10.3985   17.7511 N   0  0  0  0  0  0  0  0  0  0  0  0
    9.6210   -0.6952   24.0976 C   0  0  0  0  0  0  0  0  0  0  0  0
    7.0792   -9.0217   17.1429 C   0  0  0  0  0  0  0  0  0  0  0  0
    3.1713  -10.1816   17.6634 C   0  0  0  0  0  0  0  0  0  0  0  0
    2.7878   -8.3822   16.2137 C   0  0  0  0  0  0  0  0  0  0  0  0
    9.4601   -2.6590   25.6528 C   0  0  0  0  0  0  0  0  0  0  0  0
   10.1182   -1.5672   23.1165 C   0  0  0  0  0  0  0  0  0  0  0  0
    1.0552   -9.6360   17.0650 C   0  0  0  0  0  0  0  0  0  0  0  0
    3.6519   -9.1783   16.9039 C   0  0  0  0  0  0  0  0  0  0  0  0
    7.8675   -7.0096   15.9415 C   0  0  0  0  0  0  0  0  0  0  0  0
    5.9733   -9.6553   17.3832 N   0  0  0  0  0  0  0  0  0  0  0  0
   10.2411   -2.9363   23.4301 C   0  0  0  0  0  0  0  0  0  0  0  0
   10.7288   -3.8197   19.9525 C   0  0  0  0  0  0  0  0  0  0  0  0
   10.1189   -5.0054   19.6987 C   0  0  0  0  0  0  0  0  0  0  0  0
  1  3  4  0
  1  7  4  0
  2 21  4  0
  2 27  4  0
  3  9  4  0
  3 10  4  0
  4  8  4  0
  4 18  4  0
  4 25  1  0
  5  9  4  0
  5 12  4  0
  6 13  1  0
  6 27  1  0
  7 28  4  0
  8 11  4  0
  9 29  4  0
 10 12  4  0
 11 24  1  0
 11 26  4  0
 12 25  1  0
 13 28  1  0
 14 20  4  0
 14 23  4  0
 15 17  4  0
 15 21  4  0
 16 19  4  0
 16 23  4  0
 17 22  4  0
 18 26  4  0
 19 24  4  0
 20 24  4  0
 22 27  4  0
 28 29  4  0
M  END
$$$$

 Created by Python create_sdf_string function

 29 33  0  0  0  0  0  0  0  0999 V2000
   10.7215   -3.3326   17.6437 C   0  0  0  0  0  0  0  0  0  0  0  0
    9.9489   -3.4675   24.6487 N   0  0  0  0  0  0  0  0  0  0  0  0
   10.0172   -4.4740   17.4101 C   0  0  0  0  0  0  0  0  0  0  0  0
    6.9051   -7.9575   16.4222 C   0  0  0  0  0  0  0  0  0  0  0  0
    8.9969   -6.3552   17.9668 N   0  0  0  0  0  0  0  0  0  0  0  0
   10.6702   -3.9051   22.4070 C   0  0  0  0  0  0  0  0  0  0  0  0
   11.0625   -3.0028   18.8894 C   0  0  0  0  0  0  0  0  0  0  0  0
    5.6180   -7.9194   16.1754 O   0  0  0  0  0  0  0  0  0  0  0  0
    9.7259   -5.3080   18.4485 C   0  0  0  0  0  0  0  0  0  0  0  0
    9.4578   -5.0200   16.3036 N   0  0  0  0  0  0  0  0  0  0  0  0
    5.0287   -8.9365   16.8223 C   0  0  0  0  0  0  0  0  0  0  0  0
    8.7742   -6.1498   16.6764 C   0  0  0  0  0  0  0  0  0  0  0  0
   10.9418   -3.4032   21.2053 O   0  0  0  0  0  0  0  0  0  0  0  0
    1.4797   -8.6258   16.2950 C   0  0  0  0  0  0  0  0  0  0  0  0
    9.2861   -1.2743   25.3585 C   0  0  0  0  0  0  0  0  0  0  0  0
    1.8892  -10.3985   17.7511 N   0  0  0  0  0  0  0  0  0  0  0  0
    9.6210   -0.6952   24.0976 C   0  0  0  0  0  0  0  0  0  0  0  0
    7.0792   -9.0217   17.1429 C   0  0  0  0  0  0  0  0  0  0  0  0
    3.1713  -10.1816   17.6634 C   0  0  0  0  0  0  0  0  0  0  0  0
    2.7878   -8.3822   16.2137 C   0  0  0  0  0  0  0  0  0  0  0  0
    9.4601   -2.6590   25.6528 C   0  0  0  0  0  0  0  0  0  0  0  0
   10.1182   -1.5672   23.1165 C   0  0  0  0  0  0  0  0  0  0  0  0
    1.0552   -9.6360   17.0650 C   0  0  0  0  0  0  0  0  0  0  0  0
    3.6519   -9.1783   16.9039 C   0  0  0  0  0  0  0  0  0  0  0  0
    7.8675   -7.0096   15.9415 C   0  0  0  0  0  0  0  0  0  0  0  0
    5.9733   -9.6553   17.3832 N   0  0  0  0  0  0  0  0  0  0  0  0
   10.2411   -2.9363   23.4301 C   0  0  0  0  0  0  0  0  0  0  0  0
   10.7288   -3.8197   19.9525 C   0  0  0  0  0  0  0  0  0  0  0  0
   10.1189   -5.0054   19.6987 C   0  0  0  0  0  0  0  0  0  0  0  0
  1  3  4  0
  1  7  4  0
  2 21  4  0
  2 27  4  0
  3  9  4  0
  3 10  4  0
  4  8  4  0
  4 18  4  0
  4 25  1  0
  5  9  4  0
  5 12  4  0
  6 13  1  0
  6 27  1  0
  7 28  4  0
  8 11  4  0
  9 29  4  0
 10 12  4  0
 11 24  1  0
 11 26  4  0
 12 25  1  0
 13 28  1  0
 14 20  4  0
 14 23  4  0
 15 17  4  0
 15 21  4  0
 16 19  4  0
 16 23  4  0
 17 22  4  0
 18 26  4  0
 19 24  4  0
 20 24  4  0
 22 27  4  0
 28 29  4  0
M  END
$$$$

 Created by Python create_sdf_string function

 29 33  0  0  0  0  0  0  0  0999 V2000
   10.7215   -3.3326   17.6437 C   0  0  0  0  0  0  0  0  0  0  0  0
    9.9489   -3.4675   24.6487 N   0  0  0  0  0  0  0  0  0  0  0  0
   10.0172   -4.4740   17.4101 C   0  0  0  0  0  0  0  0  0  0  0  0
    6.9051   -7.9575   16.4222 C   0  0  0  0  0  0  0  0  0  0  0  0
    8.9969   -6.3552   17.9668 N   0  0  0  0  0  0  0  0  0  0  0  0
   10.6702   -3.9051   22.4070 C   0  0  0  0  0  0  0  0  0  0  0  0
   11.0625   -3.0028   18.8894 C   0  0  0  0  0  0  0  0  0  0  0  0
    5.6180   -7.9194   16.1754 O   0  0  0  0  0  0  0  0  0  0  0  0
    9.7259   -5.3080   18.4485 C   0  0  0  0  0  0  0  0  0  0  0  0
    9.4578   -5.0200   16.3036 N   0  0  0  0  0  0  0  0  0  0  0  0
    5.0287   -8.9365   16.8223 C   0  0  0  0  0  0  0  0  0  0  0  0
    8.7742   -6.1498   16.6764 C   0  0  0  0  0  0  0  0  0  0  0  0
   10.9418   -3.4032   21.2053 O   0  0  0  0  0  0  0  0  0  0  0  0
    1.4797   -8.6258   16.2950 C   0  0  0  0  0  0  0  0  0  0  0  0
    9.2861   -1.2743   25.3585 C   0  0  0  0  0  0  0  0  0  0  0  0
    1.8892  -10.3985   17.7511 N   0  0  0  0  0  0  0  0  0  0  0  0
    9.6210   -0.6952   24.0976 C   0  0  0  0  0  0  0  0  0  0  0  0
    7.0792   -9.0217   17.1429 C   0  0  0  0  0  0  0  0  0  0  0  0
    3.1713  -10.1816   17.6634 C   0  0  0  0  0  0  0  0  0  0  0  0
    2.7878   -8.3822   16.2137 C   0  0  0  0  0  0  0  0  0  0  0  0
    9.4601   -2.6590   25.6528 C   0  0  0  0  0  0  0  0  0  0  0  0
   10.1182   -1.5672   23.1165 C   0  0  0  0  0  0  0  0  0  0  0  0
    1.0552   -9.6360   17.0650 C   0  0  0  0  0  0  0  0  0  0  0  0
    3.6519   -9.1783   16.9039 C   0  0  0  0  0  0  0  0  0  0  0  0
    7.8675   -7.0096   15.9415 C   0  0  0  0  0  0  0  0  0  0  0  0
    5.9733   -9.6553   17.3832 N   0  0  0  0  0  0  0  0  0  0  0  0
   10.2411   -2.9363   23.4301 C   0  0  0  0  0  0  0  0  0  0  0  0
   10.7288   -3.8197   19.9525 C   0  0  0  0  0  0  0  0  0  0  0  0
   10.1189   -5.0054   19.6987 C   0  0  0  0  0  0  0  0  0  0  0  0
  1  3  4  0
  1  7  4  0
  2 21  4  0
  2 27  4  0
  3  9  4  0
  3 10  4  0
  4  8  4  0
  4 18  4  0
  4 25  1  0
  5  9  4  0
  5 12  4  0
  6 13  1  0
  6 27  1  0
  7 28  4  0
  8 11  4  0
  9 29  4  0
 10 12  4  0
 11 24  1  0
 11 26  4  0
 12 25  1  0
 13 28  1  0
 14 20  4  0
 14 23  4  0
 15 17  4  0
 15 21  4  0
 16 19  4  0
 16 23  4  0
 17 22  4  0
 18 26  4  0
 19 24  4  0
 20 24  4  0
 22 27  4  0
 28 29  4  0
M  END
$$$$

 Created by Python create_sdf_string function

 29 33  0  0  0  0  0  0  0  0999 V2000
   10.7215   -3.3326   17.6437 C   0  0  0  0  0  0  0  0  0  0  0  0
    9.9489   -3.4675   24.6487 N   0  0  0  0  0  0  0  0  0  0  0  0
   10.0172   -4.4740   17.4101 C   0  0  0  0  0  0  0  0  0  0  0  0
    6.9051   -7.9575   16.4222 C   0  0  0  0  0  0  0  0  0  0  0  0
    8.9969   -6.3552   17.9668 N   0  0  0  0  0  0  0  0  0  0  0  0
   10.6702   -3.9051   22.4070 C   0  0  0  0  0  0  0  0  0  0  0  0
   11.0625   -3.0028   18.8894 C   0  0  0  0  0  0  0  0  0  0  0  0
    5.6180   -7.9194   16.1754 O   0  0  0  0  0  0  0  0  0  0  0  0
    9.7259   -5.3080   18.4485 C   0  0  0  0  0  0  0  0  0  0  0  0
    9.4578   -5.0200   16.3036 N   0  0  0  0  0  0  0  0  0  0  0  0
    5.0287   -8.9365   16.8223 C   0  0  0  0  0  0  0  0  0  0  0  0
    8.7742   -6.1498   16.6764 C   0  0  0  0  0  0  0  0  0  0  0  0
   10.9418   -3.4032   21.2053 O   0  0  0  0  0  0  0  0  0  0  0  0
    1.4797   -8.6258   16.2950 C   0  0  0  0  0  0  0  0  0  0  0  0
    9.2861   -1.2743   25.3585 C   0  0  0  0  0  0  0  0  0  0  0  0
    1.8892  -10.3985   17.7511 N   0  0  0  0  0  0  0  0  0  0  0  0
    9.6210   -0.6952   24.0976 C   0  0  0  0  0  0  0  0  0  0  0  0
    7.0792   -9.0217   17.1429 C   0  0  0  0  0  0  0  0  0  0  0  0
    3.1713  -10.1816   17.6634 C   0  0  0  0  0  0  0  0  0  0  0  0
    2.7878   -8.3822   16.2137 C   0  0  0  0  0  0  0  0  0  0  0  0
    9.4601   -2.6590   25.6528 C   0  0  0  0  0  0  0  0  0  0  0  0
   10.1182   -1.5672   23.1165 C   0  0  0  0  0  0  0  0  0  0  0  0
    1.0552   -9.6360   17.0650 C   0  0  0  0  0  0  0  0  0  0  0  0
    3.6519   -9.1783   16.9039 C   0  0  0  0  0  0  0  0  0  0  0  0
    7.8675   -7.0096   15.9415 C   0  0  0  0  0  0  0  0  0  0  0  0
    5.9733   -9.6553   17.3832 N   0  0  0  0  0  0  0  0  0  0  0  0
   10.2411   -2.9363   23.4301 C   0  0  0  0  0  0  0  0  0  0  0  0
   10.7288   -3.8197   19.9525 C   0  0  0  0  0  0  0  0  0  0  0  0
   10.1189   -5.0054   19.6987 C   0  0  0  0  0  0  0  0  0  0  0  0
  1  3  4  0
  1  7  4  0
  2 21  4  0
  2 27  4  0
  3  9  4  0
  3 10  4  0
  4  8  4  0
  4 18  4  0
  4 25  1  0
  5  9  4  0
  5 12  4  0
  6 13  1  0
  6 27  1  0
  7 28  4  0
  8 11  4  0
  9 29  4  0
 10 12  4  0
 11 24  1  0
 11 26  4  0
 12 25  1  0
 13 28  1  0
 14 20  4  0
 14 23  4  0
 15 17  4  0
 15 21  4  0
 16 19  4  0
 16 23  4  0
 17 22  4  0
 18 26  4  0
 19 24  4  0
 20 24  4  0
 22 27  4  0
 28 29  4  0
M  END
$$$$

 Created by Python create_sdf_string function

 29 33  0  0  0  0  0  0  0  0999 V2000
   10.7215   -3.3326   17.6437 C   0  0  0  0  0  0  0  0  0  0  0  0
    9.9489   -3.4675   24.6487 N   0  0  0  0  0  0  0  0  0  0  0  0
   10.0172   -4.4740   17.4101 C   0  0  0  0  0  0  0  0  0  0  0  0
    6.9051   -7.9575   16.4222 C   0  0  0  0  0  0  0  0  0  0  0  0
    8.9969   -6.3552   17.9668 N   0  0  0  0  0  0  0  0  0  0  0  0
   10.6702   -3.9051   22.4070 C   0  0  0  0  0  0  0  0  0  0  0  0
   11.0625   -3.0028   18.8894 C   0  0  0  0  0  0  0  0  0  0  0  0
    5.6180   -7.9194   16.1754 O   0  0  0  0  0  0  0  0  0  0  0  0
    9.7259   -5.3080   18.4485 C   0  0  0  0  0  0  0  0  0  0  0  0
    9.4578   -5.0200   16.3036 N   0  0  0  0  0  0  0  0  0  0  0  0
    5.0287   -8.9365   16.8223 C   0  0  0  0  0  0  0  0  0  0  0  0
    8.7742   -6.1498   16.6764 C   0  0  0  0  0  0  0  0  0  0  0  0
   10.9418   -3.4032   21.2053 O   0  0  0  0  0  0  0  0  0  0  0  0
    1.4797   -8.6258   16.2950 C   0  0  0  0  0  0  0  0  0  0  0  0
    9.2861   -1.2743   25.3585 C   0  0  0  0  0  0  0  0  0  0  0  0
    1.8892  -10.3985   17.7511 N   0  0  0  0  0  0  0  0  0  0  0  0
    9.6210   -0.6952   24.0976 C   0  0  0  0  0  0  0  0  0  0  0  0
    7.0792   -9.0217   17.1429 C   0  0  0  0  0  0  0  0  0  0  0  0
    3.1713  -10.1816   17.6634 C   0  0  0  0  0  0  0  0  0  0  0  0
    2.7878   -8.3822   16.2137 C   0  0  0  0  0  0  0  0  0  0  0  0
    9.4601   -2.6590   25.6528 C   0  0  0  0  0  0  0  0  0  0  0  0
   10.1182   -1.5672   23.1165 C   0  0  0  0  0  0  0  0  0  0  0  0
    1.0552   -9.6360   17.0650 C   0  0  0  0  0  0  0  0  0  0  0  0
    3.6519   -9.1783   16.9039 C   0  0  0  0  0  0  0  0  0  0  0  0
    7.8675   -7.0096   15.9415 C   0  0  0  0  0  0  0  0  0  0  0  0
    5.9733   -9.6553   17.3832 N   0  0  0  0  0  0  0  0  0  0  0  0
   10.2411   -2.9363   23.4301 C   0  0  0  0  0  0  0  0  0  0  0  0
   10.7288   -3.8197   19.9525 C   0  0  0  0  0  0  0  0  0  0  0  0
   10.1189   -5.0054   19.6987 C   0  0  0  0  0  0  0  0  0  0  0  0
  1  3  4  0
  1  7  4  0
  2 21  4  0
  2 27  4  0
  3  9  4  0
  3 10  4  0
  4  8  4  0
  4 18  4  0
  4 25  1  0
  5  9  4  0
  5 12  4  0
  6 13  1  0
  6 27  1  0
  7 28  4  0
  8 11  4  0
  9 29  4  0
 10 12  4  0
 11 24  1  0
 11 26  4  0
 12 25  1  0
 13 28  1  0
 14 20  4  0
 14 23  4  0
 15 17  4  0
 15 21  4  0
 16 19  4  0
 16 23  4  0
 17 22  4  0
 18 26  4  0
 19 24  4  0
 20 24  4  0
 22 27  4  0
 28 29  4  0
M  END
$$$$

 Created by Python create_sdf_string function

 29 33  0  0  0  0  0  0  0  0999 V2000
   10.7215   -3.3326   17.6437 C   0  0  0  0  0  0  0  0  0  0  0  0
    9.9489   -3.4675   24.6487 N   0  0  0  0  0  0  0  0  0  0  0  0
   10.0172   -4.4740   17.4101 C   0  0  0  0  0  0  0  0  0  0  0  0
    6.9051   -7.9575   16.4222 C   0  0  0  0  0  0  0  0  0  0  0  0
    8.9969   -6.3552   17.9668 N   0  0  0  0  0  0  0  0  0  0  0  0
   10.6702   -3.9051   22.4070 C   0  0  0  0  0  0  0  0  0  0  0  0
   11.0625   -3.0028   18.8894 C   0  0  0  0  0  0  0  0  0  0  0  0
    5.6180   -7.9194   16.1754 O   0  0  0  0  0  0  0  0  0  0  0  0
    9.7259   -5.3080   18.4485 C   0  0  0  0  0  0  0  0  0  0  0  0
    9.4578   -5.0200   16.3036 N   0  0  0  0  0  0  0  0  0  0  0  0
    5.0287   -8.9365   16.8223 C   0  0  0  0  0  0  0  0  0  0  0  0
    8.7742   -6.1498   16.6764 C   0  0  0  0  0  0  0  0  0  0  0  0
   10.9418   -3.4032   21.2053 O   0  0  0  0  0  0  0  0  0  0  0  0
    1.4797   -8.6258   16.2950 C   0  0  0  0  0  0  0  0  0  0  0  0
    9.2861   -1.2743   25.3585 C   0  0  0  0  0  0  0  0  0  0  0  0
    1.8892  -10.3985   17.7511 N   0  0  0  0  0  0  0  0  0  0  0  0
    9.6210   -0.6952   24.0976 C   0  0  0  0  0  0  0  0  0  0  0  0
    7.0792   -9.0217   17.1429 C   0  0  0  0  0  0  0  0  0  0  0  0
    3.1713  -10.1816   17.6634 C   0  0  0  0  0  0  0  0  0  0  0  0
    2.7878   -8.3822   16.2137 C   0  0  0  0  0  0  0  0  0  0  0  0
    9.4601   -2.6590   25.6528 C   0  0  0  0  0  0  0  0  0  0  0  0
   10.1182   -1.5672   23.1165 C   0  0  0  0  0  0  0  0  0  0  0  0
    1.0552   -9.6360   17.0650 C   0  0  0  0  0  0  0  0  0  0  0  0
    3.6519   -9.1783   16.9039 C   0  0  0  0  0  0  0  0  0  0  0  0
    7.8675   -7.0096   15.9415 C   0  0  0  0  0  0  0  0  0  0  0  0
    5.9733   -9.6553   17.3832 N   0  0  0  0  0  0  0  0  0  0  0  0
   10.2411   -2.9363   23.4301 C   0  0  0  0  0  0  0  0  0  0  0  0
   10.7288   -3.8197   19.9525 C   0  0  0  0  0  0  0  0  0  0  0  0
   10.1189   -5.0054   19.6987 C   0  0  0  0  0  0  0  0  0  0  0  0
  1  3  4  0
  1  7  4  0
  2 21  4  0
  2 27  4  0
  3  9  4  0
  3 10  4  0
  4  8  4  0
  4 18  4  0
  4 25  1  0
  5  9  4  0
  5 12  4  0
  6 13  1  0
  6 27  1  0
  7 28  4  0
  8 11  4  0
  9 29  4  0
 10 12  4  0
 11 24  1  0
 11 26  4  0
 12 25  1  0
 13 28  1  0
 14 20  4  0
 14 23  4  0
 15 17  4  0
 15 21  4  0
 16 19  4  0
 16 23  4  0
 17 22  4  0
 18 26  4  0
 19 24  4  0
 20 24  4  0
 22 27  4  0
 28 29  4  0
M  END
$$$$

 Created by Python create_sdf_string function

 29 33  0  0  0  0  0  0  0  0999 V2000
   10.7215   -3.3326   17.6437 C   0  0  0  0  0  0  0  0  0  0  0  0
    9.9489   -3.4675   24.6487 N   0  0  0  0  0  0  0  0  0  0  0  0
   10.0172   -4.4740   17.4101 C   0  0  0  0  0  0  0  0  0  0  0  0
    6.9051   -7.9575   16.4222 C   0  0  0  0  0  0  0  0  0  0  0  0
    8.9969   -6.3552   17.9668 N   0  0  0  0  0  0  0  0  0  0  0  0
   10.6702   -3.9051   22.4070 C   0  0  0  0  0  0  0  0  0  0  0  0
   11.0625   -3.0028   18.8894 C   0  0  0  0  0  0  0  0  0  0  0  0
    5.6180   -7.9194   16.1754 O   0  0  0  0  0  0  0  0  0  0  0  0
    9.7259   -5.3080   18.4485 C   0  0  0  0  0  0  0  0  0  0  0  0
    9.4578   -5.0200   16.3036 N   0  0  0  0  0  0  0  0  0  0  0  0
    5.0287   -8.9365   16.8223 C   0  0  0  0  0  0  0  0  0  0  0  0
    8.7742   -6.1498   16.6764 C   0  0  0  0  0  0  0  0  0  0  0  0
   10.9418   -3.4032   21.2053 O   0  0  0  0  0  0  0  0  0  0  0  0
    1.4797   -8.6258   16.2950 C   0  0  0  0  0  0  0  0  0  0  0  0
    9.2861   -1.2743   25.3585 C   0  0  0  0  0  0  0  0  0  0  0  0
    1.8892  -10.3985   17.7511 N   0  0  0  0  0  0  0  0  0  0  0  0
    9.6210   -0.6952   24.0976 C   0  0  0  0  0  0  0  0  0  0  0  0
    7.0792   -9.0217   17.1429 C   0  0  0  0  0  0  0  0  0  0  0  0
    3.1713  -10.1816   17.6634 C   0  0  0  0  0  0  0  0  0  0  0  0
    2.7878   -8.3822   16.2137 C   0  0  0  0  0  0  0  0  0  0  0  0
    9.4601   -2.6590   25.6528 C   0  0  0  0  0  0  0  0  0  0  0  0
   10.1182   -1.5672   23.1165 C   0  0  0  0  0  0  0  0  0  0  0  0
    1.0552   -9.6360   17.0650 C   0  0  0  0  0  0  0  0  0  0  0  0
    3.6519   -9.1783   16.9039 C   0  0  0  0  0  0  0  0  0  0  0  0
    7.8675   -7.0096   15.9415 C   0  0  0  0  0  0  0  0  0  0  0  0
    5.9733   -9.6553   17.3832 N   0  0  0  0  0  0  0  0  0  0  0  0
   10.2411   -2.9363   23.4301 C   0  0  0  0  0  0  0  0  0  0  0  0
   10.7288   -3.8197   19.9525 C   0  0  0  0  0  0  0  0  0  0  0  0
   10.1189   -5.0054   19.6987 C   0  0  0  0  0  0  0  0  0  0  0  0
  1  3  4  0
  1  7  4  0
  2 21  4  0
  2 27  4  0
  3  9  4  0
  3 10  4  0
  4  8  4  0
  4 18  4  0
  4 25  1  0
  5  9  4  0
  5 12  4  0
  6 13  1  0
  6 27  1  0
  7 28  4  0
  8 11  4  0
  9 29  4  0
 10 12  4  0
 11 24  1  0
 11 26  4  0
 12 25  1  0
 13 28  1  0
 14 20  4  0
 14 23  4  0
 15 17  4  0
 15 21  4  0
 16 19  4  0
 16 23  4  0
 17 22  4  0
 18 26  4  0
 19 24  4  0
 20 24  4  0
 22 27  4  0
 28 29  4  0
M  END
$$$$

 Created by Python create_sdf_string function

 29 33  0  0  0  0  0  0  0  0999 V2000
   10.7215   -3.3326   17.6437 C   0  0  0  0  0  0  0  0  0  0  0  0
    9.9489   -3.4675   24.6487 N   0  0  0  0  0  0  0  0  0  0  0  0
   10.0172   -4.4740   17.4101 C   0  0  0  0  0  0  0  0  0  0  0  0
    6.9051   -7.9575   16.4222 C   0  0  0  0  0  0  0  0  0  0  0  0
    8.9969   -6.3552   17.9668 N   0  0  0  0  0  0  0  0  0  0  0  0
   10.6702   -3.9051   22.4070 C   0  0  0  0  0  0  0  0  0  0  0  0
   11.0625   -3.0028   18.8894 C   0  0  0  0  0  0  0  0  0  0  0  0
    5.6180   -7.9194   16.1754 O   0  0  0  0  0  0  0  0  0  0  0  0
    9.7259   -5.3080   18.4485 C   0  0  0  0  0  0  0  0  0  0  0  0
    9.4578   -5.0200   16.3036 N   0  0  0  0  0  0  0  0  0  0  0  0
    5.0287   -8.9365   16.8223 C   0  0  0  0  0  0  0  0  0  0  0  0
    8.7742   -6.1498   16.6764 C   0  0  0  0  0  0  0  0  0  0  0  0
   10.9418   -3.4032   21.2053 O   0  0  0  0  0  0  0  0  0  0  0  0
    1.4797   -8.6258   16.2950 C   0  0  0  0  0  0  0  0  0  0  0  0
    9.2861   -1.2743   25.3585 C   0  0  0  0  0  0  0  0  0  0  0  0
    1.8892  -10.3985   17.7511 N   0  0  0  0  0  0  0  0  0  0  0  0
    9.6210   -0.6952   24.0976 C   0  0  0  0  0  0  0  0  0  0  0  0
    7.0792   -9.0217   17.1429 C   0  0  0  0  0  0  0  0  0  0  0  0
    3.1713  -10.1816   17.6634 C   0  0  0  0  0  0  0  0  0  0  0  0
    2.7878   -8.3822   16.2137 C   0  0  0  0  0  0  0  0  0  0  0  0
    9.4601   -2.6590   25.6528 C   0  0  0  0  0  0  0  0  0  0  0  0
   10.1182   -1.5672   23.1165 C   0  0  0  0  0  0  0  0  0  0  0  0
    1.0552   -9.6360   17.0650 C   0  0  0  0  0  0  0  0  0  0  0  0
    3.6519   -9.1783   16.9039 C   0  0  0  0  0  0  0  0  0  0  0  0
    7.8675   -7.0096   15.9415 C   0  0  0  0  0  0  0  0  0  0  0  0
    5.9733   -9.6553   17.3832 N   0  0  0  0  0  0  0  0  0  0  0  0
   10.2411   -2.9363   23.4301 C   0  0  0  0  0  0  0  0  0  0  0  0
   10.7288   -3.8197   19.9525 C   0  0  0  0  0  0  0  0  0  0  0  0
   10.1189   -5.0054   19.6987 C   0  0  0  0  0  0  0  0  0  0  0  0
  1  3  4  0
  1  7  4  0
  2 21  4  0
  2 27  4  0
  3  9  4  0
  3 10  4  0
  4  8  4  0
  4 18  4  0
  4 25  1  0
  5  9  4  0
  5 12  4  0
  6 13  1  0
  6 27  1  0
  7 28  4  0
  8 11  4  0
  9 29  4  0
 10 12  4  0
 11 24  1  0
 11 26  4  0
 12 25  1  0
 13 28  1  0
 14 20  4  0
 14 23  4  0
 15 17  4  0
 15 21  4  0
 16 19  4  0
 16 23  4  0
 17 22  4  0
 18 26  4  0
 19 24  4  0
 20 24  4  0
 22 27  4  0
 28 29  4  0
M  END
$$$$

 Created by Python create_sdf_string function

 29 33  0  0  0  0  0  0  0  0999 V2000
   10.7215   -3.3326   17.6437 C   0  0  0  0  0  0  0  0  0  0  0  0
    9.9489   -3.4675   24.6487 N   0  0  0  0  0  0  0  0  0  0  0  0
   10.0172   -4.4740   17.4101 C   0  0  0  0  0  0  0  0  0  0  0  0
    6.9051   -7.9575   16.4222 C   0  0  0  0  0  0  0  0  0  0  0  0
    8.9969   -6.3552   17.9668 N   0  0  0  0  0  0  0  0  0  0  0  0
   10.6702   -3.9051   22.4070 C   0  0  0  0  0  0  0  0  0  0  0  0
   11.0625   -3.0028   18.8894 C   0  0  0  0  0  0  0  0  0  0  0  0
    5.6180   -7.9194   16.1754 O   0  0  0  0  0  0  0  0  0  0  0  0
    9.7259   -5.3080   18.4485 C   0  0  0  0  0  0  0  0  0  0  0  0
    9.4578   -5.0200   16.3036 N   0  0  0  0  0  0  0  0  0  0  0  0
    5.0287   -8.9365   16.8223 C   0  0  0  0  0  0  0  0  0  0  0  0
    8.7742   -6.1498   16.6764 C   0  0  0  0  0  0  0  0  0  0  0  0
   10.9418   -3.4032   21.2053 O   0  0  0  0  0  0  0  0  0  0  0  0
    1.4797   -8.6258   16.2950 C   0  0  0  0  0  0  0  0  0  0  0  0
    9.2861   -1.2743   25.3585 C   0  0  0  0  0  0  0  0  0  0  0  0
    1.8892  -10.3985   17.7511 N   0  0  0  0  0  0  0  0  0  0  0  0
    9.6210   -0.6952   24.0976 C   0  0  0  0  0  0  0  0  0  0  0  0
    7.0792   -9.0217   17.1429 C   0  0  0  0  0  0  0  0  0  0  0  0
    3.1713  -10.1816   17.6634 C   0  0  0  0  0  0  0  0  0  0  0  0
    2.7878   -8.3822   16.2137 C   0  0  0  0  0  0  0  0  0  0  0  0
    9.4601   -2.6590   25.6528 C   0  0  0  0  0  0  0  0  0  0  0  0
   10.1182   -1.5672   23.1165 C   0  0  0  0  0  0  0  0  0  0  0  0
    1.0552   -9.6360   17.0650 C   0  0  0  0  0  0  0  0  0  0  0  0
    3.6519   -9.1783   16.9039 C   0  0  0  0  0  0  0  0  0  0  0  0
    7.8675   -7.0096   15.9415 C   0  0  0  0  0  0  0  0  0  0  0  0
    5.9733   -9.6553   17.3832 N   0  0  0  0  0  0  0  0  0  0  0  0
   10.2411   -2.9363   23.4301 C   0  0  0  0  0  0  0  0  0  0  0  0
   10.7288   -3.8197   19.9525 C   0  0  0  0  0  0  0  0  0  0  0  0
   10.1189   -5.0054   19.6987 C   0  0  0  0  0  0  0  0  0  0  0  0
  1  3  4  0
  1  7  4  0
  2 21  4  0
  2 27  4  0
  3  9  4  0
  3 10  4  0
  4  8  4  0
  4 18  4  0
  4 25  1  0
  5  9  4  0
  5 12  4  0
  6 13  1  0
  6 27  1  0
  7 28  4  0
  8 11  4  0
  9 29  4  0
 10 12  4  0
 11 24  1  0
 11 26  4  0
 12 25  1  0
 13 28  1  0
 14 20  4  0
 14 23  4  0
 15 17  4  0
 15 21  4  0
 16 19  4  0
 16 23  4  0
 17 22  4  0
 18 26  4  0
 19 24  4  0
 20 24  4  0
 22 27  4  0
 28 29  4  0
M  END
$$$$

 Created by Python create_sdf_string function

 29 33  0  0  0  0  0  0  0  0999 V2000
   10.7215   -3.3326   17.6437 C   0  0  0  0  0  0  0  0  0  0  0  0
    9.9489   -3.4675   24.6487 N   0  0  0  0  0  0  0  0  0  0  0  0
   10.0172   -4.4740   17.4101 C   0  0  0  0  0  0  0  0  0  0  0  0
    6.9051   -7.9575   16.4222 C   0  0  0  0  0  0  0  0  0  0  0  0
    8.9969   -6.3552   17.9668 N   0  0  0  0  0  0  0  0  0  0  0  0
   10.6702   -3.9051   22.4070 C   0  0  0  0  0  0  0  0  0  0  0  0
   11.0625   -3.0028   18.8894 C   0  0  0  0  0  0  0  0  0  0  0  0
    5.6180   -7.9194   16.1754 O   0  0  0  0  0  0  0  0  0  0  0  0
    9.7259   -5.3080   18.4485 C   0  0  0  0  0  0  0  0  0  0  0  0
    9.4578   -5.0200   16.3036 N   0  0  0  0  0  0  0  0  0  0  0  0
    5.0287   -8.9365   16.8223 C   0  0  0  0  0  0  0  0  0  0  0  0
    8.7742   -6.1498   16.6764 C   0  0  0  0  0  0  0  0  0  0  0  0
   10.9418   -3.4032   21.2053 O   0  0  0  0  0  0  0  0  0  0  0  0
    1.4797   -8.6258   16.2950 C   0  0  0  0  0  0  0  0  0  0  0  0
    9.2861   -1.2743   25.3585 C   0  0  0  0  0  0  0  0  0  0  0  0
    1.8892  -10.3985   17.7511 N   0  0  0  0  0  0  0  0  0  0  0  0
    9.6210   -0.6952   24.0976 C   0  0  0  0  0  0  0  0  0  0  0  0
    7.0792   -9.0217   17.1429 C   0  0  0  0  0  0  0  0  0  0  0  0
    3.1713  -10.1816   17.6634 C   0  0  0  0  0  0  0  0  0  0  0  0
    2.7878   -8.3822   16.2137 C   0  0  0  0  0  0  0  0  0  0  0  0
    9.4601   -2.6590   25.6528 C   0  0  0  0  0  0  0  0  0  0  0  0
   10.1182   -1.5672   23.1165 C   0  0  0  0  0  0  0  0  0  0  0  0
    1.0552   -9.6360   17.0650 C   0  0  0  0  0  0  0  0  0  0  0  0
    3.6519   -9.1783   16.9039 C   0  0  0  0  0  0  0  0  0  0  0  0
    7.8675   -7.0096   15.9415 C   0  0  0  0  0  0  0  0  0  0  0  0
    5.9733   -9.6553   17.3832 N   0  0  0  0  0  0  0  0  0  0  0  0
   10.2411   -2.9363   23.4301 C   0  0  0  0  0  0  0  0  0  0  0  0
   10.7288   -3.8197   19.9525 C   0  0  0  0  0  0  0  0  0  0  0  0
   10.1189   -5.0054   19.6987 C   0  0  0  0  0  0  0  0  0  0  0  0
  1  3  4  0
  1  7  4  0
  2 21  4  0
  2 27  4  0
  3  9  4  0
  3 10  4  0
  4  8  4  0
  4 18  4  0
  4 25  1  0
  5  9  4  0
  5 12  4  0
  6 13  1  0
  6 27  1  0
  7 28  4  0
  8 11  4  0
  9 29  4  0
 10 12  4  0
 11 24  1  0
 11 26  4  0
 12 25  1  0
 13 28  1  0
 14 20  4  0
 14 23  4  0
 15 17  4  0
 15 21  4  0
 16 19  4  0
 16 23  4  0
 17 22  4  0
 18 26  4  0
 19 24  4  0
 20 24  4  0
 22 27  4  0
 28 29  4  0
M  END
$$$$

 Created by Python create_sdf_string function

 29 33  0  0  0  0  0  0  0  0999 V2000
   10.7215   -3.3326   17.6437 C   0  0  0  0  0  0  0  0  0  0  0  0
    9.9489   -3.4675   24.6487 N   0  0  0  0  0  0  0  0  0  0  0  0
   10.0172   -4.4740   17.4101 C   0  0  0  0  0  0  0  0  0  0  0  0
    6.9051   -7.9575   16.4222 C   0  0  0  0  0  0  0  0  0  0  0  0
    8.9969   -6.3552   17.9668 N   0  0  0  0  0  0  0  0  0  0  0  0
   10.6702   -3.9051   22.4070 C   0  0  0  0  0  0  0  0  0  0  0  0
   11.0625   -3.0028   18.8894 C   0  0  0  0  0  0  0  0  0  0  0  0
    5.6180   -7.9194   16.1754 O   0  0  0  0  0  0  0  0  0  0  0  0
    9.7259   -5.3080   18.4485 C   0  0  0  0  0  0  0  0  0  0  0  0
    9.4578   -5.0200   16.3036 N   0  0  0  0  0  0  0  0  0  0  0  0
    5.0287   -8.9365   16.8223 C   0  0  0  0  0  0  0  0  0  0  0  0
    8.7742   -6.1498   16.6764 C   0  0  0  0  0  0  0  0  0  0  0  0
   10.9418   -3.4032   21.2053 O   0  0  0  0  0  0  0  0  0  0  0  0
    1.4797   -8.6258   16.2950 C   0  0  0  0  0  0  0  0  0  0  0  0
    9.2861   -1.2743   25.3585 C   0  0  0  0  0  0  0  0  0  0  0  0
    1.8892  -10.3985   17.7511 N   0  0  0  0  0  0  0  0  0  0  0  0
    9.6210   -0.6952   24.0976 C   0  0  0  0  0  0  0  0  0  0  0  0
    7.0792   -9.0217   17.1429 C   0  0  0  0  0  0  0  0  0  0  0  0
    3.1713  -10.1816   17.6634 C   0  0  0  0  0  0  0  0  0  0  0  0
    2.7878   -8.3822   16.2137 C   0  0  0  0  0  0  0  0  0  0  0  0
    9.4601   -2.6590   25.6528 C   0  0  0  0  0  0  0  0  0  0  0  0
   10.1182   -1.5672   23.1165 C   0  0  0  0  0  0  0  0  0  0  0  0
    1.0552   -9.6360   17.0650 C   0  0  0  0  0  0  0  0  0  0  0  0
    3.6519   -9.1783   16.9039 C   0  0  0  0  0  0  0  0  0  0  0  0
    7.8675   -7.0096   15.9415 C   0  0  0  0  0  0  0  0  0  0  0  0
    5.9733   -9.6553   17.3832 N   0  0  0  0  0  0  0  0  0  0  0  0
   10.2411   -2.9363   23.4301 C   0  0  0  0  0  0  0  0  0  0  0  0
   10.7288   -3.8197   19.9525 C   0  0  0  0  0  0  0  0  0  0  0  0
   10.1189   -5.0054   19.6987 C   0  0  0  0  0  0  0  0  0  0  0  0
  1  3  4  0
  1  7  4  0
  2 21  4  0
  2 27  4  0
  3  9  4  0
  3 10  4  0
  4  8  4  0
  4 18  4  0
  4 25  1  0
  5  9  4  0
  5 12  4  0
  6 13  1  0
  6 27  1  0
  7 28  4  0
  8 11  4  0
  9 29  4  0
 10 12  4  0
 11 24  1  0
 11 26  4  0
 12 25  1  0
 13 28  1  0
 14 20  4  0
 14 23  4  0
 15 17  4  0
 15 21  4  0
 16 19  4  0
 16 23  4  0
 17 22  4  0
 18 26  4  0
 19 24  4  0
 20 24  4  0
 22 27  4  0
 28 29  4  0
M  END
$$$$

 Created by Python create_sdf_string function

 29 33  0  0  0  0  0  0  0  0999 V2000
   10.7215   -3.3326   17.6437 C   0  0  0  0  0  0  0  0  0  0  0  0
    9.9489   -3.4675   24.6487 N   0  0  0  0  0  0  0  0  0  0  0  0
   10.0172   -4.4740   17.4101 C   0  0  0  0  0  0  0  0  0  0  0  0
    6.9051   -7.9575   16.4222 C   0  0  0  0  0  0  0  0  0  0  0  0
    8.9969   -6.3552   17.9668 N   0  0  0  0  0  0  0  0  0  0  0  0
   10.6702   -3.9051   22.4070 C   0  0  0  0  0  0  0  0  0  0  0  0
   11.0625   -3.0028   18.8894 C   0  0  0  0  0  0  0  0  0  0  0  0
    5.6180   -7.9194   16.1754 O   0  0  0  0  0  0  0  0  0  0  0  0
    9.7259   -5.3080   18.4485 C   0  0  0  0  0  0  0  0  0  0  0  0
    9.4578   -5.0200   16.3036 N   0  0  0  0  0  0  0  0  0  0  0  0
    5.0287   -8.9365   16.8223 C   0  0  0  0  0  0  0  0  0  0  0  0
    8.7742   -6.1498   16.6764 C   0  0  0  0  0  0  0  0  0  0  0  0
   10.9418   -3.4032   21.2053 O   0  0  0  0  0  0  0  0  0  0  0  0
    1.4797   -8.6258   16.2950 C   0  0  0  0  0  0  0  0  0  0  0  0
    9.2861   -1.2743   25.3585 C   0  0  0  0  0  0  0  0  0  0  0  0
    1.8892  -10.3985   17.7511 N   0  0  0  0  0  0  0  0  0  0  0  0
    9.6210   -0.6952   24.0976 C   0  0  0  0  0  0  0  0  0  0  0  0
    7.0792   -9.0217   17.1429 C   0  0  0  0  0  0  0  0  0  0  0  0
    3.1713  -10.1816   17.6634 C   0  0  0  0  0  0  0  0  0  0  0  0
    2.7878   -8.3822   16.2137 C   0  0  0  0  0  0  0  0  0  0  0  0
    9.4601   -2.6590   25.6528 C   0  0  0  0  0  0  0  0  0  0  0  0
   10.1182   -1.5672   23.1165 C   0  0  0  0  0  0  0  0  0  0  0  0
    1.0552   -9.6360   17.0650 C   0  0  0  0  0  0  0  0  0  0  0  0
    3.6519   -9.1783   16.9039 C   0  0  0  0  0  0  0  0  0  0  0  0
    7.8675   -7.0096   15.9415 C   0  0  0  0  0  0  0  0  0  0  0  0
    5.9733   -9.6553   17.3832 N   0  0  0  0  0  0  0  0  0  0  0  0
   10.2411   -2.9363   23.4301 C   0  0  0  0  0  0  0  0  0  0  0  0
   10.7288   -3.8197   19.9525 C   0  0  0  0  0  0  0  0  0  0  0  0
   10.1189   -5.0054   19.6987 C   0  0  0  0  0  0  0  0  0  0  0  0
  1  3  4  0
  1  7  4  0
  2 21  4  0
  2 27  4  0
  3  9  4  0
  3 10  4  0
  4  8  4  0
  4 18  4  0
  4 25  1  0
  5  9  4  0
  5 12  4  0
  6 13  1  0
  6 27  1  0
  7 28  4  0
  8 11  4  0
  9 29  4  0
 10 12  4  0
 11 24  1  0
 11 26  4  0
 12 25  1  0
 13 28  1  0
 14 20  4  0
 14 23  4  0
 15 17  4  0
 15 21  4  0
 16 19  4  0
 16 23  4  0
 17 22  4  0
 18 26  4  0
 19 24  4  0
 20 24  4  0
 22 27  4  0
 28 29  4  0
M  END
$$$$

 Created by Python create_sdf_string function

 29 33  0  0  0  0  0  0  0  0999 V2000
   10.7215   -3.3326   17.6437 C   0  0  0  0  0  0  0  0  0  0  0  0
    9.9489   -3.4675   24.6487 N   0  0  0  0  0  0  0  0  0  0  0  0
   10.0172   -4.4740   17.4101 C   0  0  0  0  0  0  0  0  0  0  0  0
    6.9051   -7.9575   16.4222 C   0  0  0  0  0  0  0  0  0  0  0  0
    8.9969   -6.3552   17.9668 N   0  0  0  0  0  0  0  0  0  0  0  0
   10.6702   -3.9051   22.4070 C   0  0  0  0  0  0  0  0  0  0  0  0
   11.0625   -3.0028   18.8894 C   0  0  0  0  0  0  0  0  0  0  0  0
    5.6180   -7.9194   16.1754 O   0  0  0  0  0  0  0  0  0  0  0  0
    9.7259   -5.3080   18.4485 C   0  0  0  0  0  0  0  0  0  0  0  0
    9.4578   -5.0200   16.3036 N   0  0  0  0  0  0  0  0  0  0  0  0
    5.0287   -8.9365   16.8223 C   0  0  0  0  0  0  0  0  0  0  0  0
    8.7742   -6.1498   16.6764 C   0  0  0  0  0  0  0  0  0  0  0  0
   10.9418   -3.4032   21.2053 O   0  0  0  0  0  0  0  0  0  0  0  0
    1.4797   -8.6258   16.2950 C   0  0  0  0  0  0  0  0  0  0  0  0
    9.2861   -1.2743   25.3585 C   0  0  0  0  0  0  0  0  0  0  0  0
    1.8892  -10.3985   17.7511 N   0  0  0  0  0  0  0  0  0  0  0  0
    9.6210   -0.6952   24.0976 C   0  0  0  0  0  0  0  0  0  0  0  0
    7.0792   -9.0217   17.1429 C   0  0  0  0  0  0  0  0  0  0  0  0
    3.1713  -10.1816   17.6634 C   0  0  0  0  0  0  0  0  0  0  0  0
    2.7878   -8.3822   16.2137 C   0  0  0  0  0  0  0  0  0  0  0  0
    9.4601   -2.6590   25.6528 C   0  0  0  0  0  0  0  0  0  0  0  0
   10.1182   -1.5672   23.1165 C   0  0  0  0  0  0  0  0  0  0  0  0
    1.0552   -9.6360   17.0650 C   0  0  0  0  0  0  0  0  0  0  0  0
    3.6519   -9.1783   16.9039 C   0  0  0  0  0  0  0  0  0  0  0  0
    7.8675   -7.0096   15.9415 C   0  0  0  0  0  0  0  0  0  0  0  0
    5.9733   -9.6553   17.3832 N   0  0  0  0  0  0  0  0  0  0  0  0
   10.2411   -2.9363   23.4301 C   0  0  0  0  0  0  0  0  0  0  0  0
   10.7288   -3.8197   19.9525 C   0  0  0  0  0  0  0  0  0  0  0  0
   10.1189   -5.0054   19.6987 C   0  0  0  0  0  0  0  0  0  0  0  0
  1  3  4  0
  1  7  4  0
  2 21  4  0
  2 27  4  0
  3  9  4  0
  3 10  4  0
  4  8  4  0
  4 18  4  0
  4 25  1  0
  5  9  4  0
  5 12  4  0
  6 13  1  0
  6 27  1  0
  7 28  4  0
  8 11  4  0
  9 29  4  0
 10 12  4  0
 11 24  1  0
 11 26  4  0
 12 25  1  0
 13 28  1  0
 14 20  4  0
 14 23  4  0
 15 17  4  0
 15 21  4  0
 16 19  4  0
 16 23  4  0
 17 22  4  0
 18 26  4  0
 19 24  4  0
 20 24  4  0
 22 27  4  0
 28 29  4  0
M  END
$$$$

 Created by Python create_sdf_string function

 29 33  0  0  0  0  0  0  0  0999 V2000
   10.7215   -3.3326   17.6437 C   0  0  0  0  0  0  0  0  0  0  0  0
    9.9489   -3.4675   24.6487 N   0  0  0  0  0  0  0  0  0  0  0  0
   10.0172   -4.4740   17.4101 C   0  0  0  0  0  0  0  0  0  0  0  0
    6.9051   -7.9575   16.4222 C   0  0  0  0  0  0  0  0  0  0  0  0
    8.9969   -6.3552   17.9668 N   0  0  0  0  0  0  0  0  0  0  0  0
   10.6702   -3.9051   22.4070 C   0  0  0  0  0  0  0  0  0  0  0  0
   11.0625   -3.0028   18.8894 C   0  0  0  0  0  0  0  0  0  0  0  0
    5.6180   -7.9194   16.1754 O   0  0  0  0  0  0  0  0  0  0  0  0
    9.7259   -5.3080   18.4485 C   0  0  0  0  0  0  0  0  0  0  0  0
    9.4578   -5.0200   16.3036 N   0  0  0  0  0  0  0  0  0  0  0  0
    5.0287   -8.9365   16.8223 C   0  0  0  0  0  0  0  0  0  0  0  0
    8.7742   -6.1498   16.6764 C   0  0  0  0  0  0  0  0  0  0  0  0
   10.9418   -3.4032   21.2053 O   0  0  0  0  0  0  0  0  0  0  0  0
    1.4797   -8.6258   16.2950 C   0  0  0  0  0  0  0  0  0  0  0  0
    9.2861   -1.2743   25.3585 C   0  0  0  0  0  0  0  0  0  0  0  0
    1.8892  -10.3985   17.7511 N   0  0  0  0  0  0  0  0  0  0  0  0
    9.6210   -0.6952   24.0976 C   0  0  0  0  0  0  0  0  0  0  0  0
    7.0792   -9.0217   17.1429 C   0  0  0  0  0  0  0  0  0  0  0  0
    3.1713  -10.1816   17.6634 C   0  0  0  0  0  0  0  0  0  0  0  0
    2.7878   -8.3822   16.2137 C   0  0  0  0  0  0  0  0  0  0  0  0
    9.4601   -2.6590   25.6528 C   0  0  0  0  0  0  0  0  0  0  0  0
   10.1182   -1.5672   23.1165 C   0  0  0  0  0  0  0  0  0  0  0  0
    1.0552   -9.6360   17.0650 C   0  0  0  0  0  0  0  0  0  0  0  0
    3.6519   -9.1783   16.9039 C   0  0  0  0  0  0  0  0  0  0  0  0
    7.8675   -7.0096   15.9415 C   0  0  0  0  0  0  0  0  0  0  0  0
    5.9733   -9.6553   17.3832 N   0  0  0  0  0  0  0  0  0  0  0  0
   10.2411   -2.9363   23.4301 C   0  0  0  0  0  0  0  0  0  0  0  0
   10.7288   -3.8197   19.9525 C   0  0  0  0  0  0  0  0  0  0  0  0
   10.1189   -5.0054   19.6987 C   0  0  0  0  0  0  0  0  0  0  0  0
  1  3  4  0
  1  7  4  0
  2 21  4  0
  2 27  4  0
  3  9  4  0
  3 10  4  0
  4  8  4  0
  4 18  4  0
  4 25  1  0
  5  9  4  0
  5 12  4  0
  6 13  1  0
  6 27  1  0
  7 28  4  0
  8 11  4  0
  9 29  4  0
 10 12  4  0
 11 24  1  0
 11 26  4  0
 12 25  1  0
 13 28  1  0
 14 20  4  0
 14 23  4  0
 15 17  4  0
 15 21  4  0
 16 19  4  0
 16 23  4  0
 17 22  4  0
 18 26  4  0
 19 24  4  0
 20 24  4  0
 22 27  4  0
 28 29  4  0
M  END
$$$$

 Created by Python create_sdf_string function

 29 33  0  0  0  0  0  0  0  0999 V2000
   10.7215   -3.3326   17.6437 C   0  0  0  0  0  0  0  0  0  0  0  0
    9.9489   -3.4675   24.6487 N   0  0  0  0  0  0  0  0  0  0  0  0
   10.0172   -4.4740   17.4101 C   0  0  0  0  0  0  0  0  0  0  0  0
    6.9051   -7.9575   16.4222 C   0  0  0  0  0  0  0  0  0  0  0  0
    8.9969   -6.3552   17.9668 N   0  0  0  0  0  0  0  0  0  0  0  0
   10.6702   -3.9051   22.4070 C   0  0  0  0  0  0  0  0  0  0  0  0
   11.0625   -3.0028   18.8894 C   0  0  0  0  0  0  0  0  0  0  0  0
    5.6180   -7.9194   16.1754 O   0  0  0  0  0  0  0  0  0  0  0  0
    9.7259   -5.3080   18.4485 C   0  0  0  0  0  0  0  0  0  0  0  0
    9.4578   -5.0200   16.3036 N   0  0  0  0  0  0  0  0  0  0  0  0
    5.0287   -8.9365   16.8223 C   0  0  0  0  0  0  0  0  0  0  0  0
    8.7742   -6.1498   16.6764 C   0  0  0  0  0  0  0  0  0  0  0  0
   10.9418   -3.4032   21.2053 O   0  0  0  0  0  0  0  0  0  0  0  0
    1.4797   -8.6258   16.2950 C   0  0  0  0  0  0  0  0  0  0  0  0
    9.2861   -1.2743   25.3585 C   0  0  0  0  0  0  0  0  0  0  0  0
    1.8892  -10.3985   17.7511 N   0  0  0  0  0  0  0  0  0  0  0  0
    9.6210   -0.6952   24.0976 C   0  0  0  0  0  0  0  0  0  0  0  0
    7.0792   -9.0217   17.1429 C   0  0  0  0  0  0  0  0  0  0  0  0
    3.1713  -10.1816   17.6634 C   0  0  0  0  0  0  0  0  0  0  0  0
    2.7878   -8.3822   16.2137 C   0  0  0  0  0  0  0  0  0  0  0  0
    9.4601   -2.6590   25.6528 C   0  0  0  0  0  0  0  0  0  0  0  0
   10.1182   -1.5672   23.1165 C   0  0  0  0  0  0  0  0  0  0  0  0
    1.0552   -9.6360   17.0650 C   0  0  0  0  0  0  0  0  0  0  0  0
    3.6519   -9.1783   16.9039 C   0  0  0  0  0  0  0  0  0  0  0  0
    7.8675   -7.0096   15.9415 C   0  0  0  0  0  0  0  0  0  0  0  0
    5.9733   -9.6553   17.3832 N   0  0  0  0  0  0  0  0  0  0  0  0
   10.2411   -2.9363   23.4301 C   0  0  0  0  0  0  0  0  0  0  0  0
   10.7288   -3.8197   19.9525 C   0  0  0  0  0  0  0  0  0  0  0  0
   10.1189   -5.0054   19.6987 C   0  0  0  0  0  0  0  0  0  0  0  0
  1  3  4  0
  1  7  4  0
  2 21  4  0
  2 27  4  0
  3  9  4  0
  3 10  4  0
  4  8  4  0
  4 18  4  0
  4 25  1  0
  5  9  4  0
  5 12  4  0
  6 13  1  0
  6 27  1  0
  7 28  4  0
  8 11  4  0
  9 29  4  0
 10 12  4  0
 11 24  1  0
 11 26  4  0
 12 25  1  0
 13 28  1  0
 14 20  4  0
 14 23  4  0
 15 17  4  0
 15 21  4  0
 16 19  4  0
 16 23  4  0
 17 22  4  0
 18 26  4  0
 19 24  4  0
 20 24  4  0
 22 27  4  0
 28 29  4  0
M  END
$$$$

 Created by Python create_sdf_string function

 29 33  0  0  0  0  0  0  0  0999 V2000
   10.7215   -3.3326   17.6437 C   0  0  0  0  0  0  0  0  0  0  0  0
    9.9489   -3.4675   24.6487 N   0  0  0  0  0  0  0  0  0  0  0  0
   10.0172   -4.4740   17.4101 C   0  0  0  0  0  0  0  0  0  0  0  0
    6.9051   -7.9575   16.4222 C   0  0  0  0  0  0  0  0  0  0  0  0
    8.9969   -6.3552   17.9668 N   0  0  0  0  0  0  0  0  0  0  0  0
   10.6702   -3.9051   22.4070 C   0  0  0  0  0  0  0  0  0  0  0  0
   11.0625   -3.0028   18.8894 C   0  0  0  0  0  0  0  0  0  0  0  0
    5.6180   -7.9194   16.1754 O   0  0  0  0  0  0  0  0  0  0  0  0
    9.7259   -5.3080   18.4485 C   0  0  0  0  0  0  0  0  0  0  0  0
    9.4578   -5.0200   16.3036 N   0  0  0  0  0  0  0  0  0  0  0  0
    5.0287   -8.9365   16.8223 C   0  0  0  0  0  0  0  0  0  0  0  0
    8.7742   -6.1498   16.6764 C   0  0  0  0  0  0  0  0  0  0  0  0
   10.9418   -3.4032   21.2053 O   0  0  0  0  0  0  0  0  0  0  0  0
    1.4797   -8.6258   16.2950 C   0  0  0  0  0  0  0  0  0  0  0  0
    9.2861   -1.2743   25.3585 C   0  0  0  0  0  0  0  0  0  0  0  0
    1.8892  -10.3985   17.7511 N   0  0  0  0  0  0  0  0  0  0  0  0
    9.6210   -0.6952   24.0976 C   0  0  0  0  0  0  0  0  0  0  0  0
    7.0792   -9.0217   17.1429 C   0  0  0  0  0  0  0  0  0  0  0  0
    3.1713  -10.1816   17.6634 C   0  0  0  0  0  0  0  0  0  0  0  0
    2.7878   -8.3822   16.2137 C   0  0  0  0  0  0  0  0  0  0  0  0
    9.4601   -2.6590   25.6528 C   0  0  0  0  0  0  0  0  0  0  0  0
   10.1182   -1.5672   23.1165 C   0  0  0  0  0  0  0  0  0  0  0  0
    1.0552   -9.6360   17.0650 C   0  0  0  0  0  0  0  0  0  0  0  0
    3.6519   -9.1783   16.9039 C   0  0  0  0  0  0  0  0  0  0  0  0
    7.8675   -7.0096   15.9415 C   0  0  0  0  0  0  0  0  0  0  0  0
    5.9733   -9.6553   17.3832 N   0  0  0  0  0  0  0  0  0  0  0  0
   10.2411   -2.9363   23.4301 C   0  0  0  0  0  0  0  0  0  0  0  0
   10.7288   -3.8197   19.9525 C   0  0  0  0  0  0  0  0  0  0  0  0
   10.1189   -5.0054   19.6987 C   0  0  0  0  0  0  0  0  0  0  0  0
  1  3  4  0
  1  7  4  0
  2 21  4  0
  2 27  4  0
  3  9  4  0
  3 10  4  0
  4  8  4  0
  4 18  4  0
  4 25  1  0
  5  9  4  0
  5 12  4  0
  6 13  1  0
  6 27  1  0
  7 28  4  0
  8 11  4  0
  9 29  4  0
 10 12  4  0
 11 24  1  0
 11 26  4  0
 12 25  1  0
 13 28  1  0
 14 20  4  0
 14 23  4  0
 15 17  4  0
 15 21  4  0
 16 19  4  0
 16 23  4  0
 17 22  4  0
 18 26  4  0
 19 24  4  0
 20 24  4  0
 22 27  4  0
 28 29  4  0
M  END
$$$$

 Created by Python create_sdf_string function

 29 33  0  0  0  0  0  0  0  0999 V2000
   10.7215   -3.3326   17.6437 C   0  0  0  0  0  0  0  0  0  0  0  0
    9.9489   -3.4675   24.6487 N   0  0  0  0  0  0  0  0  0  0  0  0
   10.0172   -4.4740   17.4101 C   0  0  0  0  0  0  0  0  0  0  0  0
    6.9051   -7.9575   16.4222 C   0  0  0  0  0  0  0  0  0  0  0  0
    8.9969   -6.3552   17.9668 N   0  0  0  0  0  0  0  0  0  0  0  0
   10.6702   -3.9051   22.4070 C   0  0  0  0  0  0  0  0  0  0  0  0
   11.0625   -3.0028   18.8894 C   0  0  0  0  0  0  0  0  0  0  0  0
    5.6180   -7.9194   16.1754 O   0  0  0  0  0  0  0  0  0  0  0  0
    9.7259   -5.3080   18.4485 C   0  0  0  0  0  0  0  0  0  0  0  0
    9.4578   -5.0200   16.3036 N   0  0  0  0  0  0  0  0  0  0  0  0
    5.0287   -8.9365   16.8223 C   0  0  0  0  0  0  0  0  0  0  0  0
    8.7742   -6.1498   16.6764 C   0  0  0  0  0  0  0  0  0  0  0  0
   10.9418   -3.4032   21.2053 O   0  0  0  0  0  0  0  0  0  0  0  0
    1.4797   -8.6258   16.2950 C   0  0  0  0  0  0  0  0  0  0  0  0
    9.2861   -1.2743   25.3585 C   0  0  0  0  0  0  0  0  0  0  0  0
    1.8892  -10.3985   17.7511 N   0  0  0  0  0  0  0  0  0  0  0  0
    9.6210   -0.6952   24.0976 C   0  0  0  0  0  0  0  0  0  0  0  0
    7.0792   -9.0217   17.1429 C   0  0  0  0  0  0  0  0  0  0  0  0
    3.1713  -10.1816   17.6634 C   0  0  0  0  0  0  0  0  0  0  0  0
    2.7878   -8.3822   16.2137 C   0  0  0  0  0  0  0  0  0  0  0  0
    9.4601   -2.6590   25.6528 C   0  0  0  0  0  0  0  0  0  0  0  0
   10.1182   -1.5672   23.1165 C   0  0  0  0  0  0  0  0  0  0  0  0
    1.0552   -9.6360   17.0650 C   0  0  0  0  0  0  0  0  0  0  0  0
    3.6519   -9.1783   16.9039 C   0  0  0  0  0  0  0  0  0  0  0  0
    7.8675   -7.0096   15.9415 C   0  0  0  0  0  0  0  0  0  0  0  0
    5.9733   -9.6553   17.3832 N   0  0  0  0  0  0  0  0  0  0  0  0
   10.2411   -2.9363   23.4301 C   0  0  0  0  0  0  0  0  0  0  0  0
   10.7288   -3.8197   19.9525 C   0  0  0  0  0  0  0  0  0  0  0  0
   10.1189   -5.0054   19.6987 C   0  0  0  0  0  0  0  0  0  0  0  0
  1  3  4  0
  1  7  4  0
  2 21  4  0
  2 27  4  0
  3  9  4  0
  3 10  4  0
  4  8  4  0
  4 18  4  0
  4 25  1  0
  5  9  4  0
  5 12  4  0
  6 13  1  0
  6 27  1  0
  7 28  4  0
  8 11  4  0
  9 29  4  0
 10 12  4  0
 11 24  1  0
 11 26  4  0
 12 25  1  0
 13 28  1  0
 14 20  4  0
 14 23  4  0
 15 17  4  0
 15 21  4  0
 16 19  4  0
 16 23  4  0
 17 22  4  0
 18 26  4  0
 19 24  4  0
 20 24  4  0
 22 27  4  0
 28 29  4  0
M  END
$$$$

 Created by Python create_sdf_string function

 29 33  0  0  0  0  0  0  0  0999 V2000
   10.7215   -3.3326   17.6437 C   0  0  0  0  0  0  0  0  0  0  0  0
    9.9489   -3.4675   24.6487 N   0  0  0  0  0  0  0  0  0  0  0  0
   10.0172   -4.4740   17.4101 C   0  0  0  0  0  0  0  0  0  0  0  0
    6.9051   -7.9575   16.4222 C   0  0  0  0  0  0  0  0  0  0  0  0
    8.9969   -6.3552   17.9668 N   0  0  0  0  0  0  0  0  0  0  0  0
   10.6702   -3.9051   22.4070 C   0  0  0  0  0  0  0  0  0  0  0  0
   11.0625   -3.0028   18.8894 C   0  0  0  0  0  0  0  0  0  0  0  0
    5.6180   -7.9194   16.1754 O   0  0  0  0  0  0  0  0  0  0  0  0
    9.7259   -5.3080   18.4485 C   0  0  0  0  0  0  0  0  0  0  0  0
    9.4578   -5.0200   16.3036 N   0  0  0  0  0  0  0  0  0  0  0  0
    5.0287   -8.9365   16.8223 C   0  0  0  0  0  0  0  0  0  0  0  0
    8.7742   -6.1498   16.6764 C   0  0  0  0  0  0  0  0  0  0  0  0
   10.9418   -3.4032   21.2053 O   0  0  0  0  0  0  0  0  0  0  0  0
    1.4797   -8.6258   16.2950 C   0  0  0  0  0  0  0  0  0  0  0  0
    9.2861   -1.2743   25.3585 C   0  0  0  0  0  0  0  0  0  0  0  0
    1.8892  -10.3985   17.7511 N   0  0  0  0  0  0  0  0  0  0  0  0
    9.6210   -0.6952   24.0976 C   0  0  0  0  0  0  0  0  0  0  0  0
    7.0792   -9.0217   17.1429 C   0  0  0  0  0  0  0  0  0  0  0  0
    3.1713  -10.1816   17.6634 C   0  0  0  0  0  0  0  0  0  0  0  0
    2.7878   -8.3822   16.2137 C   0  0  0  0  0  0  0  0  0  0  0  0
    9.4601   -2.6590   25.6528 C   0  0  0  0  0  0  0  0  0  0  0  0
   10.1182   -1.5672   23.1165 C   0  0  0  0  0  0  0  0  0  0  0  0
    1.0552   -9.6360   17.0650 C   0  0  0  0  0  0  0  0  0  0  0  0
    3.6519   -9.1783   16.9039 C   0  0  0  0  0  0  0  0  0  0  0  0
    7.8675   -7.0096   15.9415 C   0  0  0  0  0  0  0  0  0  0  0  0
    5.9733   -9.6553   17.3832 N   0  0  0  0  0  0  0  0  0  0  0  0
   10.2411   -2.9363   23.4301 C   0  0  0  0  0  0  0  0  0  0  0  0
   10.7288   -3.8197   19.9525 C   0  0  0  0  0  0  0  0  0  0  0  0
   10.1189   -5.0054   19.6987 C   0  0  0  0  0  0  0  0  0  0  0  0
  1  3  4  0
  1  7  4  0
  2 21  4  0
  2 27  4  0
  3  9  4  0
  3 10  4  0
  4  8  4  0
  4 18  4  0
  4 25  1  0
  5  9  4  0
  5 12  4  0
  6 13  1  0
  6 27  1  0
  7 28  4  0
  8 11  4  0
  9 29  4  0
 10 12  4  0
 11 24  1  0
 11 26  4  0
 12 25  1  0
 13 28  1  0
 14 20  4  0
 14 23  4  0
 15 17  4  0
 15 21  4  0
 16 19  4  0
 16 23  4  0
 17 22  4  0
 18 26  4  0
 19 24  4  0
 20 24  4  0
 22 27  4  0
 28 29  4  0
M  END
$$$$

 Created by Python create_sdf_string function

 29 33  0  0  0  0  0  0  0  0999 V2000
   10.7215   -3.3326   17.6437 C   0  0  0  0  0  0  0  0  0  0  0  0
    9.9489   -3.4675   24.6487 N   0  0  0  0  0  0  0  0  0  0  0  0
   10.0172   -4.4740   17.4101 C   0  0  0  0  0  0  0  0  0  0  0  0
    6.9051   -7.9575   16.4222 C   0  0  0  0  0  0  0  0  0  0  0  0
    8.9969   -6.3552   17.9668 N   0  0  0  0  0  0  0  0  0  0  0  0
   10.6702   -3.9051   22.4070 C   0  0  0  0  0  0  0  0  0  0  0  0
   11.0625   -3.0028   18.8894 C   0  0  0  0  0  0  0  0  0  0  0  0
    5.6180   -7.9194   16.1754 O   0  0  0  0  0  0  0  0  0  0  0  0
    9.7259   -5.3080   18.4485 C   0  0  0  0  0  0  0  0  0  0  0  0
    9.4578   -5.0200   16.3036 N   0  0  0  0  0  0  0  0  0  0  0  0
    5.0287   -8.9365   16.8223 C   0  0  0  0  0  0  0  0  0  0  0  0
    8.7742   -6.1498   16.6764 C   0  0  0  0  0  0  0  0  0  0  0  0
   10.9418   -3.4032   21.2053 O   0  0  0  0  0  0  0  0  0  0  0  0
    1.4797   -8.6258   16.2950 C   0  0  0  0  0  0  0  0  0  0  0  0
    9.2861   -1.2743   25.3585 C   0  0  0  0  0  0  0  0  0  0  0  0
    1.8892  -10.3985   17.7511 N   0  0  0  0  0  0  0  0  0  0  0  0
    9.6210   -0.6952   24.0976 C   0  0  0  0  0  0  0  0  0  0  0  0
    7.0792   -9.0217   17.1429 C   0  0  0  0  0  0  0  0  0  0  0  0
    3.1713  -10.1816   17.6634 C   0  0  0  0  0  0  0  0  0  0  0  0
    2.7878   -8.3822   16.2137 C   0  0  0  0  0  0  0  0  0  0  0  0
    9.4601   -2.6590   25.6528 C   0  0  0  0  0  0  0  0  0  0  0  0
   10.1182   -1.5672   23.1165 C   0  0  0  0  0  0  0  0  0  0  0  0
    1.0552   -9.6360   17.0650 C   0  0  0  0  0  0  0  0  0  0  0  0
    3.6519   -9.1783   16.9039 C   0  0  0  0  0  0  0  0  0  0  0  0
    7.8675   -7.0096   15.9415 C   0  0  0  0  0  0  0  0  0  0  0  0
    5.9733   -9.6553   17.3832 N   0  0  0  0  0  0  0  0  0  0  0  0
   10.2411   -2.9363   23.4301 C   0  0  0  0  0  0  0  0  0  0  0  0
   10.7288   -3.8197   19.9525 C   0  0  0  0  0  0  0  0  0  0  0  0
   10.1189   -5.0054   19.6987 C   0  0  0  0  0  0  0  0  0  0  0  0
  1  3  4  0
  1  7  4  0
  2 21  4  0
  2 27  4  0
  3  9  4  0
  3 10  4  0
  4  8  4  0
  4 18  4  0
  4 25  1  0
  5  9  4  0
  5 12  4  0
  6 13  1  0
  6 27  1  0
  7 28  4  0
  8 11  4  0
  9 29  4  0
 10 12  4  0
 11 24  1  0
 11 26  4  0
 12 25  1  0
 13 28  1  0
 14 20  4  0
 14 23  4  0
 15 17  4  0
 15 21  4  0
 16 19  4  0
 16 23  4  0
 17 22  4  0
 18 26  4  0
 19 24  4  0
 20 24  4  0
 22 27  4  0
 28 29  4  0
M  END
$$$$

 Created by Python create_sdf_string function

 29 33  0  0  0  0  0  0  0  0999 V2000
   10.7215   -3.3326   17.6437 C   0  0  0  0  0  0  0  0  0  0  0  0
    9.9489   -3.4675   24.6487 N   0  0  0  0  0  0  0  0  0  0  0  0
   10.0172   -4.4740   17.4101 C   0  0  0  0  0  0  0  0  0  0  0  0
    6.9051   -7.9575   16.4222 C   0  0  0  0  0  0  0  0  0  0  0  0
    8.9969   -6.3552   17.9668 N   0  0  0  0  0  0  0  0  0  0  0  0
   10.6702   -3.9051   22.4070 C   0  0  0  0  0  0  0  0  0  0  0  0
   11.0625   -3.0028   18.8894 C   0  0  0  0  0  0  0  0  0  0  0  0
    5.6180   -7.9194   16.1754 O   0  0  0  0  0  0  0  0  0  0  0  0
    9.7259   -5.3080   18.4485 C   0  0  0  0  0  0  0  0  0  0  0  0
    9.4578   -5.0200   16.3036 N   0  0  0  0  0  0  0  0  0  0  0  0
    5.0287   -8.9365   16.8223 C   0  0  0  0  0  0  0  0  0  0  0  0
    8.7742   -6.1498   16.6764 C   0  0  0  0  0  0  0  0  0  0  0  0
   10.9418   -3.4032   21.2053 O   0  0  0  0  0  0  0  0  0  0  0  0
    1.4797   -8.6258   16.2950 C   0  0  0  0  0  0  0  0  0  0  0  0
    9.2861   -1.2743   25.3585 C   0  0  0  0  0  0  0  0  0  0  0  0
    1.8892  -10.3985   17.7511 N   0  0  0  0  0  0  0  0  0  0  0  0
    9.6210   -0.6952   24.0976 C   0  0  0  0  0  0  0  0  0  0  0  0
    7.0792   -9.0217   17.1429 C   0  0  0  0  0  0  0  0  0  0  0  0
    3.1713  -10.1816   17.6634 C   0  0  0  0  0  0  0  0  0  0  0  0
    2.7878   -8.3822   16.2137 C   0  0  0  0  0  0  0  0  0  0  0  0
    9.4601   -2.6590   25.6528 C   0  0  0  0  0  0  0  0  0  0  0  0
   10.1182   -1.5672   23.1165 C   0  0  0  0  0  0  0  0  0  0  0  0
    1.0552   -9.6360   17.0650 C   0  0  0  0  0  0  0  0  0  0  0  0
    3.6519   -9.1783   16.9039 C   0  0  0  0  0  0  0  0  0  0  0  0
    7.8675   -7.0096   15.9415 C   0  0  0  0  0  0  0  0  0  0  0  0
    5.9733   -9.6553   17.3832 N   0  0  0  0  0  0  0  0  0  0  0  0
   10.2411   -2.9363   23.4301 C   0  0  0  0  0  0  0  0  0  0  0  0
   10.7288   -3.8197   19.9525 C   0  0  0  0  0  0  0  0  0  0  0  0
   10.1189   -5.0054   19.6987 C   0  0  0  0  0  0  0  0  0  0  0  0
  1  3  4  0
  1  7  4  0
  2 21  4  0
  2 27  4  0
  3  9  4  0
  3 10  4  0
  4  8  4  0
  4 18  4  0
  4 25  1  0
  5  9  4  0
  5 12  4  0
  6 13  1  0
  6 27  1  0
  7 28  4  0
  8 11  4  0
  9 29  4  0
 10 12  4  0
 11 24  1  0
 11 26  4  0
 12 25  1  0
 13 28  1  0
 14 20  4  0
 14 23  4  0
 15 17  4  0
 15 21  4  0
 16 19  4  0
 16 23  4  0
 17 22  4  0
 18 26  4  0
 19 24  4  0
 20 24  4  0
 22 27  4  0
 28 29  4  0
M  END
$$$$

 Created by Python create_sdf_string function

 29 33  0  0  0  0  0  0  0  0999 V2000
   10.7215   -3.3326   17.6437 C   0  0  0  0  0  0  0  0  0  0  0  0
    9.9489   -3.4675   24.6487 N   0  0  0  0  0  0  0  0  0  0  0  0
   10.0172   -4.4740   17.4101 C   0  0  0  0  0  0  0  0  0  0  0  0
    6.9051   -7.9575   16.4222 C   0  0  0  0  0  0  0  0  0  0  0  0
    8.9969   -6.3552   17.9668 N   0  0  0  0  0  0  0  0  0  0  0  0
   10.6702   -3.9051   22.4070 C   0  0  0  0  0  0  0  0  0  0  0  0
   11.0625   -3.0028   18.8894 C   0  0  0  0  0  0  0  0  0  0  0  0
    5.6180   -7.9194   16.1754 O   0  0  0  0  0  0  0  0  0  0  0  0
    9.7259   -5.3080   18.4485 C   0  0  0  0  0  0  0  0  0  0  0  0
    9.4578   -5.0200   16.3036 N   0  0  0  0  0  0  0  0  0  0  0  0
    5.0287   -8.9365   16.8223 C   0  0  0  0  0  0  0  0  0  0  0  0
    8.7742   -6.1498   16.6764 C   0  0  0  0  0  0  0  0  0  0  0  0
   10.9418   -3.4032   21.2053 O   0  0  0  0  0  0  0  0  0  0  0  0
    1.4797   -8.6258   16.2950 C   0  0  0  0  0  0  0  0  0  0  0  0
    9.2861   -1.2743   25.3585 C   0  0  0  0  0  0  0  0  0  0  0  0
    1.8892  -10.3985   17.7511 N   0  0  0  0  0  0  0  0  0  0  0  0
    9.6210   -0.6952   24.0976 C   0  0  0  0  0  0  0  0  0  0  0  0
    7.0792   -9.0217   17.1429 C   0  0  0  0  0  0  0  0  0  0  0  0
    3.1713  -10.1816   17.6634 C   0  0  0  0  0  0  0  0  0  0  0  0
    2.7878   -8.3822   16.2137 C   0  0  0  0  0  0  0  0  0  0  0  0
    9.4601   -2.6590   25.6528 C   0  0  0  0  0  0  0  0  0  0  0  0
   10.1182   -1.5672   23.1165 C   0  0  0  0  0  0  0  0  0  0  0  0
    1.0552   -9.6360   17.0650 C   0  0  0  0  0  0  0  0  0  0  0  0
    3.6519   -9.1783   16.9039 C   0  0  0  0  0  0  0  0  0  0  0  0
    7.8675   -7.0096   15.9415 C   0  0  0  0  0  0  0  0  0  0  0  0
    5.9733   -9.6553   17.3832 N   0  0  0  0  0  0  0  0  0  0  0  0
   10.2411   -2.9363   23.4301 C   0  0  0  0  0  0  0  0  0  0  0  0
   10.7288   -3.8197   19.9525 C   0  0  0  0  0  0  0  0  0  0  0  0
   10.1189   -5.0054   19.6987 C   0  0  0  0  0  0  0  0  0  0  0  0
  1  3  4  0
  1  7  4  0
  2 21  4  0
  2 27  4  0
  3  9  4  0
  3 10  4  0
  4  8  4  0
  4 18  4  0
  4 25  1  0
  5  9  4  0
  5 12  4  0
  6 13  1  0
  6 27  1  0
  7 28  4  0
  8 11  4  0
  9 29  4  0
 10 12  4  0
 11 24  1  0
 11 26  4  0
 12 25  1  0
 13 28  1  0
 14 20  4  0
 14 23  4  0
 15 17  4  0
 15 21  4  0
 16 19  4  0
 16 23  4  0
 17 22  4  0
 18 26  4  0
 19 24  4  0
 20 24  4  0
 22 27  4  0
 28 29  4  0
M  END
$$$$

 Created by Python create_sdf_string function

 29 33  0  0  0  0  0  0  0  0999 V2000
   10.7215   -3.3326   17.6437 C   0  0  0  0  0  0  0  0  0  0  0  0
    9.9489   -3.4675   24.6487 N   0  0  0  0  0  0  0  0  0  0  0  0
   10.0172   -4.4740   17.4101 C   0  0  0  0  0  0  0  0  0  0  0  0
    6.9051   -7.9575   16.4222 C   0  0  0  0  0  0  0  0  0  0  0  0
    8.9969   -6.3552   17.9668 N   0  0  0  0  0  0  0  0  0  0  0  0
   10.6702   -3.9051   22.4070 C   0  0  0  0  0  0  0  0  0  0  0  0
   11.0625   -3.0028   18.8894 C   0  0  0  0  0  0  0  0  0  0  0  0
    5.6180   -7.9194   16.1754 O   0  0  0  0  0  0  0  0  0  0  0  0
    9.7259   -5.3080   18.4485 C   0  0  0  0  0  0  0  0  0  0  0  0
    9.4578   -5.0200   16.3036 N   0  0  0  0  0  0  0  0  0  0  0  0
    5.0287   -8.9365   16.8223 C   0  0  0  0  0  0  0  0  0  0  0  0
    8.7742   -6.1498   16.6764 C   0  0  0  0  0  0  0  0  0  0  0  0
   10.9418   -3.4032   21.2053 O   0  0  0  0  0  0  0  0  0  0  0  0
    1.4797   -8.6258   16.2950 C   0  0  0  0  0  0  0  0  0  0  0  0
    9.2861   -1.2743   25.3585 C   0  0  0  0  0  0  0  0  0  0  0  0
    1.8892  -10.3985   17.7511 N   0  0  0  0  0  0  0  0  0  0  0  0
    9.6210   -0.6952   24.0976 C   0  0  0  0  0  0  0  0  0  0  0  0
    7.0792   -9.0217   17.1429 C   0  0  0  0  0  0  0  0  0  0  0  0
    3.1713  -10.1816   17.6634 C   0  0  0  0  0  0  0  0  0  0  0  0
    2.7878   -8.3822   16.2137 C   0  0  0  0  0  0  0  0  0  0  0  0
    9.4601   -2.6590   25.6528 C   0  0  0  0  0  0  0  0  0  0  0  0
   10.1182   -1.5672   23.1165 C   0  0  0  0  0  0  0  0  0  0  0  0
    1.0552   -9.6360   17.0650 C   0  0  0  0  0  0  0  0  0  0  0  0
    3.6519   -9.1783   16.9039 C   0  0  0  0  0  0  0  0  0  0  0  0
    7.8675   -7.0096   15.9415 C   0  0  0  0  0  0  0  0  0  0  0  0
    5.9733   -9.6553   17.3832 N   0  0  0  0  0  0  0  0  0  0  0  0
   10.2411   -2.9363   23.4301 C   0  0  0  0  0  0  0  0  0  0  0  0
   10.7288   -3.8197   19.9525 C   0  0  0  0  0  0  0  0  0  0  0  0
   10.1189   -5.0054   19.6987 C   0  0  0  0  0  0  0  0  0  0  0  0
  1  3  4  0
  1  7  4  0
  2 21  4  0
  2 27  4  0
  3  9  4  0
  3 10  4  0
  4  8  4  0
  4 18  4  0
  4 25  1  0
  5  9  4  0
  5 12  4  0
  6 13  1  0
  6 27  1  0
  7 28  4  0
  8 11  4  0
  9 29  4  0
 10 12  4  0
 11 24  1  0
 11 26  4  0
 12 25  1  0
 13 28  1  0
 14 20  4  0
 14 23  4  0
 15 17  4  0
 15 21  4  0
 16 19  4  0
 16 23  4  0
 17 22  4  0
 18 26  4  0
 19 24  4  0
 20 24  4  0
 22 27  4  0
 28 29  4  0
M  END
$$$$

 Created by Python create_sdf_string function

 29 33  0  0  0  0  0  0  0  0999 V2000
   10.7215   -3.3326   17.6437 C   0  0  0  0  0  0  0  0  0  0  0  0
    9.9489   -3.4675   24.6487 N   0  0  0  0  0  0  0  0  0  0  0  0
   10.0172   -4.4740   17.4101 C   0  0  0  0  0  0  0  0  0  0  0  0
    6.9051   -7.9575   16.4222 C   0  0  0  0  0  0  0  0  0  0  0  0
    8.9969   -6.3552   17.9668 N   0  0  0  0  0  0  0  0  0  0  0  0
   10.6702   -3.9051   22.4070 C   0  0  0  0  0  0  0  0  0  0  0  0
   11.0625   -3.0028   18.8894 C   0  0  0  0  0  0  0  0  0  0  0  0
    5.6180   -7.9194   16.1754 O   0  0  0  0  0  0  0  0  0  0  0  0
    9.7259   -5.3080   18.4485 C   0  0  0  0  0  0  0  0  0  0  0  0
    9.4578   -5.0200   16.3036 N   0  0  0  0  0  0  0  0  0  0  0  0
    5.0287   -8.9365   16.8223 C   0  0  0  0  0  0  0  0  0  0  0  0
    8.7742   -6.1498   16.6764 C   0  0  0  0  0  0  0  0  0  0  0  0
   10.9418   -3.4032   21.2053 O   0  0  0  0  0  0  0  0  0  0  0  0
    1.4797   -8.6258   16.2950 C   0  0  0  0  0  0  0  0  0  0  0  0
    9.2861   -1.2743   25.3585 C   0  0  0  0  0  0  0  0  0  0  0  0
    1.8892  -10.3985   17.7511 N   0  0  0  0  0  0  0  0  0  0  0  0
    9.6210   -0.6952   24.0976 C   0  0  0  0  0  0  0  0  0  0  0  0
    7.0792   -9.0217   17.1429 C   0  0  0  0  0  0  0  0  0  0  0  0
    3.1713  -10.1816   17.6634 C   0  0  0  0  0  0  0  0  0  0  0  0
    2.7878   -8.3822   16.2137 C   0  0  0  0  0  0  0  0  0  0  0  0
    9.4601   -2.6590   25.6528 C   0  0  0  0  0  0  0  0  0  0  0  0
   10.1182   -1.5672   23.1165 C   0  0  0  0  0  0  0  0  0  0  0  0
    1.0552   -9.6360   17.0650 C   0  0  0  0  0  0  0  0  0  0  0  0
    3.6519   -9.1783   16.9039 C   0  0  0  0  0  0  0  0  0  0  0  0
    7.8675   -7.0096   15.9415 C   0  0  0  0  0  0  0  0  0  0  0  0
    5.9733   -9.6553   17.3832 N   0  0  0  0  0  0  0  0  0  0  0  0
   10.2411   -2.9363   23.4301 C   0  0  0  0  0  0  0  0  0  0  0  0
   10.7288   -3.8197   19.9525 C   0  0  0  0  0  0  0  0  0  0  0  0
   10.1189   -5.0054   19.6987 C   0  0  0  0  0  0  0  0  0  0  0  0
  1  3  4  0
  1  7  4  0
  2 21  4  0
  2 27  4  0
  3  9  4  0
  3 10  4  0
  4  8  4  0
  4 18  4  0
  4 25  1  0
  5  9  4  0
  5 12  4  0
  6 13  1  0
  6 27  1  0
  7 28  4  0
  8 11  4  0
  9 29  4  0
 10 12  4  0
 11 24  1  0
 11 26  4  0
 12 25  1  0
 13 28  1  0
 14 20  4  0
 14 23  4  0
 15 17  4  0
 15 21  4  0
 16 19  4  0
 16 23  4  0
 17 22  4  0
 18 26  4  0
 19 24  4  0
 20 24  4  0
 22 27  4  0
 28 29  4  0
M  END
$$$$

 Created by Python create_sdf_string function

 29 33  0  0  0  0  0  0  0  0999 V2000
   10.7215   -3.3326   17.6437 C   0  0  0  0  0  0  0  0  0  0  0  0
    9.9489   -3.4675   24.6487 N   0  0  0  0  0  0  0  0  0  0  0  0
   10.0172   -4.4740   17.4101 C   0  0  0  0  0  0  0  0  0  0  0  0
    6.9051   -7.9575   16.4222 C   0  0  0  0  0  0  0  0  0  0  0  0
    8.9969   -6.3552   17.9668 N   0  0  0  0  0  0  0  0  0  0  0  0
   10.6702   -3.9051   22.4070 C   0  0  0  0  0  0  0  0  0  0  0  0
   11.0625   -3.0028   18.8894 C   0  0  0  0  0  0  0  0  0  0  0  0
    5.6180   -7.9194   16.1754 O   0  0  0  0  0  0  0  0  0  0  0  0
    9.7259   -5.3080   18.4485 C   0  0  0  0  0  0  0  0  0  0  0  0
    9.4578   -5.0200   16.3036 N   0  0  0  0  0  0  0  0  0  0  0  0
    5.0287   -8.9365   16.8223 C   0  0  0  0  0  0  0  0  0  0  0  0
    8.7742   -6.1498   16.6764 C   0  0  0  0  0  0  0  0  0  0  0  0
   10.9418   -3.4032   21.2053 O   0  0  0  0  0  0  0  0  0  0  0  0
    1.4797   -8.6258   16.2950 C   0  0  0  0  0  0  0  0  0  0  0  0
    9.2861   -1.2743   25.3585 C   0  0  0  0  0  0  0  0  0  0  0  0
    1.8892  -10.3985   17.7511 N   0  0  0  0  0  0  0  0  0  0  0  0
    9.6210   -0.6952   24.0976 C   0  0  0  0  0  0  0  0  0  0  0  0
    7.0792   -9.0217   17.1429 C   0  0  0  0  0  0  0  0  0  0  0  0
    3.1713  -10.1816   17.6634 C   0  0  0  0  0  0  0  0  0  0  0  0
    2.7878   -8.3822   16.2137 C   0  0  0  0  0  0  0  0  0  0  0  0
    9.4601   -2.6590   25.6528 C   0  0  0  0  0  0  0  0  0  0  0  0
   10.1182   -1.5672   23.1165 C   0  0  0  0  0  0  0  0  0  0  0  0
    1.0552   -9.6360   17.0650 C   0  0  0  0  0  0  0  0  0  0  0  0
    3.6519   -9.1783   16.9039 C   0  0  0  0  0  0  0  0  0  0  0  0
    7.8675   -7.0096   15.9415 C   0  0  0  0  0  0  0  0  0  0  0  0
    5.9733   -9.6553   17.3832 N   0  0  0  0  0  0  0  0  0  0  0  0
   10.2411   -2.9363   23.4301 C   0  0  0  0  0  0  0  0  0  0  0  0
   10.7288   -3.8197   19.9525 C   0  0  0  0  0  0  0  0  0  0  0  0
   10.1189   -5.0054   19.6987 C   0  0  0  0  0  0  0  0  0  0  0  0
  1  3  4  0
  1  7  4  0
  2 21  4  0
  2 27  4  0
  3  9  4  0
  3 10  4  0
  4  8  4  0
  4 18  4  0
  4 25  1  0
  5  9  4  0
  5 12  4  0
  6 13  1  0
  6 27  1  0
  7 28  4  0
  8 11  4  0
  9 29  4  0
 10 12  4  0
 11 24  1  0
 11 26  4  0
 12 25  1  0
 13 28  1  0
 14 20  4  0
 14 23  4  0
 15 17  4  0
 15 21  4  0
 16 19  4  0
 16 23  4  0
 17 22  4  0
 18 26  4  0
 19 24  4  0
 20 24  4  0
 22 27  4  0
 28 29  4  0
M  END
$$$$

 Created by Python create_sdf_string function

 29 33  0  0  0  0  0  0  0  0999 V2000
   10.7215   -3.3326   17.6437 C   0  0  0  0  0  0  0  0  0  0  0  0
    9.9489   -3.4675   24.6487 N   0  0  0  0  0  0  0  0  0  0  0  0
   10.0172   -4.4740   17.4101 C   0  0  0  0  0  0  0  0  0  0  0  0
    6.9051   -7.9575   16.4222 C   0  0  0  0  0  0  0  0  0  0  0  0
    8.9969   -6.3552   17.9668 N   0  0  0  0  0  0  0  0  0  0  0  0
   10.6702   -3.9051   22.4070 C   0  0  0  0  0  0  0  0  0  0  0  0
   11.0625   -3.0028   18.8894 C   0  0  0  0  0  0  0  0  0  0  0  0
    5.6180   -7.9194   16.1754 O   0  0  0  0  0  0  0  0  0  0  0  0
    9.7259   -5.3080   18.4485 C   0  0  0  0  0  0  0  0  0  0  0  0
    9.4578   -5.0200   16.3036 N   0  0  0  0  0  0  0  0  0  0  0  0
    5.0287   -8.9365   16.8223 C   0  0  0  0  0  0  0  0  0  0  0  0
    8.7742   -6.1498   16.6764 C   0  0  0  0  0  0  0  0  0  0  0  0
   10.9418   -3.4032   21.2053 O   0  0  0  0  0  0  0  0  0  0  0  0
    1.4797   -8.6258   16.2950 C   0  0  0  0  0  0  0  0  0  0  0  0
    9.2861   -1.2743   25.3585 C   0  0  0  0  0  0  0  0  0  0  0  0
    1.8892  -10.3985   17.7511 N   0  0  0  0  0  0  0  0  0  0  0  0
    9.6210   -0.6952   24.0976 C   0  0  0  0  0  0  0  0  0  0  0  0
    7.0792   -9.0217   17.1429 C   0  0  0  0  0  0  0  0  0  0  0  0
    3.1713  -10.1816   17.6634 C   0  0  0  0  0  0  0  0  0  0  0  0
    2.7878   -8.3822   16.2137 C   0  0  0  0  0  0  0  0  0  0  0  0
    9.4601   -2.6590   25.6528 C   0  0  0  0  0  0  0  0  0  0  0  0
   10.1182   -1.5672   23.1165 C   0  0  0  0  0  0  0  0  0  0  0  0
    1.0552   -9.6360   17.0650 C   0  0  0  0  0  0  0  0  0  0  0  0
    3.6519   -9.1783   16.9039 C   0  0  0  0  0  0  0  0  0  0  0  0
    7.8675   -7.0096   15.9415 C   0  0  0  0  0  0  0  0  0  0  0  0
    5.9733   -9.6553   17.3832 N   0  0  0  0  0  0  0  0  0  0  0  0
   10.2411   -2.9363   23.4301 C   0  0  0  0  0  0  0  0  0  0  0  0
   10.7288   -3.8197   19.9525 C   0  0  0  0  0  0  0  0  0  0  0  0
   10.1189   -5.0054   19.6987 C   0  0  0  0  0  0  0  0  0  0  0  0
  1  3  4  0
  1  7  4  0
  2 21  4  0
  2 27  4  0
  3  9  4  0
  3 10  4  0
  4  8  4  0
  4 18  4  0
  4 25  1  0
  5  9  4  0
  5 12  4  0
  6 13  1  0
  6 27  1  0
  7 28  4  0
  8 11  4  0
  9 29  4  0
 10 12  4  0
 11 24  1  0
 11 26  4  0
 12 25  1  0
 13 28  1  0
 14 20  4  0
 14 23  4  0
 15 17  4  0
 15 21  4  0
 16 19  4  0
 16 23  4  0
 17 22  4  0
 18 26  4  0
 19 24  4  0
 20 24  4  0
 22 27  4  0
 28 29  4  0
M  END
$$$$

 Created by Python create_sdf_string function

 29 33  0  0  0  0  0  0  0  0999 V2000
   10.7215   -3.3326   17.6437 C   0  0  0  0  0  0  0  0  0  0  0  0
    9.9489   -3.4675   24.6487 N   0  0  0  0  0  0  0  0  0  0  0  0
   10.0172   -4.4740   17.4101 C   0  0  0  0  0  0  0  0  0  0  0  0
    6.9051   -7.9575   16.4222 C   0  0  0  0  0  0  0  0  0  0  0  0
    8.9969   -6.3552   17.9668 N   0  0  0  0  0  0  0  0  0  0  0  0
   10.6702   -3.9051   22.4070 C   0  0  0  0  0  0  0  0  0  0  0  0
   11.0625   -3.0028   18.8894 C   0  0  0  0  0  0  0  0  0  0  0  0
    5.6180   -7.9194   16.1754 O   0  0  0  0  0  0  0  0  0  0  0  0
    9.7259   -5.3080   18.4485 C   0  0  0  0  0  0  0  0  0  0  0  0
    9.4578   -5.0200   16.3036 N   0  0  0  0  0  0  0  0  0  0  0  0
    5.0287   -8.9365   16.8223 C   0  0  0  0  0  0  0  0  0  0  0  0
    8.7742   -6.1498   16.6764 C   0  0  0  0  0  0  0  0  0  0  0  0
   10.9418   -3.4032   21.2053 O   0  0  0  0  0  0  0  0  0  0  0  0
    1.4797   -8.6258   16.2950 C   0  0  0  0  0  0  0  0  0  0  0  0
    9.2861   -1.2743   25.3585 C   0  0  0  0  0  0  0  0  0  0  0  0
    1.8892  -10.3985   17.7511 N   0  0  0  0  0  0  0  0  0  0  0  0
    9.6210   -0.6952   24.0976 C   0  0  0  0  0  0  0  0  0  0  0  0
    7.0792   -9.0217   17.1429 C   0  0  0  0  0  0  0  0  0  0  0  0
    3.1713  -10.1816   17.6634 C   0  0  0  0  0  0  0  0  0  0  0  0
    2.7878   -8.3822   16.2137 C   0  0  0  0  0  0  0  0  0  0  0  0
    9.4601   -2.6590   25.6528 C   0  0  0  0  0  0  0  0  0  0  0  0
   10.1182   -1.5672   23.1165 C   0  0  0  0  0  0  0  0  0  0  0  0
    1.0552   -9.6360   17.0650 C   0  0  0  0  0  0  0  0  0  0  0  0
    3.6519   -9.1783   16.9039 C   0  0  0  0  0  0  0  0  0  0  0  0
    7.8675   -7.0096   15.9415 C   0  0  0  0  0  0  0  0  0  0  0  0
    5.9733   -9.6553   17.3832 N   0  0  0  0  0  0  0  0  0  0  0  0
   10.2411   -2.9363   23.4301 C   0  0  0  0  0  0  0  0  0  0  0  0
   10.7288   -3.8197   19.9525 C   0  0  0  0  0  0  0  0  0  0  0  0
   10.1189   -5.0054   19.6987 C   0  0  0  0  0  0  0  0  0  0  0  0
  1  3  4  0
  1  7  4  0
  2 21  4  0
  2 27  4  0
  3  9  4  0
  3 10  4  0
  4  8  4  0
  4 18  4  0
  4 25  1  0
  5  9  4  0
  5 12  4  0
  6 13  1  0
  6 27  1  0
  7 28  4  0
  8 11  4  0
  9 29  4  0
 10 12  4  0
 11 24  1  0
 11 26  4  0
 12 25  1  0
 13 28  1  0
 14 20  4  0
 14 23  4  0
 15 17  4  0
 15 21  4  0
 16 19  4  0
 16 23  4  0
 17 22  4  0
 18 26  4  0
 19 24  4  0
 20 24  4  0
 22 27  4  0
 28 29  4  0
M  END
$$$$

 Created by Python create_sdf_string function

 29 33  0  0  0  0  0  0  0  0999 V2000
   10.7215   -3.3326   17.6437 C   0  0  0  0  0  0  0  0  0  0  0  0
    9.9489   -3.4675   24.6487 N   0  0  0  0  0  0  0  0  0  0  0  0
   10.0172   -4.4740   17.4101 C   0  0  0  0  0  0  0  0  0  0  0  0
    6.9051   -7.9575   16.4222 C   0  0  0  0  0  0  0  0  0  0  0  0
    8.9969   -6.3552   17.9668 N   0  0  0  0  0  0  0  0  0  0  0  0
   10.6702   -3.9051   22.4070 C   0  0  0  0  0  0  0  0  0  0  0  0
   11.0625   -3.0028   18.8894 C   0  0  0  0  0  0  0  0  0  0  0  0
    5.6180   -7.9194   16.1754 O   0  0  0  0  0  0  0  0  0  0  0  0
    9.7259   -5.3080   18.4485 C   0  0  0  0  0  0  0  0  0  0  0  0
    9.4578   -5.0200   16.3036 N   0  0  0  0  0  0  0  0  0  0  0  0
    5.0287   -8.9365   16.8223 C   0  0  0  0  0  0  0  0  0  0  0  0
    8.7742   -6.1498   16.6764 C   0  0  0  0  0  0  0  0  0  0  0  0
   10.9418   -3.4032   21.2053 O   0  0  0  0  0  0  0  0  0  0  0  0
    1.4797   -8.6258   16.2950 C   0  0  0  0  0  0  0  0  0  0  0  0
    9.2861   -1.2743   25.3585 C   0  0  0  0  0  0  0  0  0  0  0  0
    1.8892  -10.3985   17.7511 N   0  0  0  0  0  0  0  0  0  0  0  0
    9.6210   -0.6952   24.0976 C   0  0  0  0  0  0  0  0  0  0  0  0
    7.0792   -9.0217   17.1429 C   0  0  0  0  0  0  0  0  0  0  0  0
    3.1713  -10.1816   17.6634 C   0  0  0  0  0  0  0  0  0  0  0  0
    2.7878   -8.3822   16.2137 C   0  0  0  0  0  0  0  0  0  0  0  0
    9.4601   -2.6590   25.6528 C   0  0  0  0  0  0  0  0  0  0  0  0
   10.1182   -1.5672   23.1165 C   0  0  0  0  0  0  0  0  0  0  0  0
    1.0552   -9.6360   17.0650 C   0  0  0  0  0  0  0  0  0  0  0  0
    3.6519   -9.1783   16.9039 C   0  0  0  0  0  0  0  0  0  0  0  0
    7.8675   -7.0096   15.9415 C   0  0  0  0  0  0  0  0  0  0  0  0
    5.9733   -9.6553   17.3832 N   0  0  0  0  0  0  0  0  0  0  0  0
   10.2411   -2.9363   23.4301 C   0  0  0  0  0  0  0  0  0  0  0  0
   10.7288   -3.8197   19.9525 C   0  0  0  0  0  0  0  0  0  0  0  0
   10.1189   -5.0054   19.6987 C   0  0  0  0  0  0  0  0  0  0  0  0
  1  3  4  0
  1  7  4  0
  2 21  4  0
  2 27  4  0
  3  9  4  0
  3 10  4  0
  4  8  4  0
  4 18  4  0
  4 25  1  0
  5  9  4  0
  5 12  4  0
  6 13  1  0
  6 27  1  0
  7 28  4  0
  8 11  4  0
  9 29  4  0
 10 12  4  0
 11 24  1  0
 11 26  4  0
 12 25  1  0
 13 28  1  0
 14 20  4  0
 14 23  4  0
 15 17  4  0
 15 21  4  0
 16 19  4  0
 16 23  4  0
 17 22  4  0
 18 26  4  0
 19 24  4  0
 20 24  4  0
 22 27  4  0
 28 29  4  0
M  END
$$$$

 Created by Python create_sdf_string function

 29 33  0  0  0  0  0  0  0  0999 V2000
   10.7215   -3.3326   17.6437 C   0  0  0  0  0  0  0  0  0  0  0  0
    9.9489   -3.4675   24.6487 N   0  0  0  0  0  0  0  0  0  0  0  0
   10.0172   -4.4740   17.4101 C   0  0  0  0  0  0  0  0  0  0  0  0
    6.9051   -7.9575   16.4222 C   0  0  0  0  0  0  0  0  0  0  0  0
    8.9969   -6.3552   17.9668 N   0  0  0  0  0  0  0  0  0  0  0  0
   10.6702   -3.9051   22.4070 C   0  0  0  0  0  0  0  0  0  0  0  0
   11.0625   -3.0028   18.8894 C   0  0  0  0  0  0  0  0  0  0  0  0
    5.6180   -7.9194   16.1754 O   0  0  0  0  0  0  0  0  0  0  0  0
    9.7259   -5.3080   18.4485 C   0  0  0  0  0  0  0  0  0  0  0  0
    9.4578   -5.0200   16.3036 N   0  0  0  0  0  0  0  0  0  0  0  0
    5.0287   -8.9365   16.8223 C   0  0  0  0  0  0  0  0  0  0  0  0
    8.7742   -6.1498   16.6764 C   0  0  0  0  0  0  0  0  0  0  0  0
   10.9418   -3.4032   21.2053 O   0  0  0  0  0  0  0  0  0  0  0  0
    1.4797   -8.6258   16.2950 C   0  0  0  0  0  0  0  0  0  0  0  0
    9.2861   -1.2743   25.3585 C   0  0  0  0  0  0  0  0  0  0  0  0
    1.8892  -10.3985   17.7511 N   0  0  0  0  0  0  0  0  0  0  0  0
    9.6210   -0.6952   24.0976 C   0  0  0  0  0  0  0  0  0  0  0  0
    7.0792   -9.0217   17.1429 C   0  0  0  0  0  0  0  0  0  0  0  0
    3.1713  -10.1816   17.6634 C   0  0  0  0  0  0  0  0  0  0  0  0
    2.7878   -8.3822   16.2137 C   0  0  0  0  0  0  0  0  0  0  0  0
    9.4601   -2.6590   25.6528 C   0  0  0  0  0  0  0  0  0  0  0  0
   10.1182   -1.5672   23.1165 C   0  0  0  0  0  0  0  0  0  0  0  0
    1.0552   -9.6360   17.0650 C   0  0  0  0  0  0  0  0  0  0  0  0
    3.6519   -9.1783   16.9039 C   0  0  0  0  0  0  0  0  0  0  0  0
    7.8675   -7.0096   15.9415 C   0  0  0  0  0  0  0  0  0  0  0  0
    5.9733   -9.6553   17.3832 N   0  0  0  0  0  0  0  0  0  0  0  0
   10.2411   -2.9363   23.4301 C   0  0  0  0  0  0  0  0  0  0  0  0
   10.7288   -3.8197   19.9525 C   0  0  0  0  0  0  0  0  0  0  0  0
   10.1189   -5.0054   19.6987 C   0  0  0  0  0  0  0  0  0  0  0  0
  1  3  4  0
  1  7  4  0
  2 21  4  0
  2 27  4  0
  3  9  4  0
  3 10  4  0
  4  8  4  0
  4 18  4  0
  4 25  1  0
  5  9  4  0
  5 12  4  0
  6 13  1  0
  6 27  1  0
  7 28  4  0
  8 11  4  0
  9 29  4  0
 10 12  4  0
 11 24  1  0
 11 26  4  0
 12 25  1  0
 13 28  1  0
 14 20  4  0
 14 23  4  0
 15 17  4  0
 15 21  4  0
 16 19  4  0
 16 23  4  0
 17 22  4  0
 18 26  4  0
 19 24  4  0
 20 24  4  0
 22 27  4  0
 28 29  4  0
M  END
$$$$

 Created by Python create_sdf_string function

 29 33  0  0  0  0  0  0  0  0999 V2000
   10.7215   -3.3326   17.6437 C   0  0  0  0  0  0  0  0  0  0  0  0
    9.9489   -3.4675   24.6487 N   0  0  0  0  0  0  0  0  0  0  0  0
   10.0172   -4.4740   17.4101 C   0  0  0  0  0  0  0  0  0  0  0  0
    6.9051   -7.9575   16.4222 C   0  0  0  0  0  0  0  0  0  0  0  0
    8.9969   -6.3552   17.9668 N   0  0  0  0  0  0  0  0  0  0  0  0
   10.6702   -3.9051   22.4070 C   0  0  0  0  0  0  0  0  0  0  0  0
   11.0625   -3.0028   18.8894 C   0  0  0  0  0  0  0  0  0  0  0  0
    5.6180   -7.9194   16.1754 O   0  0  0  0  0  0  0  0  0  0  0  0
    9.7259   -5.3080   18.4485 C   0  0  0  0  0  0  0  0  0  0  0  0
    9.4578   -5.0200   16.3036 N   0  0  0  0  0  0  0  0  0  0  0  0
    5.0287   -8.9365   16.8223 C   0  0  0  0  0  0  0  0  0  0  0  0
    8.7742   -6.1498   16.6764 C   0  0  0  0  0  0  0  0  0  0  0  0
   10.9418   -3.4032   21.2053 O   0  0  0  0  0  0  0  0  0  0  0  0
    1.4797   -8.6258   16.2950 C   0  0  0  0  0  0  0  0  0  0  0  0
    9.2861   -1.2743   25.3585 C   0  0  0  0  0  0  0  0  0  0  0  0
    1.8892  -10.3985   17.7511 N   0  0  0  0  0  0  0  0  0  0  0  0
    9.6210   -0.6952   24.0976 C   0  0  0  0  0  0  0  0  0  0  0  0
    7.0792   -9.0217   17.1429 C   0  0  0  0  0  0  0  0  0  0  0  0
    3.1713  -10.1816   17.6634 C   0  0  0  0  0  0  0  0  0  0  0  0
    2.7878   -8.3822   16.2137 C   0  0  0  0  0  0  0  0  0  0  0  0
    9.4601   -2.6590   25.6528 C   0  0  0  0  0  0  0  0  0  0  0  0
   10.1182   -1.5672   23.1165 C   0  0  0  0  0  0  0  0  0  0  0  0
    1.0552   -9.6360   17.0650 C   0  0  0  0  0  0  0  0  0  0  0  0
    3.6519   -9.1783   16.9039 C   0  0  0  0  0  0  0  0  0  0  0  0
    7.8675   -7.0096   15.9415 C   0  0  0  0  0  0  0  0  0  0  0  0
    5.9733   -9.6553   17.3832 N   0  0  0  0  0  0  0  0  0  0  0  0
   10.2411   -2.9363   23.4301 C   0  0  0  0  0  0  0  0  0  0  0  0
   10.7288   -3.8197   19.9525 C   0  0  0  0  0  0  0  0  0  0  0  0
   10.1189   -5.0054   19.6987 C   0  0  0  0  0  0  0  0  0  0  0  0
  1  3  4  0
  1  7  4  0
  2 21  4  0
  2 27  4  0
  3  9  4  0
  3 10  4  0
  4  8  4  0
  4 18  4  0
  4 25  1  0
  5  9  4  0
  5 12  4  0
  6 13  1  0
  6 27  1  0
  7 28  4  0
  8 11  4  0
  9 29  4  0
 10 12  4  0
 11 24  1  0
 11 26  4  0
 12 25  1  0
 13 28  1  0
 14 20  4  0
 14 23  4  0
 15 17  4  0
 15 21  4  0
 16 19  4  0
 16 23  4  0
 17 22  4  0
 18 26  4  0
 19 24  4  0
 20 24  4  0
 22 27  4  0
 28 29  4  0
M  END
$$$$

 Created by Python create_sdf_string function

 29 33  0  0  0  0  0  0  0  0999 V2000
   10.7215   -3.3326   17.6437 C   0  0  0  0  0  0  0  0  0  0  0  0
    9.9489   -3.4675   24.6487 N   0  0  0  0  0  0  0  0  0  0  0  0
   10.0172   -4.4740   17.4101 C   0  0  0  0  0  0  0  0  0  0  0  0
    6.9051   -7.9575   16.4222 C   0  0  0  0  0  0  0  0  0  0  0  0
    8.9969   -6.3552   17.9668 N   0  0  0  0  0  0  0  0  0  0  0  0
   10.6702   -3.9051   22.4070 C   0  0  0  0  0  0  0  0  0  0  0  0
   11.0625   -3.0028   18.8894 C   0  0  0  0  0  0  0  0  0  0  0  0
    5.6180   -7.9194   16.1754 O   0  0  0  0  0  0  0  0  0  0  0  0
    9.7259   -5.3080   18.4485 C   0  0  0  0  0  0  0  0  0  0  0  0
    9.4578   -5.0200   16.3036 N   0  0  0  0  0  0  0  0  0  0  0  0
    5.0287   -8.9365   16.8223 C   0  0  0  0  0  0  0  0  0  0  0  0
    8.7742   -6.1498   16.6764 C   0  0  0  0  0  0  0  0  0  0  0  0
   10.9418   -3.4032   21.2053 O   0  0  0  0  0  0  0  0  0  0  0  0
    1.4797   -8.6258   16.2950 C   0  0  0  0  0  0  0  0  0  0  0  0
    9.2861   -1.2743   25.3585 C   0  0  0  0  0  0  0  0  0  0  0  0
    1.8892  -10.3985   17.7511 N   0  0  0  0  0  0  0  0  0  0  0  0
    9.6210   -0.6952   24.0976 C   0  0  0  0  0  0  0  0  0  0  0  0
    7.0792   -9.0217   17.1429 C   0  0  0  0  0  0  0  0  0  0  0  0
    3.1713  -10.1816   17.6634 C   0  0  0  0  0  0  0  0  0  0  0  0
    2.7878   -8.3822   16.2137 C   0  0  0  0  0  0  0  0  0  0  0  0
    9.4601   -2.6590   25.6528 C   0  0  0  0  0  0  0  0  0  0  0  0
   10.1182   -1.5672   23.1165 C   0  0  0  0  0  0  0  0  0  0  0  0
    1.0552   -9.6360   17.0650 C   0  0  0  0  0  0  0  0  0  0  0  0
    3.6519   -9.1783   16.9039 C   0  0  0  0  0  0  0  0  0  0  0  0
    7.8675   -7.0096   15.9415 C   0  0  0  0  0  0  0  0  0  0  0  0
    5.9733   -9.6553   17.3832 N   0  0  0  0  0  0  0  0  0  0  0  0
   10.2411   -2.9363   23.4301 C   0  0  0  0  0  0  0  0  0  0  0  0
   10.7288   -3.8197   19.9525 C   0  0  0  0  0  0  0  0  0  0  0  0
   10.1189   -5.0054   19.6987 C   0  0  0  0  0  0  0  0  0  0  0  0
  1  3  4  0
  1  7  4  0
  2 21  4  0
  2 27  4  0
  3  9  4  0
  3 10  4  0
  4  8  4  0
  4 18  4  0
  4 25  1  0
  5  9  4  0
  5 12  4  0
  6 13  1  0
  6 27  1  0
  7 28  4  0
  8 11  4  0
  9 29  4  0
 10 12  4  0
 11 24  1  0
 11 26  4  0
 12 25  1  0
 13 28  1  0
 14 20  4  0
 14 23  4  0
 15 17  4  0
 15 21  4  0
 16 19  4  0
 16 23  4  0
 17 22  4  0
 18 26  4  0
 19 24  4  0
 20 24  4  0
 22 27  4  0
 28 29  4  0
M  END
$$$$

 Created by Python create_sdf_string function

 29 33  0  0  0  0  0  0  0  0999 V2000
   10.7215   -3.3326   17.6437 C   0  0  0  0  0  0  0  0  0  0  0  0
    9.9489   -3.4675   24.6487 N   0  0  0  0  0  0  0  0  0  0  0  0
   10.0172   -4.4740   17.4101 C   0  0  0  0  0  0  0  0  0  0  0  0
    6.9051   -7.9575   16.4222 C   0  0  0  0  0  0  0  0  0  0  0  0
    8.9969   -6.3552   17.9668 N   0  0  0  0  0  0  0  0  0  0  0  0
   10.6702   -3.9051   22.4070 C   0  0  0  0  0  0  0  0  0  0  0  0
   11.0625   -3.0028   18.8894 C   0  0  0  0  0  0  0  0  0  0  0  0
    5.6180   -7.9194   16.1754 O   0  0  0  0  0  0  0  0  0  0  0  0
    9.7259   -5.3080   18.4485 C   0  0  0  0  0  0  0  0  0  0  0  0
    9.4578   -5.0200   16.3036 N   0  0  0  0  0  0  0  0  0  0  0  0
    5.0287   -8.9365   16.8223 C   0  0  0  0  0  0  0  0  0  0  0  0
    8.7742   -6.1498   16.6764 C   0  0  0  0  0  0  0  0  0  0  0  0
   10.9418   -3.4032   21.2053 O   0  0  0  0  0  0  0  0  0  0  0  0
    1.4797   -8.6258   16.2950 C   0  0  0  0  0  0  0  0  0  0  0  0
    9.2861   -1.2743   25.3585 C   0  0  0  0  0  0  0  0  0  0  0  0
    1.8892  -10.3985   17.7511 N   0  0  0  0  0  0  0  0  0  0  0  0
    9.6210   -0.6952   24.0976 C   0  0  0  0  0  0  0  0  0  0  0  0
    7.0792   -9.0217   17.1429 C   0  0  0  0  0  0  0  0  0  0  0  0
    3.1713  -10.1816   17.6634 C   0  0  0  0  0  0  0  0  0  0  0  0
    2.7878   -8.3822   16.2137 C   0  0  0  0  0  0  0  0  0  0  0  0
    9.4601   -2.6590   25.6528 C   0  0  0  0  0  0  0  0  0  0  0  0
   10.1182   -1.5672   23.1165 C   0  0  0  0  0  0  0  0  0  0  0  0
    1.0552   -9.6360   17.0650 C   0  0  0  0  0  0  0  0  0  0  0  0
    3.6519   -9.1783   16.9039 C   0  0  0  0  0  0  0  0  0  0  0  0
    7.8675   -7.0096   15.9415 C   0  0  0  0  0  0  0  0  0  0  0  0
    5.9733   -9.6553   17.3832 N   0  0  0  0  0  0  0  0  0  0  0  0
   10.2411   -2.9363   23.4301 C   0  0  0  0  0  0  0  0  0  0  0  0
   10.7288   -3.8197   19.9525 C   0  0  0  0  0  0  0  0  0  0  0  0
   10.1189   -5.0054   19.6987 C   0  0  0  0  0  0  0  0  0  0  0  0
  1  3  4  0
  1  7  4  0
  2 21  4  0
  2 27  4  0
  3  9  4  0
  3 10  4  0
  4  8  4  0
  4 18  4  0
  4 25  1  0
  5  9  4  0
  5 12  4  0
  6 13  1  0
  6 27  1  0
  7 28  4  0
  8 11  4  0
  9 29  4  0
 10 12  4  0
 11 24  1  0
 11 26  4  0
 12 25  1  0
 13 28  1  0
 14 20  4  0
 14 23  4  0
 15 17  4  0
 15 21  4  0
 16 19  4  0
 16 23  4  0
 17 22  4  0
 18 26  4  0
 19 24  4  0
 20 24  4  0
 22 27  4  0
 28 29  4  0
M  END
$$$$

 Created by Python create_sdf_string function

 29 33  0  0  0  0  0  0  0  0999 V2000
   10.7215   -3.3326   17.6437 C   0  0  0  0  0  0  0  0  0  0  0  0
    9.9489   -3.4675   24.6487 N   0  0  0  0  0  0  0  0  0  0  0  0
   10.0172   -4.4740   17.4101 C   0  0  0  0  0  0  0  0  0  0  0  0
    6.9051   -7.9575   16.4222 C   0  0  0  0  0  0  0  0  0  0  0  0
    8.9969   -6.3552   17.9668 N   0  0  0  0  0  0  0  0  0  0  0  0
   10.6702   -3.9051   22.4070 C   0  0  0  0  0  0  0  0  0  0  0  0
   11.0625   -3.0028   18.8894 C   0  0  0  0  0  0  0  0  0  0  0  0
    5.6180   -7.9194   16.1754 O   0  0  0  0  0  0  0  0  0  0  0  0
    9.7259   -5.3080   18.4485 C   0  0  0  0  0  0  0  0  0  0  0  0
    9.4578   -5.0200   16.3036 N   0  0  0  0  0  0  0  0  0  0  0  0
    5.0287   -8.9365   16.8223 C   0  0  0  0  0  0  0  0  0  0  0  0
    8.7742   -6.1498   16.6764 C   0  0  0  0  0  0  0  0  0  0  0  0
   10.9418   -3.4032   21.2053 O   0  0  0  0  0  0  0  0  0  0  0  0
    1.4797   -8.6258   16.2950 C   0  0  0  0  0  0  0  0  0  0  0  0
    9.2861   -1.2743   25.3585 C   0  0  0  0  0  0  0  0  0  0  0  0
    1.8892  -10.3985   17.7511 N   0  0  0  0  0  0  0  0  0  0  0  0
    9.6210   -0.6952   24.0976 C   0  0  0  0  0  0  0  0  0  0  0  0
    7.0792   -9.0217   17.1429 C   0  0  0  0  0  0  0  0  0  0  0  0
    3.1713  -10.1816   17.6634 C   0  0  0  0  0  0  0  0  0  0  0  0
    2.7878   -8.3822   16.2137 C   0  0  0  0  0  0  0  0  0  0  0  0
    9.4601   -2.6590   25.6528 C   0  0  0  0  0  0  0  0  0  0  0  0
   10.1182   -1.5672   23.1165 C   0  0  0  0  0  0  0  0  0  0  0  0
    1.0552   -9.6360   17.0650 C   0  0  0  0  0  0  0  0  0  0  0  0
    3.6519   -9.1783   16.9039 C   0  0  0  0  0  0  0  0  0  0  0  0
    7.8675   -7.0096   15.9415 C   0  0  0  0  0  0  0  0  0  0  0  0
    5.9733   -9.6553   17.3832 N   0  0  0  0  0  0  0  0  0  0  0  0
   10.2411   -2.9363   23.4301 C   0  0  0  0  0  0  0  0  0  0  0  0
   10.7288   -3.8197   19.9525 C   0  0  0  0  0  0  0  0  0  0  0  0
   10.1189   -5.0054   19.6987 C   0  0  0  0  0  0  0  0  0  0  0  0
  1  3  4  0
  1  7  4  0
  2 21  4  0
  2 27  4  0
  3  9  4  0
  3 10  4  0
  4  8  4  0
  4 18  4  0
  4 25  1  0
  5  9  4  0
  5 12  4  0
  6 13  1  0
  6 27  1  0
  7 28  4  0
  8 11  4  0
  9 29  4  0
 10 12  4  0
 11 24  1  0
 11 26  4  0
 12 25  1  0
 13 28  1  0
 14 20  4  0
 14 23  4  0
 15 17  4  0
 15 21  4  0
 16 19  4  0
 16 23  4  0
 17 22  4  0
 18 26  4  0
 19 24  4  0
 20 24  4  0
 22 27  4  0
 28 29  4  0
M  END
$$$$

 Created by Python create_sdf_string function

 29 33  0  0  0  0  0  0  0  0999 V2000
   10.7215   -3.3326   17.6437 C   0  0  0  0  0  0  0  0  0  0  0  0
    9.9489   -3.4675   24.6487 N   0  0  0  0  0  0  0  0  0  0  0  0
   10.0172   -4.4740   17.4101 C   0  0  0  0  0  0  0  0  0  0  0  0
    6.9051   -7.9575   16.4222 C   0  0  0  0  0  0  0  0  0  0  0  0
    8.9969   -6.3552   17.9668 N   0  0  0  0  0  0  0  0  0  0  0  0
   10.6702   -3.9051   22.4070 C   0  0  0  0  0  0  0  0  0  0  0  0
   11.0625   -3.0028   18.8894 C   0  0  0  0  0  0  0  0  0  0  0  0
    5.6180   -7.9194   16.1754 O   0  0  0  0  0  0  0  0  0  0  0  0
    9.7259   -5.3080   18.4485 C   0  0  0  0  0  0  0  0  0  0  0  0
    9.4578   -5.0200   16.3036 N   0  0  0  0  0  0  0  0  0  0  0  0
    5.0287   -8.9365   16.8223 C   0  0  0  0  0  0  0  0  0  0  0  0
    8.7742   -6.1498   16.6764 C   0  0  0  0  0  0  0  0  0  0  0  0
   10.9418   -3.4032   21.2053 O   0  0  0  0  0  0  0  0  0  0  0  0
    1.4797   -8.6258   16.2950 C   0  0  0  0  0  0  0  0  0  0  0  0
    9.2861   -1.2743   25.3585 C   0  0  0  0  0  0  0  0  0  0  0  0
    1.8892  -10.3985   17.7511 N   0  0  0  0  0  0  0  0  0  0  0  0
    9.6210   -0.6952   24.0976 C   0  0  0  0  0  0  0  0  0  0  0  0
    7.0792   -9.0217   17.1429 C   0  0  0  0  0  0  0  0  0  0  0  0
    3.1713  -10.1816   17.6634 C   0  0  0  0  0  0  0  0  0  0  0  0
    2.7878   -8.3822   16.2137 C   0  0  0  0  0  0  0  0  0  0  0  0
    9.4601   -2.6590   25.6528 C   0  0  0  0  0  0  0  0  0  0  0  0
   10.1182   -1.5672   23.1165 C   0  0  0  0  0  0  0  0  0  0  0  0
    1.0552   -9.6360   17.0650 C   0  0  0  0  0  0  0  0  0  0  0  0
    3.6519   -9.1783   16.9039 C   0  0  0  0  0  0  0  0  0  0  0  0
    7.8675   -7.0096   15.9415 C   0  0  0  0  0  0  0  0  0  0  0  0
    5.9733   -9.6553   17.3832 N   0  0  0  0  0  0  0  0  0  0  0  0
   10.2411   -2.9363   23.4301 C   0  0  0  0  0  0  0  0  0  0  0  0
   10.7288   -3.8197   19.9525 C   0  0  0  0  0  0  0  0  0  0  0  0
   10.1189   -5.0054   19.6987 C   0  0  0  0  0  0  0  0  0  0  0  0
  1  3  4  0
  1  7  4  0
  2 21  4  0
  2 27  4  0
  3  9  4  0
  3 10  4  0
  4  8  4  0
  4 18  4  0
  4 25  1  0
  5  9  4  0
  5 12  4  0
  6 13  1  0
  6 27  1  0
  7 28  4  0
  8 11  4  0
  9 29  4  0
 10 12  4  0
 11 24  1  0
 11 26  4  0
 12 25  1  0
 13 28  1  0
 14 20  4  0
 14 23  4  0
 15 17  4  0
 15 21  4  0
 16 19  4  0
 16 23  4  0
 17 22  4  0
 18 26  4  0
 19 24  4  0
 20 24  4  0
 22 27  4  0
 28 29  4  0
M  END
$$$$

 Created by Python create_sdf_string function

 29 33  0  0  0  0  0  0  0  0999 V2000
   10.7215   -3.3326   17.6437 C   0  0  0  0  0  0  0  0  0  0  0  0
    9.9489   -3.4675   24.6487 N   0  0  0  0  0  0  0  0  0  0  0  0
   10.0172   -4.4740   17.4101 C   0  0  0  0  0  0  0  0  0  0  0  0
    6.9051   -7.9575   16.4222 C   0  0  0  0  0  0  0  0  0  0  0  0
    8.9969   -6.3552   17.9668 N   0  0  0  0  0  0  0  0  0  0  0  0
   10.6702   -3.9051   22.4070 C   0  0  0  0  0  0  0  0  0  0  0  0
   11.0625   -3.0028   18.8894 C   0  0  0  0  0  0  0  0  0  0  0  0
    5.6180   -7.9194   16.1754 O   0  0  0  0  0  0  0  0  0  0  0  0
    9.7259   -5.3080   18.4485 C   0  0  0  0  0  0  0  0  0  0  0  0
    9.4578   -5.0200   16.3036 N   0  0  0  0  0  0  0  0  0  0  0  0
    5.0287   -8.9365   16.8223 C   0  0  0  0  0  0  0  0  0  0  0  0
    8.7742   -6.1498   16.6764 C   0  0  0  0  0  0  0  0  0  0  0  0
   10.9418   -3.4032   21.2053 O   0  0  0  0  0  0  0  0  0  0  0  0
    1.4797   -8.6258   16.2950 C   0  0  0  0  0  0  0  0  0  0  0  0
    9.2861   -1.2743   25.3585 C   0  0  0  0  0  0  0  0  0  0  0  0
    1.8892  -10.3985   17.7511 N   0  0  0  0  0  0  0  0  0  0  0  0
    9.6210   -0.6952   24.0976 C   0  0  0  0  0  0  0  0  0  0  0  0
    7.0792   -9.0217   17.1429 C   0  0  0  0  0  0  0  0  0  0  0  0
    3.1713  -10.1816   17.6634 C   0  0  0  0  0  0  0  0  0  0  0  0
    2.7878   -8.3822   16.2137 C   0  0  0  0  0  0  0  0  0  0  0  0
    9.4601   -2.6590   25.6528 C   0  0  0  0  0  0  0  0  0  0  0  0
   10.1182   -1.5672   23.1165 C   0  0  0  0  0  0  0  0  0  0  0  0
    1.0552   -9.6360   17.0650 C   0  0  0  0  0  0  0  0  0  0  0  0
    3.6519   -9.1783   16.9039 C   0  0  0  0  0  0  0  0  0  0  0  0
    7.8675   -7.0096   15.9415 C   0  0  0  0  0  0  0  0  0  0  0  0
    5.9733   -9.6553   17.3832 N   0  0  0  0  0  0  0  0  0  0  0  0
   10.2411   -2.9363   23.4301 C   0  0  0  0  0  0  0  0  0  0  0  0
   10.7288   -3.8197   19.9525 C   0  0  0  0  0  0  0  0  0  0  0  0
   10.1189   -5.0054   19.6987 C   0  0  0  0  0  0  0  0  0  0  0  0
  1  3  4  0
  1  7  4  0
  2 21  4  0
  2 27  4  0
  3  9  4  0
  3 10  4  0
  4  8  4  0
  4 18  4  0
  4 25  1  0
  5  9  4  0
  5 12  4  0
  6 13  1  0
  6 27  1  0
  7 28  4  0
  8 11  4  0
  9 29  4  0
 10 12  4  0
 11 24  1  0
 11 26  4  0
 12 25  1  0
 13 28  1  0
 14 20  4  0
 14 23  4  0
 15 17  4  0
 15 21  4  0
 16 19  4  0
 16 23  4  0
 17 22  4  0
 18 26  4  0
 19 24  4  0
 20 24  4  0
 22 27  4  0
 28 29  4  0
M  END
$$$$

 Created by Python create_sdf_string function

 29 33  0  0  0  0  0  0  0  0999 V2000
   10.7215   -3.3326   17.6437 C   0  0  0  0  0  0  0  0  0  0  0  0
    9.9489   -3.4675   24.6487 N   0  0  0  0  0  0  0  0  0  0  0  0
   10.0172   -4.4740   17.4101 C   0  0  0  0  0  0  0  0  0  0  0  0
    6.9051   -7.9575   16.4222 C   0  0  0  0  0  0  0  0  0  0  0  0
    8.9969   -6.3552   17.9668 N   0  0  0  0  0  0  0  0  0  0  0  0
   10.6702   -3.9051   22.4070 C   0  0  0  0  0  0  0  0  0  0  0  0
   11.0625   -3.0028   18.8894 C   0  0  0  0  0  0  0  0  0  0  0  0
    5.6180   -7.9194   16.1754 O   0  0  0  0  0  0  0  0  0  0  0  0
    9.7259   -5.3080   18.4485 C   0  0  0  0  0  0  0  0  0  0  0  0
    9.4578   -5.0200   16.3036 N   0  0  0  0  0  0  0  0  0  0  0  0
    5.0287   -8.9365   16.8223 C   0  0  0  0  0  0  0  0  0  0  0  0
    8.7742   -6.1498   16.6764 C   0  0  0  0  0  0  0  0  0  0  0  0
   10.9418   -3.4032   21.2053 O   0  0  0  0  0  0  0  0  0  0  0  0
    1.4797   -8.6258   16.2950 C   0  0  0  0  0  0  0  0  0  0  0  0
    9.2861   -1.2743   25.3585 C   0  0  0  0  0  0  0  0  0  0  0  0
    1.8892  -10.3985   17.7511 N   0  0  0  0  0  0  0  0  0  0  0  0
    9.6210   -0.6952   24.0976 C   0  0  0  0  0  0  0  0  0  0  0  0
    7.0792   -9.0217   17.1429 C   0  0  0  0  0  0  0  0  0  0  0  0
    3.1713  -10.1816   17.6634 C   0  0  0  0  0  0  0  0  0  0  0  0
    2.7878   -8.3822   16.2137 C   0  0  0  0  0  0  0  0  0  0  0  0
    9.4601   -2.6590   25.6528 C   0  0  0  0  0  0  0  0  0  0  0  0
   10.1182   -1.5672   23.1165 C   0  0  0  0  0  0  0  0  0  0  0  0
    1.0552   -9.6360   17.0650 C   0  0  0  0  0  0  0  0  0  0  0  0
    3.6519   -9.1783   16.9039 C   0  0  0  0  0  0  0  0  0  0  0  0
    7.8675   -7.0096   15.9415 C   0  0  0  0  0  0  0  0  0  0  0  0
    5.9733   -9.6553   17.3832 N   0  0  0  0  0  0  0  0  0  0  0  0
   10.2411   -2.9363   23.4301 C   0  0  0  0  0  0  0  0  0  0  0  0
   10.7288   -3.8197   19.9525 C   0  0  0  0  0  0  0  0  0  0  0  0
   10.1189   -5.0054   19.6987 C   0  0  0  0  0  0  0  0  0  0  0  0
  1  3  4  0
  1  7  4  0
  2 21  4  0
  2 27  4  0
  3  9  4  0
  3 10  4  0
  4  8  4  0
  4 18  4  0
  4 25  1  0
  5  9  4  0
  5 12  4  0
  6 13  1  0
  6 27  1  0
  7 28  4  0
  8 11  4  0
  9 29  4  0
 10 12  4  0
 11 24  1  0
 11 26  4  0
 12 25  1  0
 13 28  1  0
 14 20  4  0
 14 23  4  0
 15 17  4  0
 15 21  4  0
 16 19  4  0
 16 23  4  0
 17 22  4  0
 18 26  4  0
 19 24  4  0
 20 24  4  0
 22 27  4  0
 28 29  4  0
M  END
$$$$

 Created by Python create_sdf_string function

 29 33  0  0  0  0  0  0  0  0999 V2000
   10.7215   -3.3326   17.6437 C   0  0  0  0  0  0  0  0  0  0  0  0
    9.9489   -3.4675   24.6487 N   0  0  0  0  0  0  0  0  0  0  0  0
   10.0172   -4.4740   17.4101 C   0  0  0  0  0  0  0  0  0  0  0  0
    6.9051   -7.9575   16.4222 C   0  0  0  0  0  0  0  0  0  0  0  0
    8.9969   -6.3552   17.9668 N   0  0  0  0  0  0  0  0  0  0  0  0
   10.6702   -3.9051   22.4070 C   0  0  0  0  0  0  0  0  0  0  0  0
   11.0625   -3.0028   18.8894 C   0  0  0  0  0  0  0  0  0  0  0  0
    5.6180   -7.9194   16.1754 O   0  0  0  0  0  0  0  0  0  0  0  0
    9.7259   -5.3080   18.4485 C   0  0  0  0  0  0  0  0  0  0  0  0
    9.4578   -5.0200   16.3036 N   0  0  0  0  0  0  0  0  0  0  0  0
    5.0287   -8.9365   16.8223 C   0  0  0  0  0  0  0  0  0  0  0  0
    8.7742   -6.1498   16.6764 C   0  0  0  0  0  0  0  0  0  0  0  0
   10.9418   -3.4032   21.2053 O   0  0  0  0  0  0  0  0  0  0  0  0
    1.4797   -8.6258   16.2950 C   0  0  0  0  0  0  0  0  0  0  0  0
    9.2861   -1.2743   25.3585 C   0  0  0  0  0  0  0  0  0  0  0  0
    1.8892  -10.3985   17.7511 N   0  0  0  0  0  0  0  0  0  0  0  0
    9.6210   -0.6952   24.0976 C   0  0  0  0  0  0  0  0  0  0  0  0
    7.0792   -9.0217   17.1429 C   0  0  0  0  0  0  0  0  0  0  0  0
    3.1713  -10.1816   17.6634 C   0  0  0  0  0  0  0  0  0  0  0  0
    2.7878   -8.3822   16.2137 C   0  0  0  0  0  0  0  0  0  0  0  0
    9.4601   -2.6590   25.6528 C   0  0  0  0  0  0  0  0  0  0  0  0
   10.1182   -1.5672   23.1165 C   0  0  0  0  0  0  0  0  0  0  0  0
    1.0552   -9.6360   17.0650 C   0  0  0  0  0  0  0  0  0  0  0  0
    3.6519   -9.1783   16.9039 C   0  0  0  0  0  0  0  0  0  0  0  0
    7.8675   -7.0096   15.9415 C   0  0  0  0  0  0  0  0  0  0  0  0
    5.9733   -9.6553   17.3832 N   0  0  0  0  0  0  0  0  0  0  0  0
   10.2411   -2.9363   23.4301 C   0  0  0  0  0  0  0  0  0  0  0  0
   10.7288   -3.8197   19.9525 C   0  0  0  0  0  0  0  0  0  0  0  0
   10.1189   -5.0054   19.6987 C   0  0  0  0  0  0  0  0  0  0  0  0
  1  3  4  0
  1  7  4  0
  2 21  4  0
  2 27  4  0
  3  9  4  0
  3 10  4  0
  4  8  4  0
  4 18  4  0
  4 25  1  0
  5  9  4  0
  5 12  4  0
  6 13  1  0
  6 27  1  0
  7 28  4  0
  8 11  4  0
  9 29  4  0
 10 12  4  0
 11 24  1  0
 11 26  4  0
 12 25  1  0
 13 28  1  0
 14 20  4  0
 14 23  4  0
 15 17  4  0
 15 21  4  0
 16 19  4  0
 16 23  4  0
 17 22  4  0
 18 26  4  0
 19 24  4  0
 20 24  4  0
 22 27  4  0
 28 29  4  0
M  END
$$$$

 Created by Python create_sdf_string function

 29 33  0  0  0  0  0  0  0  0999 V2000
   10.7215   -3.3326   17.6437 C   0  0  0  0  0  0  0  0  0  0  0  0
    9.9489   -3.4675   24.6487 N   0  0  0  0  0  0  0  0  0  0  0  0
   10.0172   -4.4740   17.4101 C   0  0  0  0  0  0  0  0  0  0  0  0
    6.9051   -7.9575   16.4222 C   0  0  0  0  0  0  0  0  0  0  0  0
    8.9969   -6.3552   17.9668 N   0  0  0  0  0  0  0  0  0  0  0  0
   10.6702   -3.9051   22.4070 C   0  0  0  0  0  0  0  0  0  0  0  0
   11.0625   -3.0028   18.8894 C   0  0  0  0  0  0  0  0  0  0  0  0
    5.6180   -7.9194   16.1754 O   0  0  0  0  0  0  0  0  0  0  0  0
    9.7259   -5.3080   18.4485 C   0  0  0  0  0  0  0  0  0  0  0  0
    9.4578   -5.0200   16.3036 N   0  0  0  0  0  0  0  0  0  0  0  0
    5.0287   -8.9365   16.8223 C   0  0  0  0  0  0  0  0  0  0  0  0
    8.7742   -6.1498   16.6764 C   0  0  0  0  0  0  0  0  0  0  0  0
   10.9418   -3.4032   21.2053 O   0  0  0  0  0  0  0  0  0  0  0  0
    1.4797   -8.6258   16.2950 C   0  0  0  0  0  0  0  0  0  0  0  0
    9.2861   -1.2743   25.3585 C   0  0  0  0  0  0  0  0  0  0  0  0
    1.8892  -10.3985   17.7511 N   0  0  0  0  0  0  0  0  0  0  0  0
    9.6210   -0.6952   24.0976 C   0  0  0  0  0  0  0  0  0  0  0  0
    7.0792   -9.0217   17.1429 C   0  0  0  0  0  0  0  0  0  0  0  0
    3.1713  -10.1816   17.6634 C   0  0  0  0  0  0  0  0  0  0  0  0
    2.7878   -8.3822   16.2137 C   0  0  0  0  0  0  0  0  0  0  0  0
    9.4601   -2.6590   25.6528 C   0  0  0  0  0  0  0  0  0  0  0  0
   10.1182   -1.5672   23.1165 C   0  0  0  0  0  0  0  0  0  0  0  0
    1.0552   -9.6360   17.0650 C   0  0  0  0  0  0  0  0  0  0  0  0
    3.6519   -9.1783   16.9039 C   0  0  0  0  0  0  0  0  0  0  0  0
    7.8675   -7.0096   15.9415 C   0  0  0  0  0  0  0  0  0  0  0  0
    5.9733   -9.6553   17.3832 N   0  0  0  0  0  0  0  0  0  0  0  0
   10.2411   -2.9363   23.4301 C   0  0  0  0  0  0  0  0  0  0  0  0
   10.7288   -3.8197   19.9525 C   0  0  0  0  0  0  0  0  0  0  0  0
   10.1189   -5.0054   19.6987 C   0  0  0  0  0  0  0  0  0  0  0  0
  1  3  4  0
  1  7  4  0
  2 21  4  0
  2 27  4  0
  3  9  4  0
  3 10  4  0
  4  8  4  0
  4 18  4  0
  4 25  1  0
  5  9  4  0
  5 12  4  0
  6 13  1  0
  6 27  1  0
  7 28  4  0
  8 11  4  0
  9 29  4  0
 10 12  4  0
 11 24  1  0
 11 26  4  0
 12 25  1  0
 13 28  1  0
 14 20  4  0
 14 23  4  0
 15 17  4  0
 15 21  4  0
 16 19  4  0
 16 23  4  0
 17 22  4  0
 18 26  4  0
 19 24  4  0
 20 24  4  0
 22 27  4  0
 28 29  4  0
M  END
$$$$

 Created by Python create_sdf_string function

 29 33  0  0  0  0  0  0  0  0999 V2000
   10.7215   -3.3326   17.6437 C   0  0  0  0  0  0  0  0  0  0  0  0
    9.9489   -3.4675   24.6487 N   0  0  0  0  0  0  0  0  0  0  0  0
   10.0172   -4.4740   17.4101 C   0  0  0  0  0  0  0  0  0  0  0  0
    6.9051   -7.9575   16.4222 C   0  0  0  0  0  0  0  0  0  0  0  0
    8.9969   -6.3552   17.9668 N   0  0  0  0  0  0  0  0  0  0  0  0
   10.6702   -3.9051   22.4070 C   0  0  0  0  0  0  0  0  0  0  0  0
   11.0625   -3.0028   18.8894 C   0  0  0  0  0  0  0  0  0  0  0  0
    5.6180   -7.9194   16.1754 O   0  0  0  0  0  0  0  0  0  0  0  0
    9.7259   -5.3080   18.4485 C   0  0  0  0  0  0  0  0  0  0  0  0
    9.4578   -5.0200   16.3036 N   0  0  0  0  0  0  0  0  0  0  0  0
    5.0287   -8.9365   16.8223 C   0  0  0  0  0  0  0  0  0  0  0  0
    8.7742   -6.1498   16.6764 C   0  0  0  0  0  0  0  0  0  0  0  0
   10.9418   -3.4032   21.2053 O   0  0  0  0  0  0  0  0  0  0  0  0
    1.4797   -8.6258   16.2950 C   0  0  0  0  0  0  0  0  0  0  0  0
    9.2861   -1.2743   25.3585 C   0  0  0  0  0  0  0  0  0  0  0  0
    1.8892  -10.3985   17.7511 N   0  0  0  0  0  0  0  0  0  0  0  0
    9.6210   -0.6952   24.0976 C   0  0  0  0  0  0  0  0  0  0  0  0
    7.0792   -9.0217   17.1429 C   0  0  0  0  0  0  0  0  0  0  0  0
    3.1713  -10.1816   17.6634 C   0  0  0  0  0  0  0  0  0  0  0  0
    2.7878   -8.3822   16.2137 C   0  0  0  0  0  0  0  0  0  0  0  0
    9.4601   -2.6590   25.6528 C   0  0  0  0  0  0  0  0  0  0  0  0
   10.1182   -1.5672   23.1165 C   0  0  0  0  0  0  0  0  0  0  0  0
    1.0552   -9.6360   17.0650 C   0  0  0  0  0  0  0  0  0  0  0  0
    3.6519   -9.1783   16.9039 C   0  0  0  0  0  0  0  0  0  0  0  0
    7.8675   -7.0096   15.9415 C   0  0  0  0  0  0  0  0  0  0  0  0
    5.9733   -9.6553   17.3832 N   0  0  0  0  0  0  0  0  0  0  0  0
   10.2411   -2.9363   23.4301 C   0  0  0  0  0  0  0  0  0  0  0  0
   10.7288   -3.8197   19.9525 C   0  0  0  0  0  0  0  0  0  0  0  0
   10.1189   -5.0054   19.6987 C   0  0  0  0  0  0  0  0  0  0  0  0
  1  3  4  0
  1  7  4  0
  2 21  4  0
  2 27  4  0
  3  9  4  0
  3 10  4  0
  4  8  4  0
  4 18  4  0
  4 25  1  0
  5  9  4  0
  5 12  4  0
  6 13  1  0
  6 27  1  0
  7 28  4  0
  8 11  4  0
  9 29  4  0
 10 12  4  0
 11 24  1  0
 11 26  4  0
 12 25  1  0
 13 28  1  0
 14 20  4  0
 14 23  4  0
 15 17  4  0
 15 21  4  0
 16 19  4  0
 16 23  4  0
 17 22  4  0
 18 26  4  0
 19 24  4  0
 20 24  4  0
 22 27  4  0
 28 29  4  0
M  END
$$$$

 Created by Python create_sdf_string function

 29 33  0  0  0  0  0  0  0  0999 V2000
   10.7215   -3.3326   17.6437 C   0  0  0  0  0  0  0  0  0  0  0  0
    9.9489   -3.4675   24.6487 N   0  0  0  0  0  0  0  0  0  0  0  0
   10.0172   -4.4740   17.4101 C   0  0  0  0  0  0  0  0  0  0  0  0
    6.9051   -7.9575   16.4222 C   0  0  0  0  0  0  0  0  0  0  0  0
    8.9969   -6.3552   17.9668 N   0  0  0  0  0  0  0  0  0  0  0  0
   10.6702   -3.9051   22.4070 C   0  0  0  0  0  0  0  0  0  0  0  0
   11.0625   -3.0028   18.8894 C   0  0  0  0  0  0  0  0  0  0  0  0
    5.6180   -7.9194   16.1754 O   0  0  0  0  0  0  0  0  0  0  0  0
    9.7259   -5.3080   18.4485 C   0  0  0  0  0  0  0  0  0  0  0  0
    9.4578   -5.0200   16.3036 N   0  0  0  0  0  0  0  0  0  0  0  0
    5.0287   -8.9365   16.8223 C   0  0  0  0  0  0  0  0  0  0  0  0
    8.7742   -6.1498   16.6764 C   0  0  0  0  0  0  0  0  0  0  0  0
   10.9418   -3.4032   21.2053 O   0  0  0  0  0  0  0  0  0  0  0  0
    1.4797   -8.6258   16.2950 C   0  0  0  0  0  0  0  0  0  0  0  0
    9.2861   -1.2743   25.3585 C   0  0  0  0  0  0  0  0  0  0  0  0
    1.8892  -10.3985   17.7511 N   0  0  0  0  0  0  0  0  0  0  0  0
    9.6210   -0.6952   24.0976 C   0  0  0  0  0  0  0  0  0  0  0  0
    7.0792   -9.0217   17.1429 C   0  0  0  0  0  0  0  0  0  0  0  0
    3.1713  -10.1816   17.6634 C   0  0  0  0  0  0  0  0  0  0  0  0
    2.7878   -8.3822   16.2137 C   0  0  0  0  0  0  0  0  0  0  0  0
    9.4601   -2.6590   25.6528 C   0  0  0  0  0  0  0  0  0  0  0  0
   10.1182   -1.5672   23.1165 C   0  0  0  0  0  0  0  0  0  0  0  0
    1.0552   -9.6360   17.0650 C   0  0  0  0  0  0  0  0  0  0  0  0
    3.6519   -9.1783   16.9039 C   0  0  0  0  0  0  0  0  0  0  0  0
    7.8675   -7.0096   15.9415 C   0  0  0  0  0  0  0  0  0  0  0  0
    5.9733   -9.6553   17.3832 N   0  0  0  0  0  0  0  0  0  0  0  0
   10.2411   -2.9363   23.4301 C   0  0  0  0  0  0  0  0  0  0  0  0
   10.7288   -3.8197   19.9525 C   0  0  0  0  0  0  0  0  0  0  0  0
   10.1189   -5.0054   19.6987 C   0  0  0  0  0  0  0  0  0  0  0  0
  1  3  4  0
  1  7  4  0
  2 21  4  0
  2 27  4  0
  3  9  4  0
  3 10  4  0
  4  8  4  0
  4 18  4  0
  4 25  1  0
  5  9  4  0
  5 12  4  0
  6 13  1  0
  6 27  1  0
  7 28  4  0
  8 11  4  0
  9 29  4  0
 10 12  4  0
 11 24  1  0
 11 26  4  0
 12 25  1  0
 13 28  1  0
 14 20  4  0
 14 23  4  0
 15 17  4  0
 15 21  4  0
 16 19  4  0
 16 23  4  0
 17 22  4  0
 18 26  4  0
 19 24  4  0
 20 24  4  0
 22 27  4  0
 28 29  4  0
M  END
$$$$

 Created by Python create_sdf_string function

 29 33  0  0  0  0  0  0  0  0999 V2000
   10.7215   -3.3326   17.6437 C   0  0  0  0  0  0  0  0  0  0  0  0
    9.9489   -3.4675   24.6487 N   0  0  0  0  0  0  0  0  0  0  0  0
   10.0172   -4.4740   17.4101 C   0  0  0  0  0  0  0  0  0  0  0  0
    6.9051   -7.9575   16.4222 C   0  0  0  0  0  0  0  0  0  0  0  0
    8.9969   -6.3552   17.9668 N   0  0  0  0  0  0  0  0  0  0  0  0
   10.6702   -3.9051   22.4070 C   0  0  0  0  0  0  0  0  0  0  0  0
   11.0625   -3.0028   18.8894 C   0  0  0  0  0  0  0  0  0  0  0  0
    5.6180   -7.9194   16.1754 O   0  0  0  0  0  0  0  0  0  0  0  0
    9.7259   -5.3080   18.4485 C   0  0  0  0  0  0  0  0  0  0  0  0
    9.4578   -5.0200   16.3036 N   0  0  0  0  0  0  0  0  0  0  0  0
    5.0287   -8.9365   16.8223 C   0  0  0  0  0  0  0  0  0  0  0  0
    8.7742   -6.1498   16.6764 C   0  0  0  0  0  0  0  0  0  0  0  0
   10.9418   -3.4032   21.2053 O   0  0  0  0  0  0  0  0  0  0  0  0
    1.4797   -8.6258   16.2950 C   0  0  0  0  0  0  0  0  0  0  0  0
    9.2861   -1.2743   25.3585 C   0  0  0  0  0  0  0  0  0  0  0  0
    1.8892  -10.3985   17.7511 N   0  0  0  0  0  0  0  0  0  0  0  0
    9.6210   -0.6952   24.0976 C   0  0  0  0  0  0  0  0  0  0  0  0
    7.0792   -9.0217   17.1429 C   0  0  0  0  0  0  0  0  0  0  0  0
    3.1713  -10.1816   17.6634 C   0  0  0  0  0  0  0  0  0  0  0  0
    2.7878   -8.3822   16.2137 C   0  0  0  0  0  0  0  0  0  0  0  0
    9.4601   -2.6590   25.6528 C   0  0  0  0  0  0  0  0  0  0  0  0
   10.1182   -1.5672   23.1165 C   0  0  0  0  0  0  0  0  0  0  0  0
    1.0552   -9.6360   17.0650 C   0  0  0  0  0  0  0  0  0  0  0  0
    3.6519   -9.1783   16.9039 C   0  0  0  0  0  0  0  0  0  0  0  0
    7.8675   -7.0096   15.9415 C   0  0  0  0  0  0  0  0  0  0  0  0
    5.9733   -9.6553   17.3832 N   0  0  0  0  0  0  0  0  0  0  0  0
   10.2411   -2.9363   23.4301 C   0  0  0  0  0  0  0  0  0  0  0  0
   10.7288   -3.8197   19.9525 C   0  0  0  0  0  0  0  0  0  0  0  0
   10.1189   -5.0054   19.6987 C   0  0  0  0  0  0  0  0  0  0  0  0
  1  3  4  0
  1  7  4  0
  2 21  4  0
  2 27  4  0
  3  9  4  0
  3 10  4  0
  4  8  4  0
  4 18  4  0
  4 25  1  0
  5  9  4  0
  5 12  4  0
  6 13  1  0
  6 27  1  0
  7 28  4  0
  8 11  4  0
  9 29  4  0
 10 12  4  0
 11 24  1  0
 11 26  4  0
 12 25  1  0
 13 28  1  0
 14 20  4  0
 14 23  4  0
 15 17  4  0
 15 21  4  0
 16 19  4  0
 16 23  4  0
 17 22  4  0
 18 26  4  0
 19 24  4  0
 20 24  4  0
 22 27  4  0
 28 29  4  0
M  END
$$$$

 Created by Python create_sdf_string function

 29 33  0  0  0  0  0  0  0  0999 V2000
   10.7215   -3.3326   17.6437 C   0  0  0  0  0  0  0  0  0  0  0  0
    9.9489   -3.4675   24.6487 N   0  0  0  0  0  0  0  0  0  0  0  0
   10.0172   -4.4740   17.4101 C   0  0  0  0  0  0  0  0  0  0  0  0
    6.9051   -7.9575   16.4222 C   0  0  0  0  0  0  0  0  0  0  0  0
    8.9969   -6.3552   17.9668 N   0  0  0  0  0  0  0  0  0  0  0  0
   10.6702   -3.9051   22.4070 C   0  0  0  0  0  0  0  0  0  0  0  0
   11.0625   -3.0028   18.8894 C   0  0  0  0  0  0  0  0  0  0  0  0
    5.6180   -7.9194   16.1754 O   0  0  0  0  0  0  0  0  0  0  0  0
    9.7259   -5.3080   18.4485 C   0  0  0  0  0  0  0  0  0  0  0  0
    9.4578   -5.0200   16.3036 N   0  0  0  0  0  0  0  0  0  0  0  0
    5.0287   -8.9365   16.8223 C   0  0  0  0  0  0  0  0  0  0  0  0
    8.7742   -6.1498   16.6764 C   0  0  0  0  0  0  0  0  0  0  0  0
   10.9418   -3.4032   21.2053 O   0  0  0  0  0  0  0  0  0  0  0  0
    1.4797   -8.6258   16.2950 C   0  0  0  0  0  0  0  0  0  0  0  0
    9.2861   -1.2743   25.3585 C   0  0  0  0  0  0  0  0  0  0  0  0
    1.8892  -10.3985   17.7511 N   0  0  0  0  0  0  0  0  0  0  0  0
    9.6210   -0.6952   24.0976 C   0  0  0  0  0  0  0  0  0  0  0  0
    7.0792   -9.0217   17.1429 C   0  0  0  0  0  0  0  0  0  0  0  0
    3.1713  -10.1816   17.6634 C   0  0  0  0  0  0  0  0  0  0  0  0
    2.7878   -8.3822   16.2137 C   0  0  0  0  0  0  0  0  0  0  0  0
    9.4601   -2.6590   25.6528 C   0  0  0  0  0  0  0  0  0  0  0  0
   10.1182   -1.5672   23.1165 C   0  0  0  0  0  0  0  0  0  0  0  0
    1.0552   -9.6360   17.0650 C   0  0  0  0  0  0  0  0  0  0  0  0
    3.6519   -9.1783   16.9039 C   0  0  0  0  0  0  0  0  0  0  0  0
    7.8675   -7.0096   15.9415 C   0  0  0  0  0  0  0  0  0  0  0  0
    5.9733   -9.6553   17.3832 N   0  0  0  0  0  0  0  0  0  0  0  0
   10.2411   -2.9363   23.4301 C   0  0  0  0  0  0  0  0  0  0  0  0
   10.7288   -3.8197   19.9525 C   0  0  0  0  0  0  0  0  0  0  0  0
   10.1189   -5.0054   19.6987 C   0  0  0  0  0  0  0  0  0  0  0  0
  1  3  4  0
  1  7  4  0
  2 21  4  0
  2 27  4  0
  3  9  4  0
  3 10  4  0
  4  8  4  0
  4 18  4  0
  4 25  1  0
  5  9  4  0
  5 12  4  0
  6 13  1  0
  6 27  1  0
  7 28  4  0
  8 11  4  0
  9 29  4  0
 10 12  4  0
 11 24  1  0
 11 26  4  0
 12 25  1  0
 13 28  1  0
 14 20  4  0
 14 23  4  0
 15 17  4  0
 15 21  4  0
 16 19  4  0
 16 23  4  0
 17 22  4  0
 18 26  4  0
 19 24  4  0
 20 24  4  0
 22 27  4  0
 28 29  4  0
M  END
$$$$

 Created by Python create_sdf_string function

 29 33  0  0  0  0  0  0  0  0999 V2000
   10.7215   -3.3326   17.6437 C   0  0  0  0  0  0  0  0  0  0  0  0
    9.9489   -3.4675   24.6487 N   0  0  0  0  0  0  0  0  0  0  0  0
   10.0172   -4.4740   17.4101 C   0  0  0  0  0  0  0  0  0  0  0  0
    6.9051   -7.9575   16.4222 C   0  0  0  0  0  0  0  0  0  0  0  0
    8.9969   -6.3552   17.9668 N   0  0  0  0  0  0  0  0  0  0  0  0
   10.6702   -3.9051   22.4070 C   0  0  0  0  0  0  0  0  0  0  0  0
   11.0625   -3.0028   18.8894 C   0  0  0  0  0  0  0  0  0  0  0  0
    5.6180   -7.9194   16.1754 O   0  0  0  0  0  0  0  0  0  0  0  0
    9.7259   -5.3080   18.4485 C   0  0  0  0  0  0  0  0  0  0  0  0
    9.4578   -5.0200   16.3036 N   0  0  0  0  0  0  0  0  0  0  0  0
    5.0287   -8.9365   16.8223 C   0  0  0  0  0  0  0  0  0  0  0  0
    8.7742   -6.1498   16.6764 C   0  0  0  0  0  0  0  0  0  0  0  0
   10.9418   -3.4032   21.2053 O   0  0  0  0  0  0  0  0  0  0  0  0
    1.4797   -8.6258   16.2950 C   0  0  0  0  0  0  0  0  0  0  0  0
    9.2861   -1.2743   25.3585 C   0  0  0  0  0  0  0  0  0  0  0  0
    1.8892  -10.3985   17.7511 N   0  0  0  0  0  0  0  0  0  0  0  0
    9.6210   -0.6952   24.0976 C   0  0  0  0  0  0  0  0  0  0  0  0
    7.0792   -9.0217   17.1429 C   0  0  0  0  0  0  0  0  0  0  0  0
    3.1713  -10.1816   17.6634 C   0  0  0  0  0  0  0  0  0  0  0  0
    2.7878   -8.3822   16.2137 C   0  0  0  0  0  0  0  0  0  0  0  0
    9.4601   -2.6590   25.6528 C   0  0  0  0  0  0  0  0  0  0  0  0
   10.1182   -1.5672   23.1165 C   0  0  0  0  0  0  0  0  0  0  0  0
    1.0552   -9.6360   17.0650 C   0  0  0  0  0  0  0  0  0  0  0  0
    3.6519   -9.1783   16.9039 C   0  0  0  0  0  0  0  0  0  0  0  0
    7.8675   -7.0096   15.9415 C   0  0  0  0  0  0  0  0  0  0  0  0
    5.9733   -9.6553   17.3832 N   0  0  0  0  0  0  0  0  0  0  0  0
   10.2411   -2.9363   23.4301 C   0  0  0  0  0  0  0  0  0  0  0  0
   10.7288   -3.8197   19.9525 C   0  0  0  0  0  0  0  0  0  0  0  0
   10.1189   -5.0054   19.6987 C   0  0  0  0  0  0  0  0  0  0  0  0
  1  3  4  0
  1  7  4  0
  2 21  4  0
  2 27  4  0
  3  9  4  0
  3 10  4  0
  4  8  4  0
  4 18  4  0
  4 25  1  0
  5  9  4  0
  5 12  4  0
  6 13  1  0
  6 27  1  0
  7 28  4  0
  8 11  4  0
  9 29  4  0
 10 12  4  0
 11 24  1  0
 11 26  4  0
 12 25  1  0
 13 28  1  0
 14 20  4  0
 14 23  4  0
 15 17  4  0
 15 21  4  0
 16 19  4  0
 16 23  4  0
 17 22  4  0
 18 26  4  0
 19 24  4  0
 20 24  4  0
 22 27  4  0
 28 29  4  0
M  END
$$$$

 Created by Python create_sdf_string function

 29 33  0  0  0  0  0  0  0  0999 V2000
   10.7215   -3.3326   17.6437 C   0  0  0  0  0  0  0  0  0  0  0  0
    9.9489   -3.4675   24.6487 N   0  0  0  0  0  0  0  0  0  0  0  0
   10.0172   -4.4740   17.4101 C   0  0  0  0  0  0  0  0  0  0  0  0
    6.9051   -7.9575   16.4222 C   0  0  0  0  0  0  0  0  0  0  0  0
    8.9969   -6.3552   17.9668 N   0  0  0  0  0  0  0  0  0  0  0  0
   10.6702   -3.9051   22.4070 C   0  0  0  0  0  0  0  0  0  0  0  0
   11.0625   -3.0028   18.8894 C   0  0  0  0  0  0  0  0  0  0  0  0
    5.6180   -7.9194   16.1754 O   0  0  0  0  0  0  0  0  0  0  0  0
    9.7259   -5.3080   18.4485 C   0  0  0  0  0  0  0  0  0  0  0  0
    9.4578   -5.0200   16.3036 N   0  0  0  0  0  0  0  0  0  0  0  0
    5.0287   -8.9365   16.8223 C   0  0  0  0  0  0  0  0  0  0  0  0
    8.7742   -6.1498   16.6764 C   0  0  0  0  0  0  0  0  0  0  0  0
   10.9418   -3.4032   21.2053 O   0  0  0  0  0  0  0  0  0  0  0  0
    1.4797   -8.6258   16.2950 C   0  0  0  0  0  0  0  0  0  0  0  0
    9.2861   -1.2743   25.3585 C   0  0  0  0  0  0  0  0  0  0  0  0
    1.8892  -10.3985   17.7511 N   0  0  0  0  0  0  0  0  0  0  0  0
    9.6210   -0.6952   24.0976 C   0  0  0  0  0  0  0  0  0  0  0  0
    7.0792   -9.0217   17.1429 C   0  0  0  0  0  0  0  0  0  0  0  0
    3.1713  -10.1816   17.6634 C   0  0  0  0  0  0  0  0  0  0  0  0
    2.7878   -8.3822   16.2137 C   0  0  0  0  0  0  0  0  0  0  0  0
    9.4601   -2.6590   25.6528 C   0  0  0  0  0  0  0  0  0  0  0  0
   10.1182   -1.5672   23.1165 C   0  0  0  0  0  0  0  0  0  0  0  0
    1.0552   -9.6360   17.0650 C   0  0  0  0  0  0  0  0  0  0  0  0
    3.6519   -9.1783   16.9039 C   0  0  0  0  0  0  0  0  0  0  0  0
    7.8675   -7.0096   15.9415 C   0  0  0  0  0  0  0  0  0  0  0  0
    5.9733   -9.6553   17.3832 N   0  0  0  0  0  0  0  0  0  0  0  0
   10.2411   -2.9363   23.4301 C   0  0  0  0  0  0  0  0  0  0  0  0
   10.7288   -3.8197   19.9525 C   0  0  0  0  0  0  0  0  0  0  0  0
   10.1189   -5.0054   19.6987 C   0  0  0  0  0  0  0  0  0  0  0  0
  1  3  4  0
  1  7  4  0
  2 21  4  0
  2 27  4  0
  3  9  4  0
  3 10  4  0
  4  8  4  0
  4 18  4  0
  4 25  1  0
  5  9  4  0
  5 12  4  0
  6 13  1  0
  6 27  1  0
  7 28  4  0
  8 11  4  0
  9 29  4  0
 10 12  4  0
 11 24  1  0
 11 26  4  0
 12 25  1  0
 13 28  1  0
 14 20  4  0
 14 23  4  0
 15 17  4  0
 15 21  4  0
 16 19  4  0
 16 23  4  0
 17 22  4  0
 18 26  4  0
 19 24  4  0
 20 24  4  0
 22 27  4  0
 28 29  4  0
M  END
$$$$

 Created by Python create_sdf_string function

 29 33  0  0  0  0  0  0  0  0999 V2000
   10.7215   -3.3326   17.6437 C   0  0  0  0  0  0  0  0  0  0  0  0
    9.9489   -3.4675   24.6487 N   0  0  0  0  0  0  0  0  0  0  0  0
   10.0172   -4.4740   17.4101 C   0  0  0  0  0  0  0  0  0  0  0  0
    6.9051   -7.9575   16.4222 C   0  0  0  0  0  0  0  0  0  0  0  0
    8.9969   -6.3552   17.9668 N   0  0  0  0  0  0  0  0  0  0  0  0
   10.6702   -3.9051   22.4070 C   0  0  0  0  0  0  0  0  0  0  0  0
   11.0625   -3.0028   18.8894 C   0  0  0  0  0  0  0  0  0  0  0  0
    5.6180   -7.9194   16.1754 O   0  0  0  0  0  0  0  0  0  0  0  0
    9.7259   -5.3080   18.4485 C   0  0  0  0  0  0  0  0  0  0  0  0
    9.4578   -5.0200   16.3036 N   0  0  0  0  0  0  0  0  0  0  0  0
    5.0287   -8.9365   16.8223 C   0  0  0  0  0  0  0  0  0  0  0  0
    8.7742   -6.1498   16.6764 C   0  0  0  0  0  0  0  0  0  0  0  0
   10.9418   -3.4032   21.2053 O   0  0  0  0  0  0  0  0  0  0  0  0
    1.4797   -8.6258   16.2950 C   0  0  0  0  0  0  0  0  0  0  0  0
    9.2861   -1.2743   25.3585 C   0  0  0  0  0  0  0  0  0  0  0  0
    1.8892  -10.3985   17.7511 N   0  0  0  0  0  0  0  0  0  0  0  0
    9.6210   -0.6952   24.0976 C   0  0  0  0  0  0  0  0  0  0  0  0
    7.0792   -9.0217   17.1429 C   0  0  0  0  0  0  0  0  0  0  0  0
    3.1713  -10.1816   17.6634 C   0  0  0  0  0  0  0  0  0  0  0  0
    2.7878   -8.3822   16.2137 C   0  0  0  0  0  0  0  0  0  0  0  0
    9.4601   -2.6590   25.6528 C   0  0  0  0  0  0  0  0  0  0  0  0
   10.1182   -1.5672   23.1165 C   0  0  0  0  0  0  0  0  0  0  0  0
    1.0552   -9.6360   17.0650 C   0  0  0  0  0  0  0  0  0  0  0  0
    3.6519   -9.1783   16.9039 C   0  0  0  0  0  0  0  0  0  0  0  0
    7.8675   -7.0096   15.9415 C   0  0  0  0  0  0  0  0  0  0  0  0
    5.9733   -9.6553   17.3832 N   0  0  0  0  0  0  0  0  0  0  0  0
   10.2411   -2.9363   23.4301 C   0  0  0  0  0  0  0  0  0  0  0  0
   10.7288   -3.8197   19.9525 C   0  0  0  0  0  0  0  0  0  0  0  0
   10.1189   -5.0054   19.6987 C   0  0  0  0  0  0  0  0  0  0  0  0
  1  3  4  0
  1  7  4  0
  2 21  4  0
  2 27  4  0
  3  9  4  0
  3 10  4  0
  4  8  4  0
  4 18  4  0
  4 25  1  0
  5  9  4  0
  5 12  4  0
  6 13  1  0
  6 27  1  0
  7 28  4  0
  8 11  4  0
  9 29  4  0
 10 12  4  0
 11 24  1  0
 11 26  4  0
 12 25  1  0
 13 28  1  0
 14 20  4  0
 14 23  4  0
 15 17  4  0
 15 21  4  0
 16 19  4  0
 16 23  4  0
 17 22  4  0
 18 26  4  0
 19 24  4  0
 20 24  4  0
 22 27  4  0
 28 29  4  0
M  END
$$$$

 Created by Python create_sdf_string function

 29 33  0  0  0  0  0  0  0  0999 V2000
   10.7215   -3.3326   17.6437 C   0  0  0  0  0  0  0  0  0  0  0  0
    9.9489   -3.4675   24.6487 N   0  0  0  0  0  0  0  0  0  0  0  0
   10.0172   -4.4740   17.4101 C   0  0  0  0  0  0  0  0  0  0  0  0
    6.9051   -7.9575   16.4222 C   0  0  0  0  0  0  0  0  0  0  0  0
    8.9969   -6.3552   17.9668 N   0  0  0  0  0  0  0  0  0  0  0  0
   10.6702   -3.9051   22.4070 C   0  0  0  0  0  0  0  0  0  0  0  0
   11.0625   -3.0028   18.8894 C   0  0  0  0  0  0  0  0  0  0  0  0
    5.6180   -7.9194   16.1754 O   0  0  0  0  0  0  0  0  0  0  0  0
    9.7259   -5.3080   18.4485 C   0  0  0  0  0  0  0  0  0  0  0  0
    9.4578   -5.0200   16.3036 N   0  0  0  0  0  0  0  0  0  0  0  0
    5.0287   -8.9365   16.8223 C   0  0  0  0  0  0  0  0  0  0  0  0
    8.7742   -6.1498   16.6764 C   0  0  0  0  0  0  0  0  0  0  0  0
   10.9418   -3.4032   21.2053 O   0  0  0  0  0  0  0  0  0  0  0  0
    1.4797   -8.6258   16.2950 C   0  0  0  0  0  0  0  0  0  0  0  0
    9.2861   -1.2743   25.3585 C   0  0  0  0  0  0  0  0  0  0  0  0
    1.8892  -10.3985   17.7511 N   0  0  0  0  0  0  0  0  0  0  0  0
    9.6210   -0.6952   24.0976 C   0  0  0  0  0  0  0  0  0  0  0  0
    7.0792   -9.0217   17.1429 C   0  0  0  0  0  0  0  0  0  0  0  0
    3.1713  -10.1816   17.6634 C   0  0  0  0  0  0  0  0  0  0  0  0
    2.7878   -8.3822   16.2137 C   0  0  0  0  0  0  0  0  0  0  0  0
    9.4601   -2.6590   25.6528 C   0  0  0  0  0  0  0  0  0  0  0  0
   10.1182   -1.5672   23.1165 C   0  0  0  0  0  0  0  0  0  0  0  0
    1.0552   -9.6360   17.0650 C   0  0  0  0  0  0  0  0  0  0  0  0
    3.6519   -9.1783   16.9039 C   0  0  0  0  0  0  0  0  0  0  0  0
    7.8675   -7.0096   15.9415 C   0  0  0  0  0  0  0  0  0  0  0  0
    5.9733   -9.6553   17.3832 N   0  0  0  0  0  0  0  0  0  0  0  0
   10.2411   -2.9363   23.4301 C   0  0  0  0  0  0  0  0  0  0  0  0
   10.7288   -3.8197   19.9525 C   0  0  0  0  0  0  0  0  0  0  0  0
   10.1189   -5.0054   19.6987 C   0  0  0  0  0  0  0  0  0  0  0  0
  1  3  4  0
  1  7  4  0
  2 21  4  0
  2 27  4  0
  3  9  4  0
  3 10  4  0
  4  8  4  0
  4 18  4  0
  4 25  1  0
  5  9  4  0
  5 12  4  0
  6 13  1  0
  6 27  1  0
  7 28  4  0
  8 11  4  0
  9 29  4  0
 10 12  4  0
 11 24  1  0
 11 26  4  0
 12 25  1  0
 13 28  1  0
 14 20  4  0
 14 23  4  0
 15 17  4  0
 15 21  4  0
 16 19  4  0
 16 23  4  0
 17 22  4  0
 18 26  4  0
 19 24  4  0
 20 24  4  0
 22 27  4  0
 28 29  4  0
M  END
$$$$

 Created by Python create_sdf_string function

 29 33  0  0  0  0  0  0  0  0999 V2000
   10.7215   -3.3326   17.6437 C   0  0  0  0  0  0  0  0  0  0  0  0
    9.9489   -3.4675   24.6487 N   0  0  0  0  0  0  0  0  0  0  0  0
   10.0172   -4.4740   17.4101 C   0  0  0  0  0  0  0  0  0  0  0  0
    6.9051   -7.9575   16.4222 C   0  0  0  0  0  0  0  0  0  0  0  0
    8.9969   -6.3552   17.9668 N   0  0  0  0  0  0  0  0  0  0  0  0
   10.6702   -3.9051   22.4070 C   0  0  0  0  0  0  0  0  0  0  0  0
   11.0625   -3.0028   18.8894 C   0  0  0  0  0  0  0  0  0  0  0  0
    5.6180   -7.9194   16.1754 O   0  0  0  0  0  0  0  0  0  0  0  0
    9.7259   -5.3080   18.4485 C   0  0  0  0  0  0  0  0  0  0  0  0
    9.4578   -5.0200   16.3036 N   0  0  0  0  0  0  0  0  0  0  0  0
    5.0287   -8.9365   16.8223 C   0  0  0  0  0  0  0  0  0  0  0  0
    8.7742   -6.1498   16.6764 C   0  0  0  0  0  0  0  0  0  0  0  0
   10.9418   -3.4032   21.2053 O   0  0  0  0  0  0  0  0  0  0  0  0
    1.4797   -8.6258   16.2950 C   0  0  0  0  0  0  0  0  0  0  0  0
    9.2861   -1.2743   25.3585 C   0  0  0  0  0  0  0  0  0  0  0  0
    1.8892  -10.3985   17.7511 N   0  0  0  0  0  0  0  0  0  0  0  0
    9.6210   -0.6952   24.0976 C   0  0  0  0  0  0  0  0  0  0  0  0
    7.0792   -9.0217   17.1429 C   0  0  0  0  0  0  0  0  0  0  0  0
    3.1713  -10.1816   17.6634 C   0  0  0  0  0  0  0  0  0  0  0  0
    2.7878   -8.3822   16.2137 C   0  0  0  0  0  0  0  0  0  0  0  0
    9.4601   -2.6590   25.6528 C   0  0  0  0  0  0  0  0  0  0  0  0
   10.1182   -1.5672   23.1165 C   0  0  0  0  0  0  0  0  0  0  0  0
    1.0552   -9.6360   17.0650 C   0  0  0  0  0  0  0  0  0  0  0  0
    3.6519   -9.1783   16.9039 C   0  0  0  0  0  0  0  0  0  0  0  0
    7.8675   -7.0096   15.9415 C   0  0  0  0  0  0  0  0  0  0  0  0
    5.9733   -9.6553   17.3832 N   0  0  0  0  0  0  0  0  0  0  0  0
   10.2411   -2.9363   23.4301 C   0  0  0  0  0  0  0  0  0  0  0  0
   10.7288   -3.8197   19.9525 C   0  0  0  0  0  0  0  0  0  0  0  0
   10.1189   -5.0054   19.6987 C   0  0  0  0  0  0  0  0  0  0  0  0
  1  3  4  0
  1  7  4  0
  2 21  4  0
  2 27  4  0
  3  9  4  0
  3 10  4  0
  4  8  4  0
  4 18  4  0
  4 25  1  0
  5  9  4  0
  5 12  4  0
  6 13  1  0
  6 27  1  0
  7 28  4  0
  8 11  4  0
  9 29  4  0
 10 12  4  0
 11 24  1  0
 11 26  4  0
 12 25  1  0
 13 28  1  0
 14 20  4  0
 14 23  4  0
 15 17  4  0
 15 21  4  0
 16 19  4  0
 16 23  4  0
 17 22  4  0
 18 26  4  0
 19 24  4  0
 20 24  4  0
 22 27  4  0
 28 29  4  0
M  END
$$$$

 Created by Python create_sdf_string function

 29 33  0  0  0  0  0  0  0  0999 V2000
   10.7215   -3.3326   17.6437 C   0  0  0  0  0  0  0  0  0  0  0  0
    9.9489   -3.4675   24.6487 N   0  0  0  0  0  0  0  0  0  0  0  0
   10.0172   -4.4740   17.4101 C   0  0  0  0  0  0  0  0  0  0  0  0
    6.9051   -7.9575   16.4222 C   0  0  0  0  0  0  0  0  0  0  0  0
    8.9969   -6.3552   17.9668 N   0  0  0  0  0  0  0  0  0  0  0  0
   10.6702   -3.9051   22.4070 C   0  0  0  0  0  0  0  0  0  0  0  0
   11.0625   -3.0028   18.8894 C   0  0  0  0  0  0  0  0  0  0  0  0
    5.6180   -7.9194   16.1754 O   0  0  0  0  0  0  0  0  0  0  0  0
    9.7259   -5.3080   18.4485 C   0  0  0  0  0  0  0  0  0  0  0  0
    9.4578   -5.0200   16.3036 N   0  0  0  0  0  0  0  0  0  0  0  0
    5.0287   -8.9365   16.8223 C   0  0  0  0  0  0  0  0  0  0  0  0
    8.7742   -6.1498   16.6764 C   0  0  0  0  0  0  0  0  0  0  0  0
   10.9418   -3.4032   21.2053 O   0  0  0  0  0  0  0  0  0  0  0  0
    1.4797   -8.6258   16.2950 C   0  0  0  0  0  0  0  0  0  0  0  0
    9.2861   -1.2743   25.3585 C   0  0  0  0  0  0  0  0  0  0  0  0
    1.8892  -10.3985   17.7511 N   0  0  0  0  0  0  0  0  0  0  0  0
    9.6210   -0.6952   24.0976 C   0  0  0  0  0  0  0  0  0  0  0  0
    7.0792   -9.0217   17.1429 C   0  0  0  0  0  0  0  0  0  0  0  0
    3.1713  -10.1816   17.6634 C   0  0  0  0  0  0  0  0  0  0  0  0
    2.7878   -8.3822   16.2137 C   0  0  0  0  0  0  0  0  0  0  0  0
    9.4601   -2.6590   25.6528 C   0  0  0  0  0  0  0  0  0  0  0  0
   10.1182   -1.5672   23.1165 C   0  0  0  0  0  0  0  0  0  0  0  0
    1.0552   -9.6360   17.0650 C   0  0  0  0  0  0  0  0  0  0  0  0
    3.6519   -9.1783   16.9039 C   0  0  0  0  0  0  0  0  0  0  0  0
    7.8675   -7.0096   15.9415 C   0  0  0  0  0  0  0  0  0  0  0  0
    5.9733   -9.6553   17.3832 N   0  0  0  0  0  0  0  0  0  0  0  0
   10.2411   -2.9363   23.4301 C   0  0  0  0  0  0  0  0  0  0  0  0
   10.7288   -3.8197   19.9525 C   0  0  0  0  0  0  0  0  0  0  0  0
   10.1189   -5.0054   19.6987 C   0  0  0  0  0  0  0  0  0  0  0  0
  1  3  4  0
  1  7  4  0
  2 21  4  0
  2 27  4  0
  3  9  4  0
  3 10  4  0
  4  8  4  0
  4 18  4  0
  4 25  1  0
  5  9  4  0
  5 12  4  0
  6 13  1  0
  6 27  1  0
  7 28  4  0
  8 11  4  0
  9 29  4  0
 10 12  4  0
 11 24  1  0
 11 26  4  0
 12 25  1  0
 13 28  1  0
 14 20  4  0
 14 23  4  0
 15 17  4  0
 15 21  4  0
 16 19  4  0
 16 23  4  0
 17 22  4  0
 18 26  4  0
 19 24  4  0
 20 24  4  0
 22 27  4  0
 28 29  4  0
M  END
$$$$

 Created by Python create_sdf_string function

 29 33  0  0  0  0  0  0  0  0999 V2000
   10.7215   -3.3326   17.6437 C   0  0  0  0  0  0  0  0  0  0  0  0
    9.9489   -3.4675   24.6487 N   0  0  0  0  0  0  0  0  0  0  0  0
   10.0172   -4.4740   17.4101 C   0  0  0  0  0  0  0  0  0  0  0  0
    6.9051   -7.9575   16.4222 C   0  0  0  0  0  0  0  0  0  0  0  0
    8.9969   -6.3552   17.9668 N   0  0  0  0  0  0  0  0  0  0  0  0
   10.6702   -3.9051   22.4070 C   0  0  0  0  0  0  0  0  0  0  0  0
   11.0625   -3.0028   18.8894 C   0  0  0  0  0  0  0  0  0  0  0  0
    5.6180   -7.9194   16.1754 O   0  0  0  0  0  0  0  0  0  0  0  0
    9.7259   -5.3080   18.4485 C   0  0  0  0  0  0  0  0  0  0  0  0
    9.4578   -5.0200   16.3036 N   0  0  0  0  0  0  0  0  0  0  0  0
    5.0287   -8.9365   16.8223 C   0  0  0  0  0  0  0  0  0  0  0  0
    8.7742   -6.1498   16.6764 C   0  0  0  0  0  0  0  0  0  0  0  0
   10.9418   -3.4032   21.2053 O   0  0  0  0  0  0  0  0  0  0  0  0
    1.4797   -8.6258   16.2950 C   0  0  0  0  0  0  0  0  0  0  0  0
    9.2861   -1.2743   25.3585 C   0  0  0  0  0  0  0  0  0  0  0  0
    1.8892  -10.3985   17.7511 N   0  0  0  0  0  0  0  0  0  0  0  0
    9.6210   -0.6952   24.0976 C   0  0  0  0  0  0  0  0  0  0  0  0
    7.0792   -9.0217   17.1429 C   0  0  0  0  0  0  0  0  0  0  0  0
    3.1713  -10.1816   17.6634 C   0  0  0  0  0  0  0  0  0  0  0  0
    2.7878   -8.3822   16.2137 C   0  0  0  0  0  0  0  0  0  0  0  0
    9.4601   -2.6590   25.6528 C   0  0  0  0  0  0  0  0  0  0  0  0
   10.1182   -1.5672   23.1165 C   0  0  0  0  0  0  0  0  0  0  0  0
    1.0552   -9.6360   17.0650 C   0  0  0  0  0  0  0  0  0  0  0  0
    3.6519   -9.1783   16.9039 C   0  0  0  0  0  0  0  0  0  0  0  0
    7.8675   -7.0096   15.9415 C   0  0  0  0  0  0  0  0  0  0  0  0
    5.9733   -9.6553   17.3832 N   0  0  0  0  0  0  0  0  0  0  0  0
   10.2411   -2.9363   23.4301 C   0  0  0  0  0  0  0  0  0  0  0  0
   10.7288   -3.8197   19.9525 C   0  0  0  0  0  0  0  0  0  0  0  0
   10.1189   -5.0054   19.6987 C   0  0  0  0  0  0  0  0  0  0  0  0
  1  3  4  0
  1  7  4  0
  2 21  4  0
  2 27  4  0
  3  9  4  0
  3 10  4  0
  4  8  4  0
  4 18  4  0
  4 25  1  0
  5  9  4  0
  5 12  4  0
  6 13  1  0
  6 27  1  0
  7 28  4  0
  8 11  4  0
  9 29  4  0
 10 12  4  0
 11 24  1  0
 11 26  4  0
 12 25  1  0
 13 28  1  0
 14 20  4  0
 14 23  4  0
 15 17  4  0
 15 21  4  0
 16 19  4  0
 16 23  4  0
 17 22  4  0
 18 26  4  0
 19 24  4  0
 20 24  4  0
 22 27  4  0
 28 29  4  0
M  END
$$$$

 Created by Python create_sdf_string function

 29 33  0  0  0  0  0  0  0  0999 V2000
   10.7215   -3.3326   17.6437 C   0  0  0  0  0  0  0  0  0  0  0  0
    9.9489   -3.4675   24.6487 N   0  0  0  0  0  0  0  0  0  0  0  0
   10.0172   -4.4740   17.4101 C   0  0  0  0  0  0  0  0  0  0  0  0
    6.9051   -7.9575   16.4222 C   0  0  0  0  0  0  0  0  0  0  0  0
    8.9969   -6.3552   17.9668 N   0  0  0  0  0  0  0  0  0  0  0  0
   10.6702   -3.9051   22.4070 C   0  0  0  0  0  0  0  0  0  0  0  0
   11.0625   -3.0028   18.8894 C   0  0  0  0  0  0  0  0  0  0  0  0
    5.6180   -7.9194   16.1754 O   0  0  0  0  0  0  0  0  0  0  0  0
    9.7259   -5.3080   18.4485 C   0  0  0  0  0  0  0  0  0  0  0  0
    9.4578   -5.0200   16.3036 N   0  0  0  0  0  0  0  0  0  0  0  0
    5.0287   -8.9365   16.8223 C   0  0  0  0  0  0  0  0  0  0  0  0
    8.7742   -6.1498   16.6764 C   0  0  0  0  0  0  0  0  0  0  0  0
   10.9418   -3.4032   21.2053 O   0  0  0  0  0  0  0  0  0  0  0  0
    1.4797   -8.6258   16.2950 C   0  0  0  0  0  0  0  0  0  0  0  0
    9.2861   -1.2743   25.3585 C   0  0  0  0  0  0  0  0  0  0  0  0
    1.8892  -10.3985   17.7511 N   0  0  0  0  0  0  0  0  0  0  0  0
    9.6210   -0.6952   24.0976 C   0  0  0  0  0  0  0  0  0  0  0  0
    7.0792   -9.0217   17.1429 C   0  0  0  0  0  0  0  0  0  0  0  0
    3.1713  -10.1816   17.6634 C   0  0  0  0  0  0  0  0  0  0  0  0
    2.7878   -8.3822   16.2137 C   0  0  0  0  0  0  0  0  0  0  0  0
    9.4601   -2.6590   25.6528 C   0  0  0  0  0  0  0  0  0  0  0  0
   10.1182   -1.5672   23.1165 C   0  0  0  0  0  0  0  0  0  0  0  0
    1.0552   -9.6360   17.0650 C   0  0  0  0  0  0  0  0  0  0  0  0
    3.6519   -9.1783   16.9039 C   0  0  0  0  0  0  0  0  0  0  0  0
    7.8675   -7.0096   15.9415 C   0  0  0  0  0  0  0  0  0  0  0  0
    5.9733   -9.6553   17.3832 N   0  0  0  0  0  0  0  0  0  0  0  0
   10.2411   -2.9363   23.4301 C   0  0  0  0  0  0  0  0  0  0  0  0
   10.7288   -3.8197   19.9525 C   0  0  0  0  0  0  0  0  0  0  0  0
   10.1189   -5.0054   19.6987 C   0  0  0  0  0  0  0  0  0  0  0  0
  1  3  4  0
  1  7  4  0
  2 21  4  0
  2 27  4  0
  3  9  4  0
  3 10  4  0
  4  8  4  0
  4 18  4  0
  4 25  1  0
  5  9  4  0
  5 12  4  0
  6 13  1  0
  6 27  1  0
  7 28  4  0
  8 11  4  0
  9 29  4  0
 10 12  4  0
 11 24  1  0
 11 26  4  0
 12 25  1  0
 13 28  1  0
 14 20  4  0
 14 23  4  0
 15 17  4  0
 15 21  4  0
 16 19  4  0
 16 23  4  0
 17 22  4  0
 18 26  4  0
 19 24  4  0
 20 24  4  0
 22 27  4  0
 28 29  4  0
M  END
$$$$

 Created by Python create_sdf_string function

 29 33  0  0  0  0  0  0  0  0999 V2000
   10.7215   -3.3326   17.6437 C   0  0  0  0  0  0  0  0  0  0  0  0
    9.9489   -3.4675   24.6487 N   0  0  0  0  0  0  0  0  0  0  0  0
   10.0172   -4.4740   17.4101 C   0  0  0  0  0  0  0  0  0  0  0  0
    6.9051   -7.9575   16.4222 C   0  0  0  0  0  0  0  0  0  0  0  0
    8.9969   -6.3552   17.9668 N   0  0  0  0  0  0  0  0  0  0  0  0
   10.6702   -3.9051   22.4070 C   0  0  0  0  0  0  0  0  0  0  0  0
   11.0625   -3.0028   18.8894 C   0  0  0  0  0  0  0  0  0  0  0  0
    5.6180   -7.9194   16.1754 O   0  0  0  0  0  0  0  0  0  0  0  0
    9.7259   -5.3080   18.4485 C   0  0  0  0  0  0  0  0  0  0  0  0
    9.4578   -5.0200   16.3036 N   0  0  0  0  0  0  0  0  0  0  0  0
    5.0287   -8.9365   16.8223 C   0  0  0  0  0  0  0  0  0  0  0  0
    8.7742   -6.1498   16.6764 C   0  0  0  0  0  0  0  0  0  0  0  0
   10.9418   -3.4032   21.2053 O   0  0  0  0  0  0  0  0  0  0  0  0
    1.4797   -8.6258   16.2950 C   0  0  0  0  0  0  0  0  0  0  0  0
    9.2861   -1.2743   25.3585 C   0  0  0  0  0  0  0  0  0  0  0  0
    1.8892  -10.3985   17.7511 N   0  0  0  0  0  0  0  0  0  0  0  0
    9.6210   -0.6952   24.0976 C   0  0  0  0  0  0  0  0  0  0  0  0
    7.0792   -9.0217   17.1429 C   0  0  0  0  0  0  0  0  0  0  0  0
    3.1713  -10.1816   17.6634 C   0  0  0  0  0  0  0  0  0  0  0  0
    2.7878   -8.3822   16.2137 C   0  0  0  0  0  0  0  0  0  0  0  0
    9.4601   -2.6590   25.6528 C   0  0  0  0  0  0  0  0  0  0  0  0
   10.1182   -1.5672   23.1165 C   0  0  0  0  0  0  0  0  0  0  0  0
    1.0552   -9.6360   17.0650 C   0  0  0  0  0  0  0  0  0  0  0  0
    3.6519   -9.1783   16.9039 C   0  0  0  0  0  0  0  0  0  0  0  0
    7.8675   -7.0096   15.9415 C   0  0  0  0  0  0  0  0  0  0  0  0
    5.9733   -9.6553   17.3832 N   0  0  0  0  0  0  0  0  0  0  0  0
   10.2411   -2.9363   23.4301 C   0  0  0  0  0  0  0  0  0  0  0  0
   10.7288   -3.8197   19.9525 C   0  0  0  0  0  0  0  0  0  0  0  0
   10.1189   -5.0054   19.6987 C   0  0  0  0  0  0  0  0  0  0  0  0
  1  3  4  0
  1  7  4  0
  2 21  4  0
  2 27  4  0
  3  9  4  0
  3 10  4  0
  4  8  4  0
  4 18  4  0
  4 25  1  0
  5  9  4  0
  5 12  4  0
  6 13  1  0
  6 27  1  0
  7 28  4  0
  8 11  4  0
  9 29  4  0
 10 12  4  0
 11 24  1  0
 11 26  4  0
 12 25  1  0
 13 28  1  0
 14 20  4  0
 14 23  4  0
 15 17  4  0
 15 21  4  0
 16 19  4  0
 16 23  4  0
 17 22  4  0
 18 26  4  0
 19 24  4  0
 20 24  4  0
 22 27  4  0
 28 29  4  0
M  END
$$$$

 Created by Python create_sdf_string function

 29 33  0  0  0  0  0  0  0  0999 V2000
   10.7215   -3.3326   17.6437 C   0  0  0  0  0  0  0  0  0  0  0  0
    9.9489   -3.4675   24.6487 N   0  0  0  0  0  0  0  0  0  0  0  0
   10.0172   -4.4740   17.4101 C   0  0  0  0  0  0  0  0  0  0  0  0
    6.9051   -7.9575   16.4222 C   0  0  0  0  0  0  0  0  0  0  0  0
    8.9969   -6.3552   17.9668 N   0  0  0  0  0  0  0  0  0  0  0  0
   10.6702   -3.9051   22.4070 C   0  0  0  0  0  0  0  0  0  0  0  0
   11.0625   -3.0028   18.8894 C   0  0  0  0  0  0  0  0  0  0  0  0
    5.6180   -7.9194   16.1754 O   0  0  0  0  0  0  0  0  0  0  0  0
    9.7259   -5.3080   18.4485 C   0  0  0  0  0  0  0  0  0  0  0  0
    9.4578   -5.0200   16.3036 N   0  0  0  0  0  0  0  0  0  0  0  0
    5.0287   -8.9365   16.8223 C   0  0  0  0  0  0  0  0  0  0  0  0
    8.7742   -6.1498   16.6764 C   0  0  0  0  0  0  0  0  0  0  0  0
   10.9418   -3.4032   21.2053 O   0  0  0  0  0  0  0  0  0  0  0  0
    1.4797   -8.6258   16.2950 C   0  0  0  0  0  0  0  0  0  0  0  0
    9.2861   -1.2743   25.3585 C   0  0  0  0  0  0  0  0  0  0  0  0
    1.8892  -10.3985   17.7511 N   0  0  0  0  0  0  0  0  0  0  0  0
    9.6210   -0.6952   24.0976 C   0  0  0  0  0  0  0  0  0  0  0  0
    7.0792   -9.0217   17.1429 C   0  0  0  0  0  0  0  0  0  0  0  0
    3.1713  -10.1816   17.6634 C   0  0  0  0  0  0  0  0  0  0  0  0
    2.7878   -8.3822   16.2137 C   0  0  0  0  0  0  0  0  0  0  0  0
    9.4601   -2.6590   25.6528 C   0  0  0  0  0  0  0  0  0  0  0  0
   10.1182   -1.5672   23.1165 C   0  0  0  0  0  0  0  0  0  0  0  0
    1.0552   -9.6360   17.0650 C   0  0  0  0  0  0  0  0  0  0  0  0
    3.6519   -9.1783   16.9039 C   0  0  0  0  0  0  0  0  0  0  0  0
    7.8675   -7.0096   15.9415 C   0  0  0  0  0  0  0  0  0  0  0  0
    5.9733   -9.6553   17.3832 N   0  0  0  0  0  0  0  0  0  0  0  0
   10.2411   -2.9363   23.4301 C   0  0  0  0  0  0  0  0  0  0  0  0
   10.7288   -3.8197   19.9525 C   0  0  0  0  0  0  0  0  0  0  0  0
   10.1189   -5.0054   19.6987 C   0  0  0  0  0  0  0  0  0  0  0  0
  1  3  4  0
  1  7  4  0
  2 21  4  0
  2 27  4  0
  3  9  4  0
  3 10  4  0
  4  8  4  0
  4 18  4  0
  4 25  1  0
  5  9  4  0
  5 12  4  0
  6 13  1  0
  6 27  1  0
  7 28  4  0
  8 11  4  0
  9 29  4  0
 10 12  4  0
 11 24  1  0
 11 26  4  0
 12 25  1  0
 13 28  1  0
 14 20  4  0
 14 23  4  0
 15 17  4  0
 15 21  4  0
 16 19  4  0
 16 23  4  0
 17 22  4  0
 18 26  4  0
 19 24  4  0
 20 24  4  0
 22 27  4  0
 28 29  4  0
M  END
$$$$

 Created by Python create_sdf_string function

 29 33  0  0  0  0  0  0  0  0999 V2000
   10.7215   -3.3326   17.6437 C   0  0  0  0  0  0  0  0  0  0  0  0
    9.9489   -3.4675   24.6487 N   0  0  0  0  0  0  0  0  0  0  0  0
   10.0172   -4.4740   17.4101 C   0  0  0  0  0  0  0  0  0  0  0  0
    6.9051   -7.9575   16.4222 C   0  0  0  0  0  0  0  0  0  0  0  0
    8.9969   -6.3552   17.9668 N   0  0  0  0  0  0  0  0  0  0  0  0
   10.6702   -3.9051   22.4070 C   0  0  0  0  0  0  0  0  0  0  0  0
   11.0625   -3.0028   18.8894 C   0  0  0  0  0  0  0  0  0  0  0  0
    5.6180   -7.9194   16.1754 O   0  0  0  0  0  0  0  0  0  0  0  0
    9.7259   -5.3080   18.4485 C   0  0  0  0  0  0  0  0  0  0  0  0
    9.4578   -5.0200   16.3036 N   0  0  0  0  0  0  0  0  0  0  0  0
    5.0287   -8.9365   16.8223 C   0  0  0  0  0  0  0  0  0  0  0  0
    8.7742   -6.1498   16.6764 C   0  0  0  0  0  0  0  0  0  0  0  0
   10.9418   -3.4032   21.2053 O   0  0  0  0  0  0  0  0  0  0  0  0
    1.4797   -8.6258   16.2950 C   0  0  0  0  0  0  0  0  0  0  0  0
    9.2861   -1.2743   25.3585 C   0  0  0  0  0  0  0  0  0  0  0  0
    1.8892  -10.3985   17.7511 N   0  0  0  0  0  0  0  0  0  0  0  0
    9.6210   -0.6952   24.0976 C   0  0  0  0  0  0  0  0  0  0  0  0
    7.0792   -9.0217   17.1429 C   0  0  0  0  0  0  0  0  0  0  0  0
    3.1713  -10.1816   17.6634 C   0  0  0  0  0  0  0  0  0  0  0  0
    2.7878   -8.3822   16.2137 C   0  0  0  0  0  0  0  0  0  0  0  0
    9.4601   -2.6590   25.6528 C   0  0  0  0  0  0  0  0  0  0  0  0
   10.1182   -1.5672   23.1165 C   0  0  0  0  0  0  0  0  0  0  0  0
    1.0552   -9.6360   17.0650 C   0  0  0  0  0  0  0  0  0  0  0  0
    3.6519   -9.1783   16.9039 C   0  0  0  0  0  0  0  0  0  0  0  0
    7.8675   -7.0096   15.9415 C   0  0  0  0  0  0  0  0  0  0  0  0
    5.9733   -9.6553   17.3832 N   0  0  0  0  0  0  0  0  0  0  0  0
   10.2411   -2.9363   23.4301 C   0  0  0  0  0  0  0  0  0  0  0  0
   10.7288   -3.8197   19.9525 C   0  0  0  0  0  0  0  0  0  0  0  0
   10.1189   -5.0054   19.6987 C   0  0  0  0  0  0  0  0  0  0  0  0
  1  3  4  0
  1  7  4  0
  2 21  4  0
  2 27  4  0
  3  9  4  0
  3 10  4  0
  4  8  4  0
  4 18  4  0
  4 25  1  0
  5  9  4  0
  5 12  4  0
  6 13  1  0
  6 27  1  0
  7 28  4  0
  8 11  4  0
  9 29  4  0
 10 12  4  0
 11 24  1  0
 11 26  4  0
 12 25  1  0
 13 28  1  0
 14 20  4  0
 14 23  4  0
 15 17  4  0
 15 21  4  0
 16 19  4  0
 16 23  4  0
 17 22  4  0
 18 26  4  0
 19 24  4  0
 20 24  4  0
 22 27  4  0
 28 29  4  0
M  END
$$$$

 Created by Python create_sdf_string function

 29 33  0  0  0  0  0  0  0  0999 V2000
   10.7215   -3.3326   17.6437 C   0  0  0  0  0  0  0  0  0  0  0  0
    9.9489   -3.4675   24.6487 N   0  0  0  0  0  0  0  0  0  0  0  0
   10.0172   -4.4740   17.4101 C   0  0  0  0  0  0  0  0  0  0  0  0
    6.9051   -7.9575   16.4222 C   0  0  0  0  0  0  0  0  0  0  0  0
    8.9969   -6.3552   17.9668 N   0  0  0  0  0  0  0  0  0  0  0  0
   10.6702   -3.9051   22.4070 C   0  0  0  0  0  0  0  0  0  0  0  0
   11.0625   -3.0028   18.8894 C   0  0  0  0  0  0  0  0  0  0  0  0
    5.6180   -7.9194   16.1754 O   0  0  0  0  0  0  0  0  0  0  0  0
    9.7259   -5.3080   18.4485 C   0  0  0  0  0  0  0  0  0  0  0  0
    9.4578   -5.0200   16.3036 N   0  0  0  0  0  0  0  0  0  0  0  0
    5.0287   -8.9365   16.8223 C   0  0  0  0  0  0  0  0  0  0  0  0
    8.7742   -6.1498   16.6764 C   0  0  0  0  0  0  0  0  0  0  0  0
   10.9418   -3.4032   21.2053 O   0  0  0  0  0  0  0  0  0  0  0  0
    1.4797   -8.6258   16.2950 C   0  0  0  0  0  0  0  0  0  0  0  0
    9.2861   -1.2743   25.3585 C   0  0  0  0  0  0  0  0  0  0  0  0
    1.8892  -10.3985   17.7511 N   0  0  0  0  0  0  0  0  0  0  0  0
    9.6210   -0.6952   24.0976 C   0  0  0  0  0  0  0  0  0  0  0  0
    7.0792   -9.0217   17.1429 C   0  0  0  0  0  0  0  0  0  0  0  0
    3.1713  -10.1816   17.6634 C   0  0  0  0  0  0  0  0  0  0  0  0
    2.7878   -8.3822   16.2137 C   0  0  0  0  0  0  0  0  0  0  0  0
    9.4601   -2.6590   25.6528 C   0  0  0  0  0  0  0  0  0  0  0  0
   10.1182   -1.5672   23.1165 C   0  0  0  0  0  0  0  0  0  0  0  0
    1.0552   -9.6360   17.0650 C   0  0  0  0  0  0  0  0  0  0  0  0
    3.6519   -9.1783   16.9039 C   0  0  0  0  0  0  0  0  0  0  0  0
    7.8675   -7.0096   15.9415 C   0  0  0  0  0  0  0  0  0  0  0  0
    5.9733   -9.6553   17.3832 N   0  0  0  0  0  0  0  0  0  0  0  0
   10.2411   -2.9363   23.4301 C   0  0  0  0  0  0  0  0  0  0  0  0
   10.7288   -3.8197   19.9525 C   0  0  0  0  0  0  0  0  0  0  0  0
   10.1189   -5.0054   19.6987 C   0  0  0  0  0  0  0  0  0  0  0  0
  1  3  4  0
  1  7  4  0
  2 21  4  0
  2 27  4  0
  3  9  4  0
  3 10  4  0
  4  8  4  0
  4 18  4  0
  4 25  1  0
  5  9  4  0
  5 12  4  0
  6 13  1  0
  6 27  1  0
  7 28  4  0
  8 11  4  0
  9 29  4  0
 10 12  4  0
 11 24  1  0
 11 26  4  0
 12 25  1  0
 13 28  1  0
 14 20  4  0
 14 23  4  0
 15 17  4  0
 15 21  4  0
 16 19  4  0
 16 23  4  0
 17 22  4  0
 18 26  4  0
 19 24  4  0
 20 24  4  0
 22 27  4  0
 28 29  4  0
M  END
$$$$

 Created by Python create_sdf_string function

 29 33  0  0  0  0  0  0  0  0999 V2000
   10.7215   -3.3326   17.6437 C   0  0  0  0  0  0  0  0  0  0  0  0
    9.9489   -3.4675   24.6487 N   0  0  0  0  0  0  0  0  0  0  0  0
   10.0172   -4.4740   17.4101 C   0  0  0  0  0  0  0  0  0  0  0  0
    6.9051   -7.9575   16.4222 C   0  0  0  0  0  0  0  0  0  0  0  0
    8.9969   -6.3552   17.9668 N   0  0  0  0  0  0  0  0  0  0  0  0
   10.6702   -3.9051   22.4070 C   0  0  0  0  0  0  0  0  0  0  0  0
   11.0625   -3.0028   18.8894 C   0  0  0  0  0  0  0  0  0  0  0  0
    5.6180   -7.9194   16.1754 O   0  0  0  0  0  0  0  0  0  0  0  0
    9.7259   -5.3080   18.4485 C   0  0  0  0  0  0  0  0  0  0  0  0
    9.4578   -5.0200   16.3036 N   0  0  0  0  0  0  0  0  0  0  0  0
    5.0287   -8.9365   16.8223 C   0  0  0  0  0  0  0  0  0  0  0  0
    8.7742   -6.1498   16.6764 C   0  0  0  0  0  0  0  0  0  0  0  0
   10.9418   -3.4032   21.2053 O   0  0  0  0  0  0  0  0  0  0  0  0
    1.4797   -8.6258   16.2950 C   0  0  0  0  0  0  0  0  0  0  0  0
    9.2861   -1.2743   25.3585 C   0  0  0  0  0  0  0  0  0  0  0  0
    1.8892  -10.3985   17.7511 N   0  0  0  0  0  0  0  0  0  0  0  0
    9.6210   -0.6952   24.0976 C   0  0  0  0  0  0  0  0  0  0  0  0
    7.0792   -9.0217   17.1429 C   0  0  0  0  0  0  0  0  0  0  0  0
    3.1713  -10.1816   17.6634 C   0  0  0  0  0  0  0  0  0  0  0  0
    2.7878   -8.3822   16.2137 C   0  0  0  0  0  0  0  0  0  0  0  0
    9.4601   -2.6590   25.6528 C   0  0  0  0  0  0  0  0  0  0  0  0
   10.1182   -1.5672   23.1165 C   0  0  0  0  0  0  0  0  0  0  0  0
    1.0552   -9.6360   17.0650 C   0  0  0  0  0  0  0  0  0  0  0  0
    3.6519   -9.1783   16.9039 C   0  0  0  0  0  0  0  0  0  0  0  0
    7.8675   -7.0096   15.9415 C   0  0  0  0  0  0  0  0  0  0  0  0
    5.9733   -9.6553   17.3832 N   0  0  0  0  0  0  0  0  0  0  0  0
   10.2411   -2.9363   23.4301 C   0  0  0  0  0  0  0  0  0  0  0  0
   10.7288   -3.8197   19.9525 C   0  0  0  0  0  0  0  0  0  0  0  0
   10.1189   -5.0054   19.6987 C   0  0  0  0  0  0  0  0  0  0  0  0
  1  3  4  0
  1  7  4  0
  2 21  4  0
  2 27  4  0
  3  9  4  0
  3 10  4  0
  4  8  4  0
  4 18  4  0
  4 25  1  0
  5  9  4  0
  5 12  4  0
  6 13  1  0
  6 27  1  0
  7 28  4  0
  8 11  4  0
  9 29  4  0
 10 12  4  0
 11 24  1  0
 11 26  4  0
 12 25  1  0
 13 28  1  0
 14 20  4  0
 14 23  4  0
 15 17  4  0
 15 21  4  0
 16 19  4  0
 16 23  4  0
 17 22  4  0
 18 26  4  0
 19 24  4  0
 20 24  4  0
 22 27  4  0
 28 29  4  0
M  END
$$$$

 Created by Python create_sdf_string function

 29 33  0  0  0  0  0  0  0  0999 V2000
   10.7215   -3.3326   17.6437 C   0  0  0  0  0  0  0  0  0  0  0  0
    9.9489   -3.4675   24.6487 N   0  0  0  0  0  0  0  0  0  0  0  0
   10.0172   -4.4740   17.4101 C   0  0  0  0  0  0  0  0  0  0  0  0
    6.9051   -7.9575   16.4222 C   0  0  0  0  0  0  0  0  0  0  0  0
    8.9969   -6.3552   17.9668 N   0  0  0  0  0  0  0  0  0  0  0  0
   10.6702   -3.9051   22.4070 C   0  0  0  0  0  0  0  0  0  0  0  0
   11.0625   -3.0028   18.8894 C   0  0  0  0  0  0  0  0  0  0  0  0
    5.6180   -7.9194   16.1754 O   0  0  0  0  0  0  0  0  0  0  0  0
    9.7259   -5.3080   18.4485 C   0  0  0  0  0  0  0  0  0  0  0  0
    9.4578   -5.0200   16.3036 N   0  0  0  0  0  0  0  0  0  0  0  0
    5.0287   -8.9365   16.8223 C   0  0  0  0  0  0  0  0  0  0  0  0
    8.7742   -6.1498   16.6764 C   0  0  0  0  0  0  0  0  0  0  0  0
   10.9418   -3.4032   21.2053 O   0  0  0  0  0  0  0  0  0  0  0  0
    1.4797   -8.6258   16.2950 C   0  0  0  0  0  0  0  0  0  0  0  0
    9.2861   -1.2743   25.3585 C   0  0  0  0  0  0  0  0  0  0  0  0
    1.8892  -10.3985   17.7511 N   0  0  0  0  0  0  0  0  0  0  0  0
    9.6210   -0.6952   24.0976 C   0  0  0  0  0  0  0  0  0  0  0  0
    7.0792   -9.0217   17.1429 C   0  0  0  0  0  0  0  0  0  0  0  0
    3.1713  -10.1816   17.6634 C   0  0  0  0  0  0  0  0  0  0  0  0
    2.7878   -8.3822   16.2137 C   0  0  0  0  0  0  0  0  0  0  0  0
    9.4601   -2.6590   25.6528 C   0  0  0  0  0  0  0  0  0  0  0  0
   10.1182   -1.5672   23.1165 C   0  0  0  0  0  0  0  0  0  0  0  0
    1.0552   -9.6360   17.0650 C   0  0  0  0  0  0  0  0  0  0  0  0
    3.6519   -9.1783   16.9039 C   0  0  0  0  0  0  0  0  0  0  0  0
    7.8675   -7.0096   15.9415 C   0  0  0  0  0  0  0  0  0  0  0  0
    5.9733   -9.6553   17.3832 N   0  0  0  0  0  0  0  0  0  0  0  0
   10.2411   -2.9363   23.4301 C   0  0  0  0  0  0  0  0  0  0  0  0
   10.7288   -3.8197   19.9525 C   0  0  0  0  0  0  0  0  0  0  0  0
   10.1189   -5.0054   19.6987 C   0  0  0  0  0  0  0  0  0  0  0  0
  1  3  4  0
  1  7  4  0
  2 21  4  0
  2 27  4  0
  3  9  4  0
  3 10  4  0
  4  8  4  0
  4 18  4  0
  4 25  1  0
  5  9  4  0
  5 12  4  0
  6 13  1  0
  6 27  1  0
  7 28  4  0
  8 11  4  0
  9 29  4  0
 10 12  4  0
 11 24  1  0
 11 26  4  0
 12 25  1  0
 13 28  1  0
 14 20  4  0
 14 23  4  0
 15 17  4  0
 15 21  4  0
 16 19  4  0
 16 23  4  0
 17 22  4  0
 18 26  4  0
 19 24  4  0
 20 24  4  0
 22 27  4  0
 28 29  4  0
M  END
$$$$

 Created by Python create_sdf_string function

 29 33  0  0  0  0  0  0  0  0999 V2000
   10.7215   -3.3326   17.6437 C   0  0  0  0  0  0  0  0  0  0  0  0
    9.9489   -3.4675   24.6487 N   0  0  0  0  0  0  0  0  0  0  0  0
   10.0172   -4.4740   17.4101 C   0  0  0  0  0  0  0  0  0  0  0  0
    6.9051   -7.9575   16.4222 C   0  0  0  0  0  0  0  0  0  0  0  0
    8.9969   -6.3552   17.9668 N   0  0  0  0  0  0  0  0  0  0  0  0
   10.6702   -3.9051   22.4070 C   0  0  0  0  0  0  0  0  0  0  0  0
   11.0625   -3.0028   18.8894 C   0  0  0  0  0  0  0  0  0  0  0  0
    5.6180   -7.9194   16.1754 O   0  0  0  0  0  0  0  0  0  0  0  0
    9.7259   -5.3080   18.4485 C   0  0  0  0  0  0  0  0  0  0  0  0
    9.4578   -5.0200   16.3036 N   0  0  0  0  0  0  0  0  0  0  0  0
    5.0287   -8.9365   16.8223 C   0  0  0  0  0  0  0  0  0  0  0  0
    8.7742   -6.1498   16.6764 C   0  0  0  0  0  0  0  0  0  0  0  0
   10.9418   -3.4032   21.2053 O   0  0  0  0  0  0  0  0  0  0  0  0
    1.4797   -8.6258   16.2950 C   0  0  0  0  0  0  0  0  0  0  0  0
    9.2861   -1.2743   25.3585 C   0  0  0  0  0  0  0  0  0  0  0  0
    1.8892  -10.3985   17.7511 N   0  0  0  0  0  0  0  0  0  0  0  0
    9.6210   -0.6952   24.0976 C   0  0  0  0  0  0  0  0  0  0  0  0
    7.0792   -9.0217   17.1429 C   0  0  0  0  0  0  0  0  0  0  0  0
    3.1713  -10.1816   17.6634 C   0  0  0  0  0  0  0  0  0  0  0  0
    2.7878   -8.3822   16.2137 C   0  0  0  0  0  0  0  0  0  0  0  0
    9.4601   -2.6590   25.6528 C   0  0  0  0  0  0  0  0  0  0  0  0
   10.1182   -1.5672   23.1165 C   0  0  0  0  0  0  0  0  0  0  0  0
    1.0552   -9.6360   17.0650 C   0  0  0  0  0  0  0  0  0  0  0  0
    3.6519   -9.1783   16.9039 C   0  0  0  0  0  0  0  0  0  0  0  0
    7.8675   -7.0096   15.9415 C   0  0  0  0  0  0  0  0  0  0  0  0
    5.9733   -9.6553   17.3832 N   0  0  0  0  0  0  0  0  0  0  0  0
   10.2411   -2.9363   23.4301 C   0  0  0  0  0  0  0  0  0  0  0  0
   10.7288   -3.8197   19.9525 C   0  0  0  0  0  0  0  0  0  0  0  0
   10.1189   -5.0054   19.6987 C   0  0  0  0  0  0  0  0  0  0  0  0
  1  3  4  0
  1  7  4  0
  2 21  4  0
  2 27  4  0
  3  9  4  0
  3 10  4  0
  4  8  4  0
  4 18  4  0
  4 25  1  0
  5  9  4  0
  5 12  4  0
  6 13  1  0
  6 27  1  0
  7 28  4  0
  8 11  4  0
  9 29  4  0
 10 12  4  0
 11 24  1  0
 11 26  4  0
 12 25  1  0
 13 28  1  0
 14 20  4  0
 14 23  4  0
 15 17  4  0
 15 21  4  0
 16 19  4  0
 16 23  4  0
 17 22  4  0
 18 26  4  0
 19 24  4  0
 20 24  4  0
 22 27  4  0
 28 29  4  0
M  END
$$$$

 Created by Python create_sdf_string function

 29 33  0  0  0  0  0  0  0  0999 V2000
   10.7215   -3.3326   17.6437 C   0  0  0  0  0  0  0  0  0  0  0  0
    9.9489   -3.4675   24.6487 N   0  0  0  0  0  0  0  0  0  0  0  0
   10.0172   -4.4740   17.4101 C   0  0  0  0  0  0  0  0  0  0  0  0
    6.9051   -7.9575   16.4222 C   0  0  0  0  0  0  0  0  0  0  0  0
    8.9969   -6.3552   17.9668 N   0  0  0  0  0  0  0  0  0  0  0  0
   10.6702   -3.9051   22.4070 C   0  0  0  0  0  0  0  0  0  0  0  0
   11.0625   -3.0028   18.8894 C   0  0  0  0  0  0  0  0  0  0  0  0
    5.6180   -7.9194   16.1754 O   0  0  0  0  0  0  0  0  0  0  0  0
    9.7259   -5.3080   18.4485 C   0  0  0  0  0  0  0  0  0  0  0  0
    9.4578   -5.0200   16.3036 N   0  0  0  0  0  0  0  0  0  0  0  0
    5.0287   -8.9365   16.8223 C   0  0  0  0  0  0  0  0  0  0  0  0
    8.7742   -6.1498   16.6764 C   0  0  0  0  0  0  0  0  0  0  0  0
   10.9418   -3.4032   21.2053 O   0  0  0  0  0  0  0  0  0  0  0  0
    1.4797   -8.6258   16.2950 C   0  0  0  0  0  0  0  0  0  0  0  0
    9.2861   -1.2743   25.3585 C   0  0  0  0  0  0  0  0  0  0  0  0
    1.8892  -10.3985   17.7511 N   0  0  0  0  0  0  0  0  0  0  0  0
    9.6210   -0.6952   24.0976 C   0  0  0  0  0  0  0  0  0  0  0  0
    7.0792   -9.0217   17.1429 C   0  0  0  0  0  0  0  0  0  0  0  0
    3.1713  -10.1816   17.6634 C   0  0  0  0  0  0  0  0  0  0  0  0
    2.7878   -8.3822   16.2137 C   0  0  0  0  0  0  0  0  0  0  0  0
    9.4601   -2.6590   25.6528 C   0  0  0  0  0  0  0  0  0  0  0  0
   10.1182   -1.5672   23.1165 C   0  0  0  0  0  0  0  0  0  0  0  0
    1.0552   -9.6360   17.0650 C   0  0  0  0  0  0  0  0  0  0  0  0
    3.6519   -9.1783   16.9039 C   0  0  0  0  0  0  0  0  0  0  0  0
    7.8675   -7.0096   15.9415 C   0  0  0  0  0  0  0  0  0  0  0  0
    5.9733   -9.6553   17.3832 N   0  0  0  0  0  0  0  0  0  0  0  0
   10.2411   -2.9363   23.4301 C   0  0  0  0  0  0  0  0  0  0  0  0
   10.7288   -3.8197   19.9525 C   0  0  0  0  0  0  0  0  0  0  0  0
   10.1189   -5.0054   19.6987 C   0  0  0  0  0  0  0  0  0  0  0  0
  1  3  4  0
  1  7  4  0
  2 21  4  0
  2 27  4  0
  3  9  4  0
  3 10  4  0
  4  8  4  0
  4 18  4  0
  4 25  1  0
  5  9  4  0
  5 12  4  0
  6 13  1  0
  6 27  1  0
  7 28  4  0
  8 11  4  0
  9 29  4  0
 10 12  4  0
 11 24  1  0
 11 26  4  0
 12 25  1  0
 13 28  1  0
 14 20  4  0
 14 23  4  0
 15 17  4  0
 15 21  4  0
 16 19  4  0
 16 23  4  0
 17 22  4  0
 18 26  4  0
 19 24  4  0
 20 24  4  0
 22 27  4  0
 28 29  4  0
M  END
$$$$

 Created by Python create_sdf_string function

 29 33  0  0  0  0  0  0  0  0999 V2000
   10.7215   -3.3326   17.6437 C   0  0  0  0  0  0  0  0  0  0  0  0
    9.9489   -3.4675   24.6487 N   0  0  0  0  0  0  0  0  0  0  0  0
   10.0172   -4.4740   17.4101 C   0  0  0  0  0  0  0  0  0  0  0  0
    6.9051   -7.9575   16.4222 C   0  0  0  0  0  0  0  0  0  0  0  0
    8.9969   -6.3552   17.9668 N   0  0  0  0  0  0  0  0  0  0  0  0
   10.6702   -3.9051   22.4070 C   0  0  0  0  0  0  0  0  0  0  0  0
   11.0625   -3.0028   18.8894 C   0  0  0  0  0  0  0  0  0  0  0  0
    5.6180   -7.9194   16.1754 O   0  0  0  0  0  0  0  0  0  0  0  0
    9.7259   -5.3080   18.4485 C   0  0  0  0  0  0  0  0  0  0  0  0
    9.4578   -5.0200   16.3036 N   0  0  0  0  0  0  0  0  0  0  0  0
    5.0287   -8.9365   16.8223 C   0  0  0  0  0  0  0  0  0  0  0  0
    8.7742   -6.1498   16.6764 C   0  0  0  0  0  0  0  0  0  0  0  0
   10.9418   -3.4032   21.2053 O   0  0  0  0  0  0  0  0  0  0  0  0
    1.4797   -8.6258   16.2950 C   0  0  0  0  0  0  0  0  0  0  0  0
    9.2861   -1.2743   25.3585 C   0  0  0  0  0  0  0  0  0  0  0  0
    1.8892  -10.3985   17.7511 N   0  0  0  0  0  0  0  0  0  0  0  0
    9.6210   -0.6952   24.0976 C   0  0  0  0  0  0  0  0  0  0  0  0
    7.0792   -9.0217   17.1429 C   0  0  0  0  0  0  0  0  0  0  0  0
    3.1713  -10.1816   17.6634 C   0  0  0  0  0  0  0  0  0  0  0  0
    2.7878   -8.3822   16.2137 C   0  0  0  0  0  0  0  0  0  0  0  0
    9.4601   -2.6590   25.6528 C   0  0  0  0  0  0  0  0  0  0  0  0
   10.1182   -1.5672   23.1165 C   0  0  0  0  0  0  0  0  0  0  0  0
    1.0552   -9.6360   17.0650 C   0  0  0  0  0  0  0  0  0  0  0  0
    3.6519   -9.1783   16.9039 C   0  0  0  0  0  0  0  0  0  0  0  0
    7.8675   -7.0096   15.9415 C   0  0  0  0  0  0  0  0  0  0  0  0
    5.9733   -9.6553   17.3832 N   0  0  0  0  0  0  0  0  0  0  0  0
   10.2411   -2.9363   23.4301 C   0  0  0  0  0  0  0  0  0  0  0  0
   10.7288   -3.8197   19.9525 C   0  0  0  0  0  0  0  0  0  0  0  0
   10.1189   -5.0054   19.6987 C   0  0  0  0  0  0  0  0  0  0  0  0
  1  3  4  0
  1  7  4  0
  2 21  4  0
  2 27  4  0
  3  9  4  0
  3 10  4  0
  4  8  4  0
  4 18  4  0
  4 25  1  0
  5  9  4  0
  5 12  4  0
  6 13  1  0
  6 27  1  0
  7 28  4  0
  8 11  4  0
  9 29  4  0
 10 12  4  0
 11 24  1  0
 11 26  4  0
 12 25  1  0
 13 28  1  0
 14 20  4  0
 14 23  4  0
 15 17  4  0
 15 21  4  0
 16 19  4  0
 16 23  4  0
 17 22  4  0
 18 26  4  0
 19 24  4  0
 20 24  4  0
 22 27  4  0
 28 29  4  0
M  END
$$$$

 Created by Python create_sdf_string function

 29 33  0  0  0  0  0  0  0  0999 V2000
   10.7215   -3.3326   17.6437 C   0  0  0  0  0  0  0  0  0  0  0  0
    9.9489   -3.4675   24.6487 N   0  0  0  0  0  0  0  0  0  0  0  0
   10.0172   -4.4740   17.4101 C   0  0  0  0  0  0  0  0  0  0  0  0
    6.9051   -7.9575   16.4222 C   0  0  0  0  0  0  0  0  0  0  0  0
    8.9969   -6.3552   17.9668 N   0  0  0  0  0  0  0  0  0  0  0  0
   10.6702   -3.9051   22.4070 C   0  0  0  0  0  0  0  0  0  0  0  0
   11.0625   -3.0028   18.8894 C   0  0  0  0  0  0  0  0  0  0  0  0
    5.6180   -7.9194   16.1754 O   0  0  0  0  0  0  0  0  0  0  0  0
    9.7259   -5.3080   18.4485 C   0  0  0  0  0  0  0  0  0  0  0  0
    9.4578   -5.0200   16.3036 N   0  0  0  0  0  0  0  0  0  0  0  0
    5.0287   -8.9365   16.8223 C   0  0  0  0  0  0  0  0  0  0  0  0
    8.7742   -6.1498   16.6764 C   0  0  0  0  0  0  0  0  0  0  0  0
   10.9418   -3.4032   21.2053 O   0  0  0  0  0  0  0  0  0  0  0  0
    1.4797   -8.6258   16.2950 C   0  0  0  0  0  0  0  0  0  0  0  0
    9.2861   -1.2743   25.3585 C   0  0  0  0  0  0  0  0  0  0  0  0
    1.8892  -10.3985   17.7511 N   0  0  0  0  0  0  0  0  0  0  0  0
    9.6210   -0.6952   24.0976 C   0  0  0  0  0  0  0  0  0  0  0  0
    7.0792   -9.0217   17.1429 C   0  0  0  0  0  0  0  0  0  0  0  0
    3.1713  -10.1816   17.6634 C   0  0  0  0  0  0  0  0  0  0  0  0
    2.7878   -8.3822   16.2137 C   0  0  0  0  0  0  0  0  0  0  0  0
    9.4601   -2.6590   25.6528 C   0  0  0  0  0  0  0  0  0  0  0  0
   10.1182   -1.5672   23.1165 C   0  0  0  0  0  0  0  0  0  0  0  0
    1.0552   -9.6360   17.0650 C   0  0  0  0  0  0  0  0  0  0  0  0
    3.6519   -9.1783   16.9039 C   0  0  0  0  0  0  0  0  0  0  0  0
    7.8675   -7.0096   15.9415 C   0  0  0  0  0  0  0  0  0  0  0  0
    5.9733   -9.6553   17.3832 N   0  0  0  0  0  0  0  0  0  0  0  0
   10.2411   -2.9363   23.4301 C   0  0  0  0  0  0  0  0  0  0  0  0
   10.7288   -3.8197   19.9525 C   0  0  0  0  0  0  0  0  0  0  0  0
   10.1189   -5.0054   19.6987 C   0  0  0  0  0  0  0  0  0  0  0  0
  1  3  4  0
  1  7  4  0
  2 21  4  0
  2 27  4  0
  3  9  4  0
  3 10  4  0
  4  8  4  0
  4 18  4  0
  4 25  1  0
  5  9  4  0
  5 12  4  0
  6 13  1  0
  6 27  1  0
  7 28  4  0
  8 11  4  0
  9 29  4  0
 10 12  4  0
 11 24  1  0
 11 26  4  0
 12 25  1  0
 13 28  1  0
 14 20  4  0
 14 23  4  0
 15 17  4  0
 15 21  4  0
 16 19  4  0
 16 23  4  0
 17 22  4  0
 18 26  4  0
 19 24  4  0
 20 24  4  0
 22 27  4  0
 28 29  4  0
M  END
$$$$

 Created by Python create_sdf_string function

 29 33  0  0  0  0  0  0  0  0999 V2000
   10.7215   -3.3326   17.6437 C   0  0  0  0  0  0  0  0  0  0  0  0
    9.9489   -3.4675   24.6487 N   0  0  0  0  0  0  0  0  0  0  0  0
   10.0172   -4.4740   17.4101 C   0  0  0  0  0  0  0  0  0  0  0  0
    6.9051   -7.9575   16.4222 C   0  0  0  0  0  0  0  0  0  0  0  0
    8.9969   -6.3552   17.9668 N   0  0  0  0  0  0  0  0  0  0  0  0
   10.6702   -3.9051   22.4070 C   0  0  0  0  0  0  0  0  0  0  0  0
   11.0625   -3.0028   18.8894 C   0  0  0  0  0  0  0  0  0  0  0  0
    5.6180   -7.9194   16.1754 O   0  0  0  0  0  0  0  0  0  0  0  0
    9.7259   -5.3080   18.4485 C   0  0  0  0  0  0  0  0  0  0  0  0
    9.4578   -5.0200   16.3036 N   0  0  0  0  0  0  0  0  0  0  0  0
    5.0287   -8.9365   16.8223 C   0  0  0  0  0  0  0  0  0  0  0  0
    8.7742   -6.1498   16.6764 C   0  0  0  0  0  0  0  0  0  0  0  0
   10.9418   -3.4032   21.2053 O   0  0  0  0  0  0  0  0  0  0  0  0
    1.4797   -8.6258   16.2950 C   0  0  0  0  0  0  0  0  0  0  0  0
    9.2861   -1.2743   25.3585 C   0  0  0  0  0  0  0  0  0  0  0  0
    1.8892  -10.3985   17.7511 N   0  0  0  0  0  0  0  0  0  0  0  0
    9.6210   -0.6952   24.0976 C   0  0  0  0  0  0  0  0  0  0  0  0
    7.0792   -9.0217   17.1429 C   0  0  0  0  0  0  0  0  0  0  0  0
    3.1713  -10.1816   17.6634 C   0  0  0  0  0  0  0  0  0  0  0  0
    2.7878   -8.3822   16.2137 C   0  0  0  0  0  0  0  0  0  0  0  0
    9.4601   -2.6590   25.6528 C   0  0  0  0  0  0  0  0  0  0  0  0
   10.1182   -1.5672   23.1165 C   0  0  0  0  0  0  0  0  0  0  0  0
    1.0552   -9.6360   17.0650 C   0  0  0  0  0  0  0  0  0  0  0  0
    3.6519   -9.1783   16.9039 C   0  0  0  0  0  0  0  0  0  0  0  0
    7.8675   -7.0096   15.9415 C   0  0  0  0  0  0  0  0  0  0  0  0
    5.9733   -9.6553   17.3832 N   0  0  0  0  0  0  0  0  0  0  0  0
   10.2411   -2.9363   23.4301 C   0  0  0  0  0  0  0  0  0  0  0  0
   10.7288   -3.8197   19.9525 C   0  0  0  0  0  0  0  0  0  0  0  0
   10.1189   -5.0054   19.6987 C   0  0  0  0  0  0  0  0  0  0  0  0
  1  3  4  0
  1  7  4  0
  2 21  4  0
  2 27  4  0
  3  9  4  0
  3 10  4  0
  4  8  4  0
  4 18  4  0
  4 25  1  0
  5  9  4  0
  5 12  4  0
  6 13  1  0
  6 27  1  0
  7 28  4  0
  8 11  4  0
  9 29  4  0
 10 12  4  0
 11 24  1  0
 11 26  4  0
 12 25  1  0
 13 28  1  0
 14 20  4  0
 14 23  4  0
 15 17  4  0
 15 21  4  0
 16 19  4  0
 16 23  4  0
 17 22  4  0
 18 26  4  0
 19 24  4  0
 20 24  4  0
 22 27  4  0
 28 29  4  0
M  END
$$$$

 Created by Python create_sdf_string function

 29 33  0  0  0  0  0  0  0  0999 V2000
   10.7215   -3.3326   17.6437 C   0  0  0  0  0  0  0  0  0  0  0  0
    9.9489   -3.4675   24.6487 N   0  0  0  0  0  0  0  0  0  0  0  0
   10.0172   -4.4740   17.4101 C   0  0  0  0  0  0  0  0  0  0  0  0
    6.9051   -7.9575   16.4222 C   0  0  0  0  0  0  0  0  0  0  0  0
    8.9969   -6.3552   17.9668 N   0  0  0  0  0  0  0  0  0  0  0  0
   10.6702   -3.9051   22.4070 C   0  0  0  0  0  0  0  0  0  0  0  0
   11.0625   -3.0028   18.8894 C   0  0  0  0  0  0  0  0  0  0  0  0
    5.6180   -7.9194   16.1754 O   0  0  0  0  0  0  0  0  0  0  0  0
    9.7259   -5.3080   18.4485 C   0  0  0  0  0  0  0  0  0  0  0  0
    9.4578   -5.0200   16.3036 N   0  0  0  0  0  0  0  0  0  0  0  0
    5.0287   -8.9365   16.8223 C   0  0  0  0  0  0  0  0  0  0  0  0
    8.7742   -6.1498   16.6764 C   0  0  0  0  0  0  0  0  0  0  0  0
   10.9418   -3.4032   21.2053 O   0  0  0  0  0  0  0  0  0  0  0  0
    1.4797   -8.6258   16.2950 C   0  0  0  0  0  0  0  0  0  0  0  0
    9.2861   -1.2743   25.3585 C   0  0  0  0  0  0  0  0  0  0  0  0
    1.8892  -10.3985   17.7511 N   0  0  0  0  0  0  0  0  0  0  0  0
    9.6210   -0.6952   24.0976 C   0  0  0  0  0  0  0  0  0  0  0  0
    7.0792   -9.0217   17.1429 C   0  0  0  0  0  0  0  0  0  0  0  0
    3.1713  -10.1816   17.6634 C   0  0  0  0  0  0  0  0  0  0  0  0
    2.7878   -8.3822   16.2137 C   0  0  0  0  0  0  0  0  0  0  0  0
    9.4601   -2.6590   25.6528 C   0  0  0  0  0  0  0  0  0  0  0  0
   10.1182   -1.5672   23.1165 C   0  0  0  0  0  0  0  0  0  0  0  0
    1.0552   -9.6360   17.0650 C   0  0  0  0  0  0  0  0  0  0  0  0
    3.6519   -9.1783   16.9039 C   0  0  0  0  0  0  0  0  0  0  0  0
    7.8675   -7.0096   15.9415 C   0  0  0  0  0  0  0  0  0  0  0  0
    5.9733   -9.6553   17.3832 N   0  0  0  0  0  0  0  0  0  0  0  0
   10.2411   -2.9363   23.4301 C   0  0  0  0  0  0  0  0  0  0  0  0
   10.7288   -3.8197   19.9525 C   0  0  0  0  0  0  0  0  0  0  0  0
   10.1189   -5.0054   19.6987 C   0  0  0  0  0  0  0  0  0  0  0  0
  1  3  4  0
  1  7  4  0
  2 21  4  0
  2 27  4  0
  3  9  4  0
  3 10  4  0
  4  8  4  0
  4 18  4  0
  4 25  1  0
  5  9  4  0
  5 12  4  0
  6 13  1  0
  6 27  1  0
  7 28  4  0
  8 11  4  0
  9 29  4  0
 10 12  4  0
 11 24  1  0
 11 26  4  0
 12 25  1  0
 13 28  1  0
 14 20  4  0
 14 23  4  0
 15 17  4  0
 15 21  4  0
 16 19  4  0
 16 23  4  0
 17 22  4  0
 18 26  4  0
 19 24  4  0
 20 24  4  0
 22 27  4  0
 28 29  4  0
M  END
$$$$

 Created by Python create_sdf_string function

 29 33  0  0  0  0  0  0  0  0999 V2000
   10.7215   -3.3326   17.6437 C   0  0  0  0  0  0  0  0  0  0  0  0
    9.9489   -3.4675   24.6487 N   0  0  0  0  0  0  0  0  0  0  0  0
   10.0172   -4.4740   17.4101 C   0  0  0  0  0  0  0  0  0  0  0  0
    6.9051   -7.9575   16.4222 C   0  0  0  0  0  0  0  0  0  0  0  0
    8.9969   -6.3552   17.9668 N   0  0  0  0  0  0  0  0  0  0  0  0
   10.6702   -3.9051   22.4070 C   0  0  0  0  0  0  0  0  0  0  0  0
   11.0625   -3.0028   18.8894 C   0  0  0  0  0  0  0  0  0  0  0  0
    5.6180   -7.9194   16.1754 O   0  0  0  0  0  0  0  0  0  0  0  0
    9.7259   -5.3080   18.4485 C   0  0  0  0  0  0  0  0  0  0  0  0
    9.4578   -5.0200   16.3036 N   0  0  0  0  0  0  0  0  0  0  0  0
    5.0287   -8.9365   16.8223 C   0  0  0  0  0  0  0  0  0  0  0  0
    8.7742   -6.1498   16.6764 C   0  0  0  0  0  0  0  0  0  0  0  0
   10.9418   -3.4032   21.2053 O   0  0  0  0  0  0  0  0  0  0  0  0
    1.4797   -8.6258   16.2950 C   0  0  0  0  0  0  0  0  0  0  0  0
    9.2861   -1.2743   25.3585 C   0  0  0  0  0  0  0  0  0  0  0  0
    1.8892  -10.3985   17.7511 N   0  0  0  0  0  0  0  0  0  0  0  0
    9.6210   -0.6952   24.0976 C   0  0  0  0  0  0  0  0  0  0  0  0
    7.0792   -9.0217   17.1429 C   0  0  0  0  0  0  0  0  0  0  0  0
    3.1713  -10.1816   17.6634 C   0  0  0  0  0  0  0  0  0  0  0  0
    2.7878   -8.3822   16.2137 C   0  0  0  0  0  0  0  0  0  0  0  0
    9.4601   -2.6590   25.6528 C   0  0  0  0  0  0  0  0  0  0  0  0
   10.1182   -1.5672   23.1165 C   0  0  0  0  0  0  0  0  0  0  0  0
    1.0552   -9.6360   17.0650 C   0  0  0  0  0  0  0  0  0  0  0  0
    3.6519   -9.1783   16.9039 C   0  0  0  0  0  0  0  0  0  0  0  0
    7.8675   -7.0096   15.9415 C   0  0  0  0  0  0  0  0  0  0  0  0
    5.9733   -9.6553   17.3832 N   0  0  0  0  0  0  0  0  0  0  0  0
   10.2411   -2.9363   23.4301 C   0  0  0  0  0  0  0  0  0  0  0  0
   10.7288   -3.8197   19.9525 C   0  0  0  0  0  0  0  0  0  0  0  0
   10.1189   -5.0054   19.6987 C   0  0  0  0  0  0  0  0  0  0  0  0
  1  3  4  0
  1  7  4  0
  2 21  4  0
  2 27  4  0
  3  9  4  0
  3 10  4  0
  4  8  4  0
  4 18  4  0
  4 25  1  0
  5  9  4  0
  5 12  4  0
  6 13  1  0
  6 27  1  0
  7 28  4  0
  8 11  4  0
  9 29  4  0
 10 12  4  0
 11 24  1  0
 11 26  4  0
 12 25  1  0
 13 28  1  0
 14 20  4  0
 14 23  4  0
 15 17  4  0
 15 21  4  0
 16 19  4  0
 16 23  4  0
 17 22  4  0
 18 26  4  0
 19 24  4  0
 20 24  4  0
 22 27  4  0
 28 29  4  0
M  END
$$$$

 Created by Python create_sdf_string function

 29 33  0  0  0  0  0  0  0  0999 V2000
   10.7215   -3.3326   17.6437 C   0  0  0  0  0  0  0  0  0  0  0  0
    9.9489   -3.4675   24.6487 N   0  0  0  0  0  0  0  0  0  0  0  0
   10.0172   -4.4740   17.4101 C   0  0  0  0  0  0  0  0  0  0  0  0
    6.9051   -7.9575   16.4222 C   0  0  0  0  0  0  0  0  0  0  0  0
    8.9969   -6.3552   17.9668 N   0  0  0  0  0  0  0  0  0  0  0  0
   10.6702   -3.9051   22.4070 C   0  0  0  0  0  0  0  0  0  0  0  0
   11.0625   -3.0028   18.8894 C   0  0  0  0  0  0  0  0  0  0  0  0
    5.6180   -7.9194   16.1754 O   0  0  0  0  0  0  0  0  0  0  0  0
    9.7259   -5.3080   18.4485 C   0  0  0  0  0  0  0  0  0  0  0  0
    9.4578   -5.0200   16.3036 N   0  0  0  0  0  0  0  0  0  0  0  0
    5.0287   -8.9365   16.8223 C   0  0  0  0  0  0  0  0  0  0  0  0
    8.7742   -6.1498   16.6764 C   0  0  0  0  0  0  0  0  0  0  0  0
   10.9418   -3.4032   21.2053 O   0  0  0  0  0  0  0  0  0  0  0  0
    1.4797   -8.6258   16.2950 C   0  0  0  0  0  0  0  0  0  0  0  0
    9.2861   -1.2743   25.3585 C   0  0  0  0  0  0  0  0  0  0  0  0
    1.8892  -10.3985   17.7511 N   0  0  0  0  0  0  0  0  0  0  0  0
    9.6210   -0.6952   24.0976 C   0  0  0  0  0  0  0  0  0  0  0  0
    7.0792   -9.0217   17.1429 C   0  0  0  0  0  0  0  0  0  0  0  0
    3.1713  -10.1816   17.6634 C   0  0  0  0  0  0  0  0  0  0  0  0
    2.7878   -8.3822   16.2137 C   0  0  0  0  0  0  0  0  0  0  0  0
    9.4601   -2.6590   25.6528 C   0  0  0  0  0  0  0  0  0  0  0  0
   10.1182   -1.5672   23.1165 C   0  0  0  0  0  0  0  0  0  0  0  0
    1.0552   -9.6360   17.0650 C   0  0  0  0  0  0  0  0  0  0  0  0
    3.6519   -9.1783   16.9039 C   0  0  0  0  0  0  0  0  0  0  0  0
    7.8675   -7.0096   15.9415 C   0  0  0  0  0  0  0  0  0  0  0  0
    5.9733   -9.6553   17.3832 N   0  0  0  0  0  0  0  0  0  0  0  0
   10.2411   -2.9363   23.4301 C   0  0  0  0  0  0  0  0  0  0  0  0
   10.7288   -3.8197   19.9525 C   0  0  0  0  0  0  0  0  0  0  0  0
   10.1189   -5.0054   19.6987 C   0  0  0  0  0  0  0  0  0  0  0  0
  1  3  4  0
  1  7  4  0
  2 21  4  0
  2 27  4  0
  3  9  4  0
  3 10  4  0
  4  8  4  0
  4 18  4  0
  4 25  1  0
  5  9  4  0
  5 12  4  0
  6 13  1  0
  6 27  1  0
  7 28  4  0
  8 11  4  0
  9 29  4  0
 10 12  4  0
 11 24  1  0
 11 26  4  0
 12 25  1  0
 13 28  1  0
 14 20  4  0
 14 23  4  0
 15 17  4  0
 15 21  4  0
 16 19  4  0
 16 23  4  0
 17 22  4  0
 18 26  4  0
 19 24  4  0
 20 24  4  0
 22 27  4  0
 28 29  4  0
M  END
$$$$

 Created by Python create_sdf_string function

 29 33  0  0  0  0  0  0  0  0999 V2000
   10.7215   -3.3326   17.6437 C   0  0  0  0  0  0  0  0  0  0  0  0
    9.9489   -3.4675   24.6487 N   0  0  0  0  0  0  0  0  0  0  0  0
   10.0172   -4.4740   17.4101 C   0  0  0  0  0  0  0  0  0  0  0  0
    6.9051   -7.9575   16.4222 C   0  0  0  0  0  0  0  0  0  0  0  0
    8.9969   -6.3552   17.9668 N   0  0  0  0  0  0  0  0  0  0  0  0
   10.6702   -3.9051   22.4070 C   0  0  0  0  0  0  0  0  0  0  0  0
   11.0625   -3.0028   18.8894 C   0  0  0  0  0  0  0  0  0  0  0  0
    5.6180   -7.9194   16.1754 O   0  0  0  0  0  0  0  0  0  0  0  0
    9.7259   -5.3080   18.4485 C   0  0  0  0  0  0  0  0  0  0  0  0
    9.4578   -5.0200   16.3036 N   0  0  0  0  0  0  0  0  0  0  0  0
    5.0287   -8.9365   16.8223 C   0  0  0  0  0  0  0  0  0  0  0  0
    8.7742   -6.1498   16.6764 C   0  0  0  0  0  0  0  0  0  0  0  0
   10.9418   -3.4032   21.2053 O   0  0  0  0  0  0  0  0  0  0  0  0
    1.4797   -8.6258   16.2950 C   0  0  0  0  0  0  0  0  0  0  0  0
    9.2861   -1.2743   25.3585 C   0  0  0  0  0  0  0  0  0  0  0  0
    1.8892  -10.3985   17.7511 N   0  0  0  0  0  0  0  0  0  0  0  0
    9.6210   -0.6952   24.0976 C   0  0  0  0  0  0  0  0  0  0  0  0
    7.0792   -9.0217   17.1429 C   0  0  0  0  0  0  0  0  0  0  0  0
    3.1713  -10.1816   17.6634 C   0  0  0  0  0  0  0  0  0  0  0  0
    2.7878   -8.3822   16.2137 C   0  0  0  0  0  0  0  0  0  0  0  0
    9.4601   -2.6590   25.6528 C   0  0  0  0  0  0  0  0  0  0  0  0
   10.1182   -1.5672   23.1165 C   0  0  0  0  0  0  0  0  0  0  0  0
    1.0552   -9.6360   17.0650 C   0  0  0  0  0  0  0  0  0  0  0  0
    3.6519   -9.1783   16.9039 C   0  0  0  0  0  0  0  0  0  0  0  0
    7.8675   -7.0096   15.9415 C   0  0  0  0  0  0  0  0  0  0  0  0
    5.9733   -9.6553   17.3832 N   0  0  0  0  0  0  0  0  0  0  0  0
   10.2411   -2.9363   23.4301 C   0  0  0  0  0  0  0  0  0  0  0  0
   10.7288   -3.8197   19.9525 C   0  0  0  0  0  0  0  0  0  0  0  0
   10.1189   -5.0054   19.6987 C   0  0  0  0  0  0  0  0  0  0  0  0
  1  3  4  0
  1  7  4  0
  2 21  4  0
  2 27  4  0
  3  9  4  0
  3 10  4  0
  4  8  4  0
  4 18  4  0
  4 25  1  0
  5  9  4  0
  5 12  4  0
  6 13  1  0
  6 27  1  0
  7 28  4  0
  8 11  4  0
  9 29  4  0
 10 12  4  0
 11 24  1  0
 11 26  4  0
 12 25  1  0
 13 28  1  0
 14 20  4  0
 14 23  4  0
 15 17  4  0
 15 21  4  0
 16 19  4  0
 16 23  4  0
 17 22  4  0
 18 26  4  0
 19 24  4  0
 20 24  4  0
 22 27  4  0
 28 29  4  0
M  END
$$$$

 Created by Python create_sdf_string function

 29 33  0  0  0  0  0  0  0  0999 V2000
   10.7215   -3.3326   17.6437 C   0  0  0  0  0  0  0  0  0  0  0  0
    9.9489   -3.4675   24.6487 N   0  0  0  0  0  0  0  0  0  0  0  0
   10.0172   -4.4740   17.4101 C   0  0  0  0  0  0  0  0  0  0  0  0
    6.9051   -7.9575   16.4222 C   0  0  0  0  0  0  0  0  0  0  0  0
    8.9969   -6.3552   17.9668 N   0  0  0  0  0  0  0  0  0  0  0  0
   10.6702   -3.9051   22.4070 C   0  0  0  0  0  0  0  0  0  0  0  0
   11.0625   -3.0028   18.8894 C   0  0  0  0  0  0  0  0  0  0  0  0
    5.6180   -7.9194   16.1754 O   0  0  0  0  0  0  0  0  0  0  0  0
    9.7259   -5.3080   18.4485 C   0  0  0  0  0  0  0  0  0  0  0  0
    9.4578   -5.0200   16.3036 N   0  0  0  0  0  0  0  0  0  0  0  0
    5.0287   -8.9365   16.8223 C   0  0  0  0  0  0  0  0  0  0  0  0
    8.7742   -6.1498   16.6764 C   0  0  0  0  0  0  0  0  0  0  0  0
   10.9418   -3.4032   21.2053 O   0  0  0  0  0  0  0  0  0  0  0  0
    1.4797   -8.6258   16.2950 C   0  0  0  0  0  0  0  0  0  0  0  0
    9.2861   -1.2743   25.3585 C   0  0  0  0  0  0  0  0  0  0  0  0
    1.8892  -10.3985   17.7511 N   0  0  0  0  0  0  0  0  0  0  0  0
    9.6210   -0.6952   24.0976 C   0  0  0  0  0  0  0  0  0  0  0  0
    7.0792   -9.0217   17.1429 C   0  0  0  0  0  0  0  0  0  0  0  0
    3.1713  -10.1816   17.6634 C   0  0  0  0  0  0  0  0  0  0  0  0
    2.7878   -8.3822   16.2137 C   0  0  0  0  0  0  0  0  0  0  0  0
    9.4601   -2.6590   25.6528 C   0  0  0  0  0  0  0  0  0  0  0  0
   10.1182   -1.5672   23.1165 C   0  0  0  0  0  0  0  0  0  0  0  0
    1.0552   -9.6360   17.0650 C   0  0  0  0  0  0  0  0  0  0  0  0
    3.6519   -9.1783   16.9039 C   0  0  0  0  0  0  0  0  0  0  0  0
    7.8675   -7.0096   15.9415 C   0  0  0  0  0  0  0  0  0  0  0  0
    5.9733   -9.6553   17.3832 N   0  0  0  0  0  0  0  0  0  0  0  0
   10.2411   -2.9363   23.4301 C   0  0  0  0  0  0  0  0  0  0  0  0
   10.7288   -3.8197   19.9525 C   0  0  0  0  0  0  0  0  0  0  0  0
   10.1189   -5.0054   19.6987 C   0  0  0  0  0  0  0  0  0  0  0  0
  1  3  4  0
  1  7  4  0
  2 21  4  0
  2 27  4  0
  3  9  4  0
  3 10  4  0
  4  8  4  0
  4 18  4  0
  4 25  1  0
  5  9  4  0
  5 12  4  0
  6 13  1  0
  6 27  1  0
  7 28  4  0
  8 11  4  0
  9 29  4  0
 10 12  4  0
 11 24  1  0
 11 26  4  0
 12 25  1  0
 13 28  1  0
 14 20  4  0
 14 23  4  0
 15 17  4  0
 15 21  4  0
 16 19  4  0
 16 23  4  0
 17 22  4  0
 18 26  4  0
 19 24  4  0
 20 24  4  0
 22 27  4  0
 28 29  4  0
M  END
$$$$

 Created by Python create_sdf_string function

 29 33  0  0  0  0  0  0  0  0999 V2000
   10.7215   -3.3326   17.6437 C   0  0  0  0  0  0  0  0  0  0  0  0
    9.9489   -3.4675   24.6487 N   0  0  0  0  0  0  0  0  0  0  0  0
   10.0172   -4.4740   17.4101 C   0  0  0  0  0  0  0  0  0  0  0  0
    6.9051   -7.9575   16.4222 C   0  0  0  0  0  0  0  0  0  0  0  0
    8.9969   -6.3552   17.9668 N   0  0  0  0  0  0  0  0  0  0  0  0
   10.6702   -3.9051   22.4070 C   0  0  0  0  0  0  0  0  0  0  0  0
   11.0625   -3.0028   18.8894 C   0  0  0  0  0  0  0  0  0  0  0  0
    5.6180   -7.9194   16.1754 O   0  0  0  0  0  0  0  0  0  0  0  0
    9.7259   -5.3080   18.4485 C   0  0  0  0  0  0  0  0  0  0  0  0
    9.4578   -5.0200   16.3036 N   0  0  0  0  0  0  0  0  0  0  0  0
    5.0287   -8.9365   16.8223 C   0  0  0  0  0  0  0  0  0  0  0  0
    8.7742   -6.1498   16.6764 C   0  0  0  0  0  0  0  0  0  0  0  0
   10.9418   -3.4032   21.2053 O   0  0  0  0  0  0  0  0  0  0  0  0
    1.4797   -8.6258   16.2950 C   0  0  0  0  0  0  0  0  0  0  0  0
    9.2861   -1.2743   25.3585 C   0  0  0  0  0  0  0  0  0  0  0  0
    1.8892  -10.3985   17.7511 N   0  0  0  0  0  0  0  0  0  0  0  0
    9.6210   -0.6952   24.0976 C   0  0  0  0  0  0  0  0  0  0  0  0
    7.0792   -9.0217   17.1429 C   0  0  0  0  0  0  0  0  0  0  0  0
    3.1713  -10.1816   17.6634 C   0  0  0  0  0  0  0  0  0  0  0  0
    2.7878   -8.3822   16.2137 C   0  0  0  0  0  0  0  0  0  0  0  0
    9.4601   -2.6590   25.6528 C   0  0  0  0  0  0  0  0  0  0  0  0
   10.1182   -1.5672   23.1165 C   0  0  0  0  0  0  0  0  0  0  0  0
    1.0552   -9.6360   17.0650 C   0  0  0  0  0  0  0  0  0  0  0  0
    3.6519   -9.1783   16.9039 C   0  0  0  0  0  0  0  0  0  0  0  0
    7.8675   -7.0096   15.9415 C   0  0  0  0  0  0  0  0  0  0  0  0
    5.9733   -9.6553   17.3832 N   0  0  0  0  0  0  0  0  0  0  0  0
   10.2411   -2.9363   23.4301 C   0  0  0  0  0  0  0  0  0  0  0  0
   10.7288   -3.8197   19.9525 C   0  0  0  0  0  0  0  0  0  0  0  0
   10.1189   -5.0054   19.6987 C   0  0  0  0  0  0  0  0  0  0  0  0
  1  3  4  0
  1  7  4  0
  2 21  4  0
  2 27  4  0
  3  9  4  0
  3 10  4  0
  4  8  4  0
  4 18  4  0
  4 25  1  0
  5  9  4  0
  5 12  4  0
  6 13  1  0
  6 27  1  0
  7 28  4  0
  8 11  4  0
  9 29  4  0
 10 12  4  0
 11 24  1  0
 11 26  4  0
 12 25  1  0
 13 28  1  0
 14 20  4  0
 14 23  4  0
 15 17  4  0
 15 21  4  0
 16 19  4  0
 16 23  4  0
 17 22  4  0
 18 26  4  0
 19 24  4  0
 20 24  4  0
 22 27  4  0
 28 29  4  0
M  END
$$$$

 Created by Python create_sdf_string function

 29 33  0  0  0  0  0  0  0  0999 V2000
   10.7215   -3.3326   17.6437 C   0  0  0  0  0  0  0  0  0  0  0  0
    9.9489   -3.4675   24.6487 N   0  0  0  0  0  0  0  0  0  0  0  0
   10.0172   -4.4740   17.4101 C   0  0  0  0  0  0  0  0  0  0  0  0
    6.9051   -7.9575   16.4222 C   0  0  0  0  0  0  0  0  0  0  0  0
    8.9969   -6.3552   17.9668 N   0  0  0  0  0  0  0  0  0  0  0  0
   10.6702   -3.9051   22.4070 C   0  0  0  0  0  0  0  0  0  0  0  0
   11.0625   -3.0028   18.8894 C   0  0  0  0  0  0  0  0  0  0  0  0
    5.6180   -7.9194   16.1754 O   0  0  0  0  0  0  0  0  0  0  0  0
    9.7259   -5.3080   18.4485 C   0  0  0  0  0  0  0  0  0  0  0  0
    9.4578   -5.0200   16.3036 N   0  0  0  0  0  0  0  0  0  0  0  0
    5.0287   -8.9365   16.8223 C   0  0  0  0  0  0  0  0  0  0  0  0
    8.7742   -6.1498   16.6764 C   0  0  0  0  0  0  0  0  0  0  0  0
   10.9418   -3.4032   21.2053 O   0  0  0  0  0  0  0  0  0  0  0  0
    1.4797   -8.6258   16.2950 C   0  0  0  0  0  0  0  0  0  0  0  0
    9.2861   -1.2743   25.3585 C   0  0  0  0  0  0  0  0  0  0  0  0
    1.8892  -10.3985   17.7511 N   0  0  0  0  0  0  0  0  0  0  0  0
    9.6210   -0.6952   24.0976 C   0  0  0  0  0  0  0  0  0  0  0  0
    7.0792   -9.0217   17.1429 C   0  0  0  0  0  0  0  0  0  0  0  0
    3.1713  -10.1816   17.6634 C   0  0  0  0  0  0  0  0  0  0  0  0
    2.7878   -8.3822   16.2137 C   0  0  0  0  0  0  0  0  0  0  0  0
    9.4601   -2.6590   25.6528 C   0  0  0  0  0  0  0  0  0  0  0  0
   10.1182   -1.5672   23.1165 C   0  0  0  0  0  0  0  0  0  0  0  0
    1.0552   -9.6360   17.0650 C   0  0  0  0  0  0  0  0  0  0  0  0
    3.6519   -9.1783   16.9039 C   0  0  0  0  0  0  0  0  0  0  0  0
    7.8675   -7.0096   15.9415 C   0  0  0  0  0  0  0  0  0  0  0  0
    5.9733   -9.6553   17.3832 N   0  0  0  0  0  0  0  0  0  0  0  0
   10.2411   -2.9363   23.4301 C   0  0  0  0  0  0  0  0  0  0  0  0
   10.7288   -3.8197   19.9525 C   0  0  0  0  0  0  0  0  0  0  0  0
   10.1189   -5.0054   19.6987 C   0  0  0  0  0  0  0  0  0  0  0  0
  1  3  4  0
  1  7  4  0
  2 21  4  0
  2 27  4  0
  3  9  4  0
  3 10  4  0
  4  8  4  0
  4 18  4  0
  4 25  1  0
  5  9  4  0
  5 12  4  0
  6 13  1  0
  6 27  1  0
  7 28  4  0
  8 11  4  0
  9 29  4  0
 10 12  4  0
 11 24  1  0
 11 26  4  0
 12 25  1  0
 13 28  1  0
 14 20  4  0
 14 23  4  0
 15 17  4  0
 15 21  4  0
 16 19  4  0
 16 23  4  0
 17 22  4  0
 18 26  4  0
 19 24  4  0
 20 24  4  0
 22 27  4  0
 28 29  4  0
M  END
$$$$

 Created by Python create_sdf_string function

 29 33  0  0  0  0  0  0  0  0999 V2000
   10.7215   -3.3326   17.6437 C   0  0  0  0  0  0  0  0  0  0  0  0
    9.9489   -3.4675   24.6487 N   0  0  0  0  0  0  0  0  0  0  0  0
   10.0172   -4.4740   17.4101 C   0  0  0  0  0  0  0  0  0  0  0  0
    6.9051   -7.9575   16.4222 C   0  0  0  0  0  0  0  0  0  0  0  0
    8.9969   -6.3552   17.9668 N   0  0  0  0  0  0  0  0  0  0  0  0
   10.6702   -3.9051   22.4070 C   0  0  0  0  0  0  0  0  0  0  0  0
   11.0625   -3.0028   18.8894 C   0  0  0  0  0  0  0  0  0  0  0  0
    5.6180   -7.9194   16.1754 O   0  0  0  0  0  0  0  0  0  0  0  0
    9.7259   -5.3080   18.4485 C   0  0  0  0  0  0  0  0  0  0  0  0
    9.4578   -5.0200   16.3036 N   0  0  0  0  0  0  0  0  0  0  0  0
    5.0287   -8.9365   16.8223 C   0  0  0  0  0  0  0  0  0  0  0  0
    8.7742   -6.1498   16.6764 C   0  0  0  0  0  0  0  0  0  0  0  0
   10.9418   -3.4032   21.2053 O   0  0  0  0  0  0  0  0  0  0  0  0
    1.4797   -8.6258   16.2950 C   0  0  0  0  0  0  0  0  0  0  0  0
    9.2861   -1.2743   25.3585 C   0  0  0  0  0  0  0  0  0  0  0  0
    1.8892  -10.3985   17.7511 N   0  0  0  0  0  0  0  0  0  0  0  0
    9.6210   -0.6952   24.0976 C   0  0  0  0  0  0  0  0  0  0  0  0
    7.0792   -9.0217   17.1429 C   0  0  0  0  0  0  0  0  0  0  0  0
    3.1713  -10.1816   17.6634 C   0  0  0  0  0  0  0  0  0  0  0  0
    2.7878   -8.3822   16.2137 C   0  0  0  0  0  0  0  0  0  0  0  0
    9.4601   -2.6590   25.6528 C   0  0  0  0  0  0  0  0  0  0  0  0
   10.1182   -1.5672   23.1165 C   0  0  0  0  0  0  0  0  0  0  0  0
    1.0552   -9.6360   17.0650 C   0  0  0  0  0  0  0  0  0  0  0  0
    3.6519   -9.1783   16.9039 C   0  0  0  0  0  0  0  0  0  0  0  0
    7.8675   -7.0096   15.9415 C   0  0  0  0  0  0  0  0  0  0  0  0
    5.9733   -9.6553   17.3832 N   0  0  0  0  0  0  0  0  0  0  0  0
   10.2411   -2.9363   23.4301 C   0  0  0  0  0  0  0  0  0  0  0  0
   10.7288   -3.8197   19.9525 C   0  0  0  0  0  0  0  0  0  0  0  0
   10.1189   -5.0054   19.6987 C   0  0  0  0  0  0  0  0  0  0  0  0
  1  3  4  0
  1  7  4  0
  2 21  4  0
  2 27  4  0
  3  9  4  0
  3 10  4  0
  4  8  4  0
  4 18  4  0
  4 25  1  0
  5  9  4  0
  5 12  4  0
  6 13  1  0
  6 27  1  0
  7 28  4  0
  8 11  4  0
  9 29  4  0
 10 12  4  0
 11 24  1  0
 11 26  4  0
 12 25  1  0
 13 28  1  0
 14 20  4  0
 14 23  4  0
 15 17  4  0
 15 21  4  0
 16 19  4  0
 16 23  4  0
 17 22  4  0
 18 26  4  0
 19 24  4  0
 20 24  4  0
 22 27  4  0
 28 29  4  0
M  END
$$$$

 Created by Python create_sdf_string function

 29 33  0  0  0  0  0  0  0  0999 V2000
   10.7215   -3.3326   17.6437 C   0  0  0  0  0  0  0  0  0  0  0  0
    9.9489   -3.4675   24.6487 N   0  0  0  0  0  0  0  0  0  0  0  0
   10.0172   -4.4740   17.4101 C   0  0  0  0  0  0  0  0  0  0  0  0
    6.9051   -7.9575   16.4222 C   0  0  0  0  0  0  0  0  0  0  0  0
    8.9969   -6.3552   17.9668 N   0  0  0  0  0  0  0  0  0  0  0  0
   10.6702   -3.9051   22.4070 C   0  0  0  0  0  0  0  0  0  0  0  0
   11.0625   -3.0028   18.8894 C   0  0  0  0  0  0  0  0  0  0  0  0
    5.6180   -7.9194   16.1754 O   0  0  0  0  0  0  0  0  0  0  0  0
    9.7259   -5.3080   18.4485 C   0  0  0  0  0  0  0  0  0  0  0  0
    9.4578   -5.0200   16.3036 N   0  0  0  0  0  0  0  0  0  0  0  0
    5.0287   -8.9365   16.8223 C   0  0  0  0  0  0  0  0  0  0  0  0
    8.7742   -6.1498   16.6764 C   0  0  0  0  0  0  0  0  0  0  0  0
   10.9418   -3.4032   21.2053 O   0  0  0  0  0  0  0  0  0  0  0  0
    1.4797   -8.6258   16.2950 C   0  0  0  0  0  0  0  0  0  0  0  0
    9.2861   -1.2743   25.3585 C   0  0  0  0  0  0  0  0  0  0  0  0
    1.8892  -10.3985   17.7511 N   0  0  0  0  0  0  0  0  0  0  0  0
    9.6210   -0.6952   24.0976 C   0  0  0  0  0  0  0  0  0  0  0  0
    7.0792   -9.0217   17.1429 C   0  0  0  0  0  0  0  0  0  0  0  0
    3.1713  -10.1816   17.6634 C   0  0  0  0  0  0  0  0  0  0  0  0
    2.7878   -8.3822   16.2137 C   0  0  0  0  0  0  0  0  0  0  0  0
    9.4601   -2.6590   25.6528 C   0  0  0  0  0  0  0  0  0  0  0  0
   10.1182   -1.5672   23.1165 C   0  0  0  0  0  0  0  0  0  0  0  0
    1.0552   -9.6360   17.0650 C   0  0  0  0  0  0  0  0  0  0  0  0
    3.6519   -9.1783   16.9039 C   0  0  0  0  0  0  0  0  0  0  0  0
    7.8675   -7.0096   15.9415 C   0  0  0  0  0  0  0  0  0  0  0  0
    5.9733   -9.6553   17.3832 N   0  0  0  0  0  0  0  0  0  0  0  0
   10.2411   -2.9363   23.4301 C   0  0  0  0  0  0  0  0  0  0  0  0
   10.7288   -3.8197   19.9525 C   0  0  0  0  0  0  0  0  0  0  0  0
   10.1189   -5.0054   19.6987 C   0  0  0  0  0  0  0  0  0  0  0  0
  1  3  4  0
  1  7  4  0
  2 21  4  0
  2 27  4  0
  3  9  4  0
  3 10  4  0
  4  8  4  0
  4 18  4  0
  4 25  1  0
  5  9  4  0
  5 12  4  0
  6 13  1  0
  6 27  1  0
  7 28  4  0
  8 11  4  0
  9 29  4  0
 10 12  4  0
 11 24  1  0
 11 26  4  0
 12 25  1  0
 13 28  1  0
 14 20  4  0
 14 23  4  0
 15 17  4  0
 15 21  4  0
 16 19  4  0
 16 23  4  0
 17 22  4  0
 18 26  4  0
 19 24  4  0
 20 24  4  0
 22 27  4  0
 28 29  4  0
M  END
