
 Created by Python create_sdf_string function

 29 61  0  0  0  0  0  0  0  0999 V2000
    7.8222   -9.5587   18.1023 N   0  0  0  0  0  0  0  0  0  0  0  0
    6.8958   -8.3320   16.8969 C   0  0  0  0  0  0  0  0  0  0  0  0
    8.1335   -6.2214   15.2164 C   0  0  0  0  0  0  0  0  0  0  0  0
    8.7503   -7.8332   17.3633 F   0  0  0  0  0  0  0  0  0  0  0  0
    8.2073   -7.2648   16.2279 Se  0  0  0  0  0  0  0  0  0  0  0  0
    6.5013   -6.6592   15.2074 Cl  0  0  0  0  0  0  0  0  0  0  0  0
    7.8965   -7.6029   16.8219 N   0  0  0  0  0  0  0  0  0  0  0  0
    7.8974   -9.7764   17.1841 N   0  0  0  0  0  0  0  0  0  0  0  0
    7.0118   -7.9423   17.9708 Se  0  0  0  0  0  0  0  0  0  0  0  0
    7.3222   -7.6852   18.0161 P   0  0  0  0  0  0  0  0  0  0  0  0
    7.2414   -8.4322   19.2286 O   0  0  0  0  0  0  0  0  0  0  0  0
    7.3908   -8.9488   15.5881 F   0  0  0  0  0  0  0  0  0  0  0  0
    8.2903   -7.3763   16.9749 Br  0  0  0  0  0  0  0  0  0  0  0  0
    7.6594   -9.1630   17.2240 Se  0  0  0  0  0  0  0  0  0  0  0  0
    7.7172   -8.8184   16.2697 N   0  0  0  0  0  0  0  0  0  0  0  0
   10.5166   -8.6313   18.3639 N   0  0  0  0  0  0  0  0  0  0  0  0
    9.3095   -7.7701   16.9713 C   0  0  0  0  0  0  0  0  0  0  0  0
    8.5277   -8.4032   16.8371 Se  0  0  0  0  0  0  0  0  0  0  0  0
    7.5630   -9.1824   16.9228 He  0  0  0  0  0  0  0  0  0  0  0  0
    8.2100   -7.1489   16.7620 He  0  0  0  0  0  0  0  0  0  0  0  0
    9.2093   -8.7341   17.4773 He  0  0  0  0  0  0  0  0  0  0  0  0
    7.9960   -8.4123   17.9333 He  0  0  0  0  0  0  0  0  0  0  0  0
    6.4544   -9.3500   17.2448 He  0  0  0  0  0  0  0  0  0  0  0  0
    8.3823   -8.7454   16.0235 He  0  0  0  0  0  0  0  0  0  0  0  0
    4.5174   -7.5849   16.5059 He  0  0  0  0  0  0  0  0  0  0  0  0
    7.0402   -9.9255   17.1799 He  0  0  0  0  0  0  0  0  0  0  0  0
    7.1480   -7.0301   16.4887 He  0  0  0  0  0  0  0  0  0  0  0  0
    7.9640   -9.4895   16.0217 He  0  0  0  0  0  0  0  0  0  0  0  0
    8.3748   -9.0176   17.2828 He  0  0  0  0  0  0  0  0  0  0  0  0
  1  4  2  0
  1  5  2  0
  1  8  1  0
  1 11  4  0
  1 14  1  0
  2  3  3  0
  2  4  2  0
  2  5  2  0
  2  6  4  0
  2  9  2  0
  2 10  2  0
  2 12  2  0
  2 13  4  0
  2 15  2  0
  2 17  2  0
  2 18  2  0
  3  6  4  0
  3  8  3  0
  3 11  4  0
  3 15  4  0
  3 16  2  0
  4  8  2  0
  4 11  2  0
  4 12  4  0
  4 13  2  0
  4 14  3  0
  5 13  4  0
  5 16  4  0
  5 18  1  0
  6 10  3  0
  6 13  4  0
  6 17  1  0
  6 18  4  0
  7  8  1  0
  7  9  3  0
  7 10  4  0
  7 12  3  0
  7 14  2  0
  7 17  3  0
  8  9  2  0
  8 13  1  0
  8 14  3  0
  8 17  1  0
  9 12  1  0
  9 13  2  0
  9 17  1  0
  9 18  4  0
 10 12  4  0
 10 18  1  0
 11 13  2  0
 11 15  1  0
 11 16  2  0
 11 18  1  0
 12 15  4  0
 13 16  3  0
 14 15  2  0
 14 16  4  0
 14 18  2  0
 15 16  1  0
 15 17  2  0
 16 18  4  0
M  END
$$$$

 Created by Python create_sdf_string function

 29 32  0  0  0  0  0  0  0  0999 V2000
    6.3727  -10.7893   17.4450 Cl  0  0  0  0  0  0  0  0  0  0  0  0
    5.0746   -7.3169   17.6766 N   0  0  0  0  0  0  0  0  0  0  0  0
    7.9044   -5.1283   15.1873 N   0  0  0  0  0  0  0  0  0  0  0  0
    9.6360   -6.6921   18.5646 O   0  0  0  0  0  0  0  0  0  0  0  0
    7.0854   -6.6302   16.2183 P   0  0  0  0  0  0  0  0  0  0  0  0
    8.7503   -5.7298   15.9015 N   0  0  0  0  0  0  0  0  0  0  0  0
    7.6752   -7.2491   17.4802 O   0  0  0  0  0  0  0  0  0  0  0  0
    7.2324   -8.7961   18.3137 Se  0  0  0  0  0  0  0  0  0  0  0  0
    7.8835   -8.4112   18.6395 C   0  0  0  0  0  0  0  0  0  0  0  0
    4.9663   -8.9413   19.1455 O   0  0  0  0  0  0  0  0  0  0  0  0
    7.2895   -8.3029   14.6961 N   0  0  0  0  0  0  0  0  0  0  0  0
    7.1722   -8.1677   17.3409 N   0  0  0  0  0  0  0  0  0  0  0  0
    7.5156   -9.9221   17.1745 S   0  0  0  0  0  0  0  0  0  0  0  0
    6.5049   -7.2674   16.0089 Cl  0  0  0  0  0  0  0  0  0  0  0  0
    6.8049  -10.3176   16.4883 He  0  0  0  0  0  0  0  0  0  0  0  0
    6.1192   -7.6729   14.9752 He  0  0  0  0  0  0  0  0  0  0  0  0
    9.4146   -8.4316   16.8314 He  0  0  0  0  0  0  0  0  0  0  0  0
    5.5440   -6.7362   18.3056 He  0  0  0  0  0  0  0  0  0  0  0  0
    5.7267   -6.4924   16.7415 He  0  0  0  0  0  0  0  0  0  0  0  0
    7.3541   -5.8068   18.5298 He  0  0  0  0  0  0  0  0  0  0  0  0
    6.7091   -8.7352   17.1048 He  0  0  0  0  0  0  0  0  0  0  0  0
    7.9633   -7.6690   17.5443 He  0  0  0  0  0  0  0  0  0  0  0  0
    7.4913   -9.8887   17.4370 He  0  0  0  0  0  0  0  0  0  0  0  0
    5.8867   -7.5974   17.6271 He  0  0  0  0  0  0  0  0  0  0  0  0
    9.5598   -7.1177   17.6180 He  0  0  0  0  0  0  0  0  0  0  0  0
   10.3411   -6.5992   16.3190 He  0  0  0  0  0  0  0  0  0  0  0  0
    9.5099   -6.4827   17.3860 He  0  0  0  0  0  0  0  0  0  0  0  0
    7.6319   -9.5375   14.4139 He  0  0  0  0  0  0  0  0  0  0  0  0
    9.1391   -9.4872   18.7618 He  0  0  0  0  0  0  0  0  0  0  0  0
  1  3  4  0
  1  4  2  0
  1  5  4  0
  1  6  2  0
  1  8  1  0
  1  9  4  0
  1 10  4  0
  1 11  4  0
  1 12  1  0
  2  5  1  0
  2  9  1  0
  2 10  1  0
  2 13  2  0
  2 14  2  0
  3  4  1  0
  3  9  1  0
  3 14  4  0
  4  7  1  0
  5  7  3  0
  5 10  4  0
  5 12  2  0
  6 10  2  0
  6 11  4  0
  6 13  2  0
  7  9  2  0
  8 11  3  0
  9 10  2  0
  9 11  1  0
  9 14  2  0
 10 12  4  0
 12 13  3  0
 13 14  1  0
M  END
$$$$

 Created by Python create_sdf_string function

 29 32  0  0  0  0  0  0  0  0999 V2000
    5.6400   -8.5473   18.4074 Cl  0  0  0  0  0  0  0  0  0  0  0  0
    9.9118   -5.1066   16.6915 F   0  0  0  0  0  0  0  0  0  0  0  0
    7.9995   -5.9345   18.9324 N   0  0  0  0  0  0  0  0  0  0  0  0
    8.7833   -8.5176   16.8288 N   0  0  0  0  0  0  0  0  0  0  0  0
    5.1586   -6.7461   17.9221 C   0  0  0  0  0  0  0  0  0  0  0  0
    5.6335   -8.3996   13.9700 S   0  0  0  0  0  0  0  0  0  0  0  0
    8.5794   -6.1888   18.4130 Cl  0  0  0  0  0  0  0  0  0  0  0  0
   10.8929   -7.9088   16.9886 P   0  0  0  0  0  0  0  0  0  0  0  0
    6.5561  -10.3020   16.8670 O   0  0  0  0  0  0  0  0  0  0  0  0
    9.4967   -7.7917   18.9656 O   0  0  0  0  0  0  0  0  0  0  0  0
    5.9164   -8.0668   15.9706 O   0  0  0  0  0  0  0  0  0  0  0  0
    8.9022   -3.0229   17.0336 O   0  0  0  0  0  0  0  0  0  0  0  0
   10.5164   -6.7698   18.0051 N   0  0  0  0  0  0  0  0  0  0  0  0
    7.3799  -10.1750   16.0120 He  0  0  0  0  0  0  0  0  0  0  0  0
    4.8065   -8.5853   14.0867 He  0  0  0  0  0  0  0  0  0  0  0  0
    7.8583   -5.9579   15.0965 He  0  0  0  0  0  0  0  0  0  0  0  0
   10.0554   -6.5145   18.1077 He  0  0  0  0  0  0  0  0  0  0  0  0
    7.4403   -5.6916   16.1697 He  0  0  0  0  0  0  0  0  0  0  0  0
    5.7452   -8.5880   13.7420 He  0  0  0  0  0  0  0  0  0  0  0  0
    8.0860   -6.8445   17.5146 He  0  0  0  0  0  0  0  0  0  0  0  0
    5.8938   -9.1265   18.7500 He  0  0  0  0  0  0  0  0  0  0  0  0
    3.8697  -10.1048   18.2155 He  0  0  0  0  0  0  0  0  0  0  0  0
    8.1497   -8.4370   15.6299 He  0  0  0  0  0  0  0  0  0  0  0  0
    5.9886   -7.4357   15.9967 He  0  0  0  0  0  0  0  0  0  0  0  0
    7.9510  -10.1952   17.9961 He  0  0  0  0  0  0  0  0  0  0  0  0
    4.1437   -8.1615   16.6912 He  0  0  0  0  0  0  0  0  0  0  0  0
    7.2619   -8.0150   17.7527 He  0  0  0  0  0  0  0  0  0  0  0  0
    9.8039   -4.3668   17.1211 He  0  0  0  0  0  0  0  0  0  0  0  0
    7.6250   -7.2945   15.0837 He  0  0  0  0  0  0  0  0  0  0  0  0
  1  9  2  0
  1 11  4  0
  2  4  3  0
  2  6  4  0
  2  7  3  0
  2 10  2  0
  2 12  1  0
  2 13  3  0
  3  4  2  0
  3  5  4  0
  3  9  2  0
  3 12  4  0
  3 13  4  0
  4  5  4  0
  4  7  1  0
  4 10  4  0
  4 11  3  0
  4 13  1  0
  5  7  3  0
  5  8  1  0
  5 10  2  0
  5 11  3  0
  6  8  4  0
  6 11  4  0
  6 13  2  0
  7  8  3  0
  8  9  2  0
  8 10  2  0
  8 11  4  0
  9 11  3  0
 10 13  1  0
 11 13  1  0
M  END
$$$$

 Created by Python create_sdf_string function

 29 23  0  0  0  0  0  0  0  0999 V2000
    6.5274   -9.3507   16.1197 F   0  0  0  0  0  0  0  0  0  0  0  0
    5.9878   -8.2163   16.5619 F   0  0  0  0  0  0  0  0  0  0  0  0
    7.9098   -4.8186   15.1008 I   0  0  0  0  0  0  0  0  0  0  0  0
   10.7058   -5.8207   17.5419 C   0  0  0  0  0  0  0  0  0  0  0  0
    6.8024   -9.0996   18.7916 S   0  0  0  0  0  0  0  0  0  0  0  0
    4.5678   -6.9081   16.7422 N   0  0  0  0  0  0  0  0  0  0  0  0
    4.5320   -8.4121   14.4821 C   0  0  0  0  0  0  0  0  0  0  0  0
    8.1352   -6.2273   17.1284 N   0  0  0  0  0  0  0  0  0  0  0  0
    9.0379   -7.3157   17.5345 F   0  0  0  0  0  0  0  0  0  0  0  0
    9.7006   -3.3902   15.0399 F   0  0  0  0  0  0  0  0  0  0  0  0
    9.2800   -5.3851   18.2104 N   0  0  0  0  0  0  0  0  0  0  0  0
    5.7464  -10.3412   14.1818 He  0  0  0  0  0  0  0  0  0  0  0  0
    8.0547   -6.9860   15.4201 He  0  0  0  0  0  0  0  0  0  0  0  0
    9.7387   -6.2209   19.2152 He  0  0  0  0  0  0  0  0  0  0  0  0
   10.5587   -3.1451   16.2356 He  0  0  0  0  0  0  0  0  0  0  0  0
    7.0870   -8.6387   14.9252 He  0  0  0  0  0  0  0  0  0  0  0  0
    8.7321   -7.2785   18.9297 He  0  0  0  0  0  0  0  0  0  0  0  0
   10.0217   -9.1192   17.6834 He  0  0  0  0  0  0  0  0  0  0  0  0
    3.8213  -10.1111   18.4217 He  0  0  0  0  0  0  0  0  0  0  0  0
    8.2998   -8.1343   17.7924 He  0  0  0  0  0  0  0  0  0  0  0  0
    6.8161   -7.0683   16.9619 He  0  0  0  0  0  0  0  0  0  0  0  0
   10.7612   -8.9169   16.5922 He  0  0  0  0  0  0  0  0  0  0  0  0
    8.5164   -8.5452   17.9361 He  0  0  0  0  0  0  0  0  0  0  0  0
    3.9388   -7.0137   15.8694 He  0  0  0  0  0  0  0  0  0  0  0  0
    7.3560   -6.2745   18.7721 He  0  0  0  0  0  0  0  0  0  0  0  0
    6.2305   -9.4302   17.1313 He  0  0  0  0  0  0  0  0  0  0  0  0
    4.9085   -8.2198   16.2184 He  0  0  0  0  0  0  0  0  0  0  0  0
    9.4702   -4.6393   16.8318 He  0  0  0  0  0  0  0  0  0  0  0  0
    8.9030   -6.1013   16.4623 He  0  0  0  0  0  0  0  0  0  0  0  0
  1  2  4  0
  1  3  2  0
  1  4  3  0
  1  5  1  0
  1  8  3  0
  1 10  3  0
  2  3  4  0
  2  4  2  0
  2  9  4  0
  2 11  1  0
  3  4  2  0
  3  8  4  0
  3  9  3  0
  4  6  1  0
  4  7  4  0
  4  8  2  0
  4  9  1  0
  5  6  4  0
  5 10  2  0
  6  7  3  0
  6  9  1  0
  7  9  4  0
  7 11  3  0
M  END
$$$$

 Created by Python create_sdf_string function

 29 65  0  0  0  0  0  0  0  0999 V2000
    7.4110   -8.6853   14.8163 Cl  0  0  0  0  0  0  0  0  0  0  0  0
    5.4822  -10.7872   15.3991 N   0  0  0  0  0  0  0  0  0  0  0  0
    9.6551   -7.2779   20.3591 C   0  0  0  0  0  0  0  0  0  0  0  0
    9.4660   -3.4734   14.4753 F   0  0  0  0  0  0  0  0  0  0  0  0
   10.9911   -3.5276   15.8267 C   0  0  0  0  0  0  0  0  0  0  0  0
   11.1548   -5.5741   20.7133 N   0  0  0  0  0  0  0  0  0  0  0  0
    6.1217  -10.0300   18.3904 S   0  0  0  0  0  0  0  0  0  0  0  0
    9.2012   -8.9572   16.0210 P   0  0  0  0  0  0  0  0  0  0  0  0
    5.6932   -7.3689   15.2364 F   0  0  0  0  0  0  0  0  0  0  0  0
    8.8623   -5.4712   18.7914 N   0  0  0  0  0  0  0  0  0  0  0  0
    8.2838   -8.6056   18.8757 F   0  0  0  0  0  0  0  0  0  0  0  0
    6.8820   -5.5907   15.0580 N   0  0  0  0  0  0  0  0  0  0  0  0
    9.0431   -8.6102   17.6013 N   0  0  0  0  0  0  0  0  0  0  0  0
    8.6730   -8.9549   17.4966 Cl  0  0  0  0  0  0  0  0  0  0  0  0
    4.1370   -7.6802   16.9931 C   0  0  0  0  0  0  0  0  0  0  0  0
    7.9611   -6.6149   18.5614 O   0  0  0  0  0  0  0  0  0  0  0  0
    5.3454  -10.6086   16.2173 Se  0  0  0  0  0  0  0  0  0  0  0  0
    7.9699   -6.7721   19.0480 B   0  0  0  0  0  0  0  0  0  0  0  0
    4.9691   -7.8736   16.2934 N   0  0  0  0  0  0  0  0  0  0  0  0
   12.4997   -5.4359   18.8004 C   0  0  0  0  0  0  0  0  0  0  0  0
    6.0281   -7.8757   16.3975 He  0  0  0  0  0  0  0  0  0  0  0  0
    8.6846   -7.3895   15.0722 He  0  0  0  0  0  0  0  0  0  0  0  0
    7.5734   -8.8706   16.0995 He  0  0  0  0  0  0  0  0  0  0  0  0
    9.6661   -6.5144   19.3226 He  0  0  0  0  0  0  0  0  0  0  0  0
    5.3689   -7.1277   18.3031 He  0  0  0  0  0  0  0  0  0  0  0  0
    4.7398   -9.5687   15.8590 He  0  0  0  0  0  0  0  0  0  0  0  0
   10.4717   -4.9438   13.1593 He  0  0  0  0  0  0  0  0  0  0  0  0
   10.8298   -3.8746   18.0001 He  0  0  0  0  0  0  0  0  0  0  0  0
   10.2837   -4.8032   15.3034 He  0  0  0  0  0  0  0  0  0  0  0  0
  1  9  1  0
  1 10  4  0
  1 12  1  0
  1 13  2  0
  1 17  1  0
  1 18  4  0
  1 20  4  0
  2  3  3  0
  2  4  2  0
  2 10  2  0
  2 15  1  0
  2 19  3  0
  2 20  2  0
  3  4  1  0
  3  6  4  0
  3  7  1  0
  3  8  4  0
  3  9  2  0
  3 11  1  0
  3 12  1  0
  4  5  1  0
  4  8  2  0
  4 13  4  0
  4 15  2  0
  4 16  2  0
  5  7  3  0
  5  8  1  0
  5 10  2  0
  5 12  1  0
  5 14  3  0
  5 18  4  0
  5 20  1  0
  6  7  4  0
  6 10  4  0
  6 11  4  0
  6 13  1  0
  6 19  2  0
  7  9  4  0
  7 16  4  0
  7 18  1  0
  8 10  2  0
  8 11  2  0
  8 13  3  0
  9 10  2  0
  9 11  1  0
  9 12  1  0
  9 13  3  0
  9 18  3  0
 10 13  2  0
 10 14  4  0
 10 16  4  0
 10 18  2  0
 10 19  4  0
 11 13  4  0
 11 14  4  0
 12 14  4  0
 12 17  2  0
 12 18  1  0
 13 14  1  0
 13 16  4  0
 14 20  3  0
 15 20  2  0
 16 18  4  0
 16 19  4  0
 16 20  3  0
M  END
$$$$

 Created by Python create_sdf_string function

 29 20  0  0  0  0  0  0  0  0999 V2000
    5.6667   -7.3282   15.8540 C   0  0  0  0  0  0  0  0  0  0  0  0
    6.5940   -9.2056   15.1341 C   0  0  0  0  0  0  0  0  0  0  0  0
   10.3901   -5.1445   14.8298 F   0  0  0  0  0  0  0  0  0  0  0  0
    6.9722   -6.6029   20.5092 N   0  0  0  0  0  0  0  0  0  0  0  0
    8.3356   -7.8976   17.2331 O   0  0  0  0  0  0  0  0  0  0  0  0
    4.3344   -8.2898   17.2077 C   0  0  0  0  0  0  0  0  0  0  0  0
    7.4865   -6.4088   15.6748 C   0  0  0  0  0  0  0  0  0  0  0  0
    7.2601   -9.4103   19.0749 C   0  0  0  0  0  0  0  0  0  0  0  0
    3.2415   -9.1562   16.5828 C   0  0  0  0  0  0  0  0  0  0  0  0
   10.8224   -4.5116   18.6093 C   0  0  0  0  0  0  0  0  0  0  0  0
    7.8090   -8.8010   17.5744 He  0  0  0  0  0  0  0  0  0  0  0  0
    7.2437   -8.3115   14.2812 He  0  0  0  0  0  0  0  0  0  0  0  0
   10.0267   -6.4262   19.2779 He  0  0  0  0  0  0  0  0  0  0  0  0
   10.4153   -5.0597   16.7563 He  0  0  0  0  0  0  0  0  0  0  0  0
    7.8253   -8.2588   15.6389 He  0  0  0  0  0  0  0  0  0  0  0  0
   12.2292   -5.8695   20.0729 He  0  0  0  0  0  0  0  0  0  0  0  0
    7.4235  -10.0225   17.7569 He  0  0  0  0  0  0  0  0  0  0  0  0
    5.7880   -6.8949   16.6971 He  0  0  0  0  0  0  0  0  0  0  0  0
    9.6585   -7.0054   17.0037 He  0  0  0  0  0  0  0  0  0  0  0  0
    5.3991   -7.4549   15.8563 He  0  0  0  0  0  0  0  0  0  0  0  0
    7.9564   -7.6093   18.7682 He  0  0  0  0  0  0  0  0  0  0  0  0
    9.1151   -7.6823   18.3185 He  0  0  0  0  0  0  0  0  0  0  0  0
    8.7051   -7.0535   20.1349 He  0  0  0  0  0  0  0  0  0  0  0  0
    4.5081   -9.2669   15.7109 He  0  0  0  0  0  0  0  0  0  0  0  0
    9.2215   -6.2133   18.8444 He  0  0  0  0  0  0  0  0  0  0  0  0
   11.6686   -5.3266   16.1436 He  0  0  0  0  0  0  0  0  0  0  0  0
    4.5250   -7.1978   17.0338 He  0  0  0  0  0  0  0  0  0  0  0  0
   10.5510   -2.9277   18.1683 He  0  0  0  0  0  0  0  0  0  0  0  0
   10.1326   -6.3783   17.3909 He  0  0  0  0  0  0  0  0  0  0  0  0
  1  2  4  0
  1  3  1  0
  1  5  1  0
  1  6  2  0
  1  8  1  0
  1 10  1  0
  2  4  3  0
  2  7  4  0
  3  4  1  0
  3  7  3  0
  3  9  4  0
  3 10  1  0
  4  7  3  0
  4  8  1  0
  5  8  3  0
  5 10  2  0
  6 10  1  0
  7  8  2  0
  7  9  3  0
  8 10  1  0
M  END
$$$$

 Created by Python create_sdf_string function

 29 18  0  0  0  0  0  0  0  0999 V2000
    4.8638   -7.5596   16.0789 F   0  0  0  0  0  0  0  0  0  0  0  0
    9.9299   -7.5175   19.1470 S   0  0  0  0  0  0  0  0  0  0  0  0
   10.8984   -3.3479   14.0066 S   0  0  0  0  0  0  0  0  0  0  0  0
    8.9486   -4.7293   17.5664 N   0  0  0  0  0  0  0  0  0  0  0  0
    5.3805   -6.4729   15.8539 I   0  0  0  0  0  0  0  0  0  0  0  0
    5.0110   -8.2550   15.9985 N   0  0  0  0  0  0  0  0  0  0  0  0
    9.3283   -7.8831   18.8819 S   0  0  0  0  0  0  0  0  0  0  0  0
    5.3043   -9.8912   17.2566 I   0  0  0  0  0  0  0  0  0  0  0  0
   10.2358   -3.6629   19.5548 S   0  0  0  0  0  0  0  0  0  0  0  0
   12.1657   -2.4238   19.7319 F   0  0  0  0  0  0  0  0  0  0  0  0
    5.2860   -6.8151   16.2014 He  0  0  0  0  0  0  0  0  0  0  0  0
    8.4851   -7.9605   17.8690 He  0  0  0  0  0  0  0  0  0  0  0  0
    6.8219   -6.8226   13.2502 He  0  0  0  0  0  0  0  0  0  0  0  0
    8.5878   -8.8154   15.8348 He  0  0  0  0  0  0  0  0  0  0  0  0
    7.8524   -7.8418   18.1287 He  0  0  0  0  0  0  0  0  0  0  0  0
    9.8514   -4.5200   17.8765 He  0  0  0  0  0  0  0  0  0  0  0  0
    8.6776   -9.3615   17.9338 He  0  0  0  0  0  0  0  0  0  0  0  0
    6.2078   -8.3191   16.4648 He  0  0  0  0  0  0  0  0  0  0  0  0
    5.6806  -10.3318   17.5262 He  0  0  0  0  0  0  0  0  0  0  0  0
    8.9743   -6.2064   16.2946 He  0  0  0  0  0  0  0  0  0  0  0  0
    5.7391   -5.8623   14.7849 He  0  0  0  0  0  0  0  0  0  0  0  0
    6.3331   -6.0577   17.9796 He  0  0  0  0  0  0  0  0  0  0  0  0
    6.3485   -8.3435   19.1789 He  0  0  0  0  0  0  0  0  0  0  0  0
    2.7605   -8.1816   15.4015 He  0  0  0  0  0  0  0  0  0  0  0  0
   11.3165   -7.0449   21.8508 He  0  0  0  0  0  0  0  0  0  0  0  0
    9.0592   -5.9426   19.8942 He  0  0  0  0  0  0  0  0  0  0  0  0
   11.8481   -5.5773   16.0977 He  0  0  0  0  0  0  0  0  0  0  0  0
    4.6165   -5.8429   15.7406 He  0  0  0  0  0  0  0  0  0  0  0  0
   10.6089   -6.0476   16.7553 He  0  0  0  0  0  0  0  0  0  0  0  0
  1  6  3  0
  1  9  2  0
  2  3  2  0
  2  4  4  0
  2  9  3  0
  3  8  1  0
  3  9  1  0
  3 10  2  0
  4  5  3  0
  4  8  3  0
  4 10  1  0
  5  6  3  0
  6  9  2  0
  7  9  3  0
  7 10  1  0
  8  9  2  0
  8 10  3  0
  9 10  1  0
M  END
$$$$

 Created by Python create_sdf_string function

 29 31  0  0  0  0  0  0  0  0999 V2000
    5.8797   -8.4229   16.1243 C   0  0  0  0  0  0  0  0  0  0  0  0
    8.1187   -9.3565   18.2008 N   0  0  0  0  0  0  0  0  0  0  0  0
    4.4961   -6.6196   14.8889 P   0  0  0  0  0  0  0  0  0  0  0  0
    9.7029   -4.5059   16.0372 C   0  0  0  0  0  0  0  0  0  0  0  0
    9.0801   -5.7196   18.1367 O   0  0  0  0  0  0  0  0  0  0  0  0
    7.7303   -7.7696   15.5133 F   0  0  0  0  0  0  0  0  0  0  0  0
    4.8500   -6.7752   15.3991 Br  0  0  0  0  0  0  0  0  0  0  0  0
    8.5423   -4.6791   16.3876 F   0  0  0  0  0  0  0  0  0  0  0  0
   11.3517   -5.6791   21.0928 C   0  0  0  0  0  0  0  0  0  0  0  0
   10.6002   -7.3658   19.2822 S   0  0  0  0  0  0  0  0  0  0  0  0
    4.7328   -5.5856   15.3985 N   0  0  0  0  0  0  0  0  0  0  0  0
   11.1635   -3.4393   21.2767 N   0  0  0  0  0  0  0  0  0  0  0  0
   11.8991   -2.4563   19.4666 C   0  0  0  0  0  0  0  0  0  0  0  0
    6.2367   -6.0650   15.5871 He  0  0  0  0  0  0  0  0  0  0  0  0
   10.3069   -7.4183   18.4386 He  0  0  0  0  0  0  0  0  0  0  0  0
    6.6590   -7.4690   17.3846 He  0  0  0  0  0  0  0  0  0  0  0  0
    9.3527   -3.8848   16.8542 He  0  0  0  0  0  0  0  0  0  0  0  0
    9.1653   -7.2728   17.3226 He  0  0  0  0  0  0  0  0  0  0  0  0
    5.7147   -8.6796   17.9930 He  0  0  0  0  0  0  0  0  0  0  0  0
    5.9613   -9.2760   15.1930 He  0  0  0  0  0  0  0  0  0  0  0  0
    5.7025   -7.9000   15.8197 He  0  0  0  0  0  0  0  0  0  0  0  0
   10.0083   -6.4386   20.4181 He  0  0  0  0  0  0  0  0  0  0  0  0
    6.0296   -6.4173   14.0813 He  0  0  0  0  0  0  0  0  0  0  0  0
    6.2202   -4.8176   16.7005 He  0  0  0  0  0  0  0  0  0  0  0  0
    5.8496   -7.8214   19.5365 He  0  0  0  0  0  0  0  0  0  0  0  0
    2.8619   -9.9893   14.8810 He  0  0  0  0  0  0  0  0  0  0  0  0
    2.9046   -9.7788   17.1582 He  0  0  0  0  0  0  0  0  0  0  0  0
   11.3965   -3.7203   16.2095 He  0  0  0  0  0  0  0  0  0  0  0  0
    9.8794   -4.9892   17.1417 He  0  0  0  0  0  0  0  0  0  0  0  0
  1  2  3  0
  1  3  2  0
  1  4  4  0
  1  5  4  0
  1 11  3  0
  2  5  2  0
  2  6  4  0
  2 10  3  0
  2 11  1  0
  3  4  4  0
  3  8  3  0
  4 11  2  0
  4 13  2  0
  5  7  1  0
  5 10  3  0
  5 11  4  0
  5 13  2  0
  6  7  2  0
  6  8  4  0
  6  9  4  0
  6 11  1  0
  6 12  4  0
  7  8  2  0
  7  9  2  0
  7 10  4  0
  8 10  2  0
  8 11  1  0
  8 12  2  0
  9 10  4  0
 11 12  3  0
 12 13  3  0
M  END
$$$$

 Created by Python create_sdf_string function

 29 30  0  0  0  0  0  0  0  0999 V2000
    5.7139   -8.1886   14.7451 N   0  0  0  0  0  0  0  0  0  0  0  0
    4.6193   -7.2551   15.6743 S   0  0  0  0  0  0  0  0  0  0  0  0
    8.2809   -6.1167   15.7162 C   0  0  0  0  0  0  0  0  0  0  0  0
    8.6576   -7.8557   17.5367 F   0  0  0  0  0  0  0  0  0  0  0  0
    9.5523   -4.4946   16.8097 C   0  0  0  0  0  0  0  0  0  0  0  0
    7.4543   -8.7974   17.6784 O   0  0  0  0  0  0  0  0  0  0  0  0
    5.5842   -8.6548   15.2775 C   0  0  0  0  0  0  0  0  0  0  0  0
    2.8107   -7.6326   14.6985 P   0  0  0  0  0  0  0  0  0  0  0  0
    7.0512   -2.8489   16.3187 Cl  0  0  0  0  0  0  0  0  0  0  0  0
    4.1154   -6.0569   17.1264 N   0  0  0  0  0  0  0  0  0  0  0  0
    9.1813   -5.0919   17.8965 Se  0  0  0  0  0  0  0  0  0  0  0  0
    3.2539   -6.8111   15.1612 S   0  0  0  0  0  0  0  0  0  0  0  0
   11.0276   -2.8450   20.3677 Cl  0  0  0  0  0  0  0  0  0  0  0  0
    8.5229   -9.2186   18.2167 He  0  0  0  0  0  0  0  0  0  0  0  0
    7.3871   -7.4326   15.1689 He  0  0  0  0  0  0  0  0  0  0  0  0
    9.5183   -7.2068   18.8848 He  0  0  0  0  0  0  0  0  0  0  0  0
    9.1429   -3.6968   14.4680 He  0  0  0  0  0  0  0  0  0  0  0  0
    8.6009   -7.1560   14.6550 He  0  0  0  0  0  0  0  0  0  0  0  0
    9.8148   -7.0269   17.4657 He  0  0  0  0  0  0  0  0  0  0  0  0
    5.3585   -7.5983   16.1234 He  0  0  0  0  0  0  0  0  0  0  0  0
   10.4372   -6.1602   18.7907 He  0  0  0  0  0  0  0  0  0  0  0  0
    5.9635   -6.7536   17.0943 He  0  0  0  0  0  0  0  0  0  0  0  0
    5.7020   -7.8607   16.7816 He  0  0  0  0  0  0  0  0  0  0  0  0
    4.4760   -9.7214   15.8993 He  0  0  0  0  0  0  0  0  0  0  0  0
   10.4325   -3.5473   23.0255 He  0  0  0  0  0  0  0  0  0  0  0  0
    3.4153   -9.9404   15.9511 He  0  0  0  0  0  0  0  0  0  0  0  0
   13.1189   -5.3996   16.4438 He  0  0  0  0  0  0  0  0  0  0  0  0
   10.5568   -1.2050   21.9576 He  0  0  0  0  0  0  0  0  0  0  0  0
    9.6912   -4.0830   18.2673 He  0  0  0  0  0  0  0  0  0  0  0  0
  1  3  4  0
  1  5  1  0
  1 13  3  0
  2  3  2  0
  2  4  3  0
  2  6  3  0
  2 10  1  0
  2 11  1  0
  3 10  2  0
  3 12  2  0
  4  5  3  0
  4  8  1  0
  4 10  2  0
  4 11  3  0
  4 13  4  0
  5  6  4  0
  5  9  4  0
  5 11  4  0
  6 10  2  0
  6 12  2  0
  6 13  1  0
  7  9  1  0
  8  9  2  0
  8 10  3  0
  9 11  3  0
  9 13  2  0
 10 12  1  0
 11 12  2  0
 11 13  3  0
 12 13  2  0
M  END
$$$$

 Created by Python create_sdf_string function

 29 33  0  0  0  0  0  0  0  0999 V2000
   10.5741   -8.4492   18.9367 C   0  0  0  0  0  0  0  0  0  0  0  0
   10.0932   -3.0213   14.5444 Cl  0  0  0  0  0  0  0  0  0  0  0  0
    8.5488   -7.7686   15.1882 S   0  0  0  0  0  0  0  0  0  0  0  0
    9.9221   -5.0465   17.0148 O   0  0  0  0  0  0  0  0  0  0  0  0
    9.0271   -7.4060   18.3411 S   0  0  0  0  0  0  0  0  0  0  0  0
    6.6858   -8.9382   19.1771 C   0  0  0  0  0  0  0  0  0  0  0  0
    2.6151   -7.7750   14.9961 F   0  0  0  0  0  0  0  0  0  0  0  0
    8.4515   -4.1921   16.5219 P   0  0  0  0  0  0  0  0  0  0  0  0
    6.6581   -9.7478   15.8156 C   0  0  0  0  0  0  0  0  0  0  0  0
    5.6571   -8.4287   17.4520 F   0  0  0  0  0  0  0  0  0  0  0  0
   10.0095   -5.4617   19.1868 C   0  0  0  0  0  0  0  0  0  0  0  0
    5.6102   -9.2419   15.0933 O   0  0  0  0  0  0  0  0  0  0  0  0
    9.5846   -3.7853   19.2918 N   0  0  0  0  0  0  0  0  0  0  0  0
   10.5631   -4.0043   20.5001 C   0  0  0  0  0  0  0  0  0  0  0  0
    8.2162   -6.2368   15.0965 He  0  0  0  0  0  0  0  0  0  0  0  0
    8.3559   -7.2075   17.7651 He  0  0  0  0  0  0  0  0  0  0  0  0
    4.7333   -6.8253   17.6312 He  0  0  0  0  0  0  0  0  0  0  0  0
    7.8833   -8.2359   17.4192 He  0  0  0  0  0  0  0  0  0  0  0  0
    7.3285   -6.9360   17.8778 He  0  0  0  0  0  0  0  0  0  0  0  0
    7.7887   -7.4368   17.3267 He  0  0  0  0  0  0  0  0  0  0  0  0
    6.3352   -8.6425   14.4632 He  0  0  0  0  0  0  0  0  0  0  0  0
   11.0956   -4.8054   18.6163 He  0  0  0  0  0  0  0  0  0  0  0  0
    4.5734   -8.3860   15.0303 He  0  0  0  0  0  0  0  0  0  0  0  0
    6.4100   -8.8909   17.4428 He  0  0  0  0  0  0  0  0  0  0  0  0
    4.1282   -9.3962   16.1646 He  0  0  0  0  0  0  0  0  0  0  0  0
   12.1843   -2.9921   23.2771 He  0  0  0  0  0  0  0  0  0  0  0  0
    2.9779   -8.0908   16.2287 He  0  0  0  0  0  0  0  0  0  0  0  0
   11.8803   -5.5699   17.2813 He  0  0  0  0  0  0  0  0  0  0  0  0
   10.3354   -3.4167   20.1432 He  0  0  0  0  0  0  0  0  0  0  0  0
  1  7  4  0
  1  9  4  0
  1 12  2  0
  2  5  2  0
  2  8  3  0
  2 10  1  0
  2 11  1  0
  2 14  3  0
  3  8  4  0
  3 11  3  0
  3 13  1  0
  4  5  2  0
  4  6  2  0
  4  7  2  0
  4  9  1  0
  4 12  2  0
  4 13  3  0
  5  7  3  0
  5  8  2  0
  5 10  1  0
  6 12  3  0
  6 14  2  0
  7  9  3  0
  7 12  2  0
  7 13  3  0
  7 14  4  0
  8 11  1  0
  8 13  1  0
  8 14  3  0
  9 11  3  0
 10 12  2  0
 12 13  3  0
 12 14  1  0
M  END
$$$$

 Created by Python create_sdf_string function

 29 64  0  0  0  0  0  0  0  0999 V2000
    4.4308   -7.2614   16.9419 N   0  0  0  0  0  0  0  0  0  0  0  0
    7.7570   -6.8624   17.4306 P   0  0  0  0  0  0  0  0  0  0  0  0
    8.9491   -8.5187   18.4906 N   0  0  0  0  0  0  0  0  0  0  0  0
    5.9823   -7.2076   17.0709 O   0  0  0  0  0  0  0  0  0  0  0  0
   10.7364   -5.5401   17.7565 O   0  0  0  0  0  0  0  0  0  0  0  0
    8.4556   -7.2786   20.2949 Se  0  0  0  0  0  0  0  0  0  0  0  0
    7.6663   -8.8513   17.0474 S   0  0  0  0  0  0  0  0  0  0  0  0
    4.5932   -9.9353   16.1949 N   0  0  0  0  0  0  0  0  0  0  0  0
   11.5596   -4.9969   17.0712 F   0  0  0  0  0  0  0  0  0  0  0  0
   10.0599   -5.5844   18.5078 O   0  0  0  0  0  0  0  0  0  0  0  0
    4.0828   -7.6813   14.9635 P   0  0  0  0  0  0  0  0  0  0  0  0
    6.3578   -9.1476   17.4987 C   0  0  0  0  0  0  0  0  0  0  0  0
    4.1134   -8.5674   17.9699 O   0  0  0  0  0  0  0  0  0  0  0  0
   11.4808   -4.7864   21.1194 O   0  0  0  0  0  0  0  0  0  0  0  0
    3.7627   -9.6909   16.1425 O   0  0  0  0  0  0  0  0  0  0  0  0
   12.2057   -5.8917   17.8405 P   0  0  0  0  0  0  0  0  0  0  0  0
    6.1977  -10.0325   15.0964 C   0  0  0  0  0  0  0  0  0  0  0  0
    9.4109   -4.0391   19.2522 P   0  0  0  0  0  0  0  0  0  0  0  0
    9.1783   -3.8720   21.3573 C   0  0  0  0  0  0  0  0  0  0  0  0
    7.2527   -5.9046   15.7371 He  0  0  0  0  0  0  0  0  0  0  0  0
    8.4679   -7.4530   20.1172 He  0  0  0  0  0  0  0  0  0  0  0  0
   10.8655   -3.0541   16.0653 He  0  0  0  0  0  0  0  0  0  0  0  0
    7.2771   -6.4692   15.3719 He  0  0  0  0  0  0  0  0  0  0  0  0
    6.6921   -7.5381   16.2701 He  0  0  0  0  0  0  0  0  0  0  0  0
    7.0433   -9.4435   19.5620 He  0  0  0  0  0  0  0  0  0  0  0  0
    6.2414  -10.2802   18.1329 He  0  0  0  0  0  0  0  0  0  0  0  0
    4.9466   -8.7974   18.0212 He  0  0  0  0  0  0  0  0  0  0  0  0
    8.1138   -5.6068   18.5633 He  0  0  0  0  0  0  0  0  0  0  0  0
   11.2564   -3.7241   20.7846 He  0  0  0  0  0  0  0  0  0  0  0  0
  1  6  1  0
  1  7  2  0
  1  8  4  0
  1 12  1  0
  1 14  2  0
  1 16  4  0
  2  3  3  0
  2  5  1  0
  2  6  1  0
  2 12  2  0
  2 13  2  0
  2 15  3  0
  2 17  3  0
  2 19  3  0
  3  7  4  0
  3  8  4  0
  3 13  2  0
  3 16  2  0
  3 17  3  0
  3 18  1  0
  4 10  1  0
  4 11  4  0
  4 14  2  0
  4 15  2  0
  4 17  1  0
  4 18  4  0
  5 10  1  0
  5 15  1  0
  5 16  2  0
  5 18  1  0
  5 19  1  0
  6 12  3  0
  6 14  4  0
  6 15  2  0
  6 16  3  0
  6 17  4  0
  6 18  1  0
  7 14  4  0
  7 17  2  0
  7 19  3  0
  8 15  2  0
  8 17  2  0
  8 18  1  0
  9 16  1  0
  9 17  2  0
  9 18  2  0
 10 12  2  0
 10 14  3  0
 10 17  3  0
 10 18  3  0
 10 19  2  0
 12 13  3  0
 12 15  2  0
 12 16  4  0
 12 17  3  0
 12 18  1  0
 12 19  2  0
 13 18  2  0
 14 15  3  0
 14 16  2  0
 14 17  3  0
 14 19  4  0
 15 16  3  0
 17 18  4  0
M  END
$$$$

 Created by Python create_sdf_string function

 29 46  0  0  0  0  0  0  0  0999 V2000
    6.2162   -7.8989   17.0019 C   0  0  0  0  0  0  0  0  0  0  0  0
    9.9365   -6.6020   18.5702 N   0  0  0  0  0  0  0  0  0  0  0  0
    4.5304   -6.5078   16.6552 Cl  0  0  0  0  0  0  0  0  0  0  0  0
    8.1553   -5.2150   15.2258 N   0  0  0  0  0  0  0  0  0  0  0  0
    8.1340   -8.4120   17.7953 Cl  0  0  0  0  0  0  0  0  0  0  0  0
    7.0100   -8.1924   17.6745 C   0  0  0  0  0  0  0  0  0  0  0  0
    6.9012   -7.7311   15.5579 N   0  0  0  0  0  0  0  0  0  0  0  0
   10.4527   -3.5557   18.3105 P   0  0  0  0  0  0  0  0  0  0  0  0
    7.1020   -8.6168   16.2249 F   0  0  0  0  0  0  0  0  0  0  0  0
    4.2678   -8.9845   15.6205 C   0  0  0  0  0  0  0  0  0  0  0  0
    4.4396   -8.2651   18.7953 C   0  0  0  0  0  0  0  0  0  0  0  0
    5.7766   -8.7391   17.4428 Cl  0  0  0  0  0  0  0  0  0  0  0  0
    4.0159   -8.7053   15.7592 S   0  0  0  0  0  0  0  0  0  0  0  0
    7.0206   -9.6735   15.4447 N   0  0  0  0  0  0  0  0  0  0  0  0
   10.8501   -3.2321   20.1580 B   0  0  0  0  0  0  0  0  0  0  0  0
   11.3583   -4.4538   19.3338 C   0  0  0  0  0  0  0  0  0  0  0  0
    9.1681   -4.9820   16.5567 He  0  0  0  0  0  0  0  0  0  0  0  0
    7.0814   -6.6385   15.9889 He  0  0  0  0  0  0  0  0  0  0  0  0
    8.5619   -7.1721   19.2359 He  0  0  0  0  0  0  0  0  0  0  0  0
    9.5061   -8.2136   15.7960 He  0  0  0  0  0  0  0  0  0  0  0  0
   11.3835   -3.1012   17.1207 He  0  0  0  0  0  0  0  0  0  0  0  0
    6.8351   -9.6284   17.4066 He  0  0  0  0  0  0  0  0  0  0  0  0
    9.8658   -4.0809   19.9395 He  0  0  0  0  0  0  0  0  0  0  0  0
    3.6450   -8.2860   15.3485 He  0  0  0  0  0  0  0  0  0  0  0  0
    4.1887   -8.4737   19.8994 He  0  0  0  0  0  0  0  0  0  0  0  0
   10.4800   -6.6740   22.5210 He  0  0  0  0  0  0  0  0  0  0  0  0
    6.8073   -6.2498   17.1978 He  0  0  0  0  0  0  0  0  0  0  0  0
   11.7219   -5.1610   18.6484 He  0  0  0  0  0  0  0  0  0  0  0  0
   10.4208   -4.8794   22.9484 He  0  0  0  0  0  0  0  0  0  0  0  0
  1  2  3  0
  1  5  3  0
  1  7  1  0
  1  8  3  0
  1  9  1  0
  1 11  4  0
  1 12  1  0
  1 14  4  0
  1 15  4  0
  1 16  2  0
  2  4  2  0
  2  5  3  0
  2 10  2  0
  2 12  3  0
  2 13  3  0
  3  4  2  0
  3 11  4  0
  3 16  1  0
  4  5  1  0
  4  6  3  0
  4  7  1  0
  4 15  2  0
  5  8  1  0
  5  9  1  0
  5 11  1  0
  5 13  2  0
  6  8  3  0
  6 13  4  0
  6 14  2  0
  6 16  2  0
  7  9  2  0
  7 10  4  0
  7 13  2  0
  8 13  3  0
  8 14  4  0
  9 10  1  0
  9 11  1  0
  9 16  1  0
 10 13  4  0
 10 15  3  0
 10 16  4  0
 11 13  2  0
 11 14  4  0
 13 14  1  0
 13 16  1  0
 14 15  1  0
M  END
$$$$

 Created by Python create_sdf_string function

 29 61  0  0  0  0  0  0  0  0999 V2000
    5.4074   -8.2887   15.9561 N   0  0  0  0  0  0  0  0  0  0  0  0
    7.7646   -7.0827   17.6576 F   0  0  0  0  0  0  0  0  0  0  0  0
    9.8313   -4.4503   16.1048 C   0  0  0  0  0  0  0  0  0  0  0  0
    7.8015   -7.5772   16.3529 F   0  0  0  0  0  0  0  0  0  0  0  0
    7.7854   -5.6908   16.0227 C   0  0  0  0  0  0  0  0  0  0  0  0
    8.3269   -5.8425   15.1112 C   0  0  0  0  0  0  0  0  0  0  0  0
    6.0246   -9.7671   17.3465 C   0  0  0  0  0  0  0  0  0  0  0  0
   10.0306   -9.7832   16.5657 N   0  0  0  0  0  0  0  0  0  0  0  0
    3.8788   -9.7822   14.5995 O   0  0  0  0  0  0  0  0  0  0  0  0
   10.5341   -3.2085   18.0175 F   0  0  0  0  0  0  0  0  0  0  0  0
    8.9978   -9.9662   15.7588 Br  0  0  0  0  0  0  0  0  0  0  0  0
   10.5674   -3.2903   19.9878 S   0  0  0  0  0  0  0  0  0  0  0  0
    3.9843   -9.1165   18.1720 O   0  0  0  0  0  0  0  0  0  0  0  0
    4.6335   -8.8919   16.1914 F   0  0  0  0  0  0  0  0  0  0  0  0
    7.8553   -9.4583   19.1316 O   0  0  0  0  0  0  0  0  0  0  0  0
    6.5220   -8.8511   17.0866 C   0  0  0  0  0  0  0  0  0  0  0  0
    7.7962  -10.2512   15.4115 C   0  0  0  0  0  0  0  0  0  0  0  0
   11.3305   -3.7176   21.4898 F   0  0  0  0  0  0  0  0  0  0  0  0
   10.7872   -4.6550   18.4710 F   0  0  0  0  0  0  0  0  0  0  0  0
    9.5408   -5.8663   18.3994 He  0  0  0  0  0  0  0  0  0  0  0  0
    4.3714   -7.9150   15.2865 He  0  0  0  0  0  0  0  0  0  0  0  0
    9.0167   -5.1293   15.0803 He  0  0  0  0  0  0  0  0  0  0  0  0
    9.7812   -4.8307   18.3022 He  0  0  0  0  0  0  0  0  0  0  0  0
    8.6008   -7.1788   17.9925 He  0  0  0  0  0  0  0  0  0  0  0  0
    2.7234   -8.4177   18.7657 He  0  0  0  0  0  0  0  0  0  0  0  0
   10.7095   -3.5809   22.1177 He  0  0  0  0  0  0  0  0  0  0  0  0
    1.2200   -9.8882   16.4914 He  0  0  0  0  0  0  0  0  0  0  0  0
   11.1582   -5.4011   19.3525 He  0  0  0  0  0  0  0  0  0  0  0  0
   12.3077   -5.1457   23.8533 He  0  0  0  0  0  0  0  0  0  0  0  0
  1  6  2  0
  1 14  2  0
  1 15  2  0
  1 17  1  0
  1 18  2  0
  2  4  3  0
  2  5  4  0
  2  9  4  0
  2 12  1  0
  2 13  3  0
  2 14  2  0
  2 15  3  0
  2 19  2  0
  3  6  3  0
  3 13  4  0
  3 14  3  0
  3 17  2  0
  3 18  3  0
  3 19  4  0
  4  6  3  0
  4  7  1  0
  4  9  3  0
  4 11  3  0
  4 17  4  0
  4 19  4  0
  5  7  4  0
  5  8  3  0
  5 10  4  0
  5 11  2  0
  5 15  2  0
  5 16  1  0
  5 18  2  0
  6  8  1  0
  6 11  1  0
  6 12  4  0
  6 14  3  0
  6 19  2  0
  7  9  2  0
  8 11  1  0
  8 12  3  0
  8 16  2  0
  8 18  2  0
  9 10  4  0
  9 17  1  0
 10 14  1  0
 10 19  3  0
 11 14  1  0
 11 15  1  0
 11 16  2  0
 11 17  4  0
 11 18  4  0
 11 19  4  0
 12 18  4  0
 12 19  1  0
 13 17  2  0
 13 18  4  0
 14 18  1  0
 14 19  1  0
 15 17  2  0
 15 18  3  0
 17 19  2  0
M  END
$$$$

 Created by Python create_sdf_string function

 29 26  0  0  0  0  0  0  0  0999 V2000
    4.9047   -6.3952   14.7410 C   0  0  0  0  0  0  0  0  0  0  0  0
   10.6435   -5.8823   17.6795 C   0  0  0  0  0  0  0  0  0  0  0  0
   10.9271   -3.3855   16.4740 N   0  0  0  0  0  0  0  0  0  0  0  0
    7.1252   -6.5048   15.9671 Cl  0  0  0  0  0  0  0  0  0  0  0  0
   10.8470   -4.4182   18.7023 O   0  0  0  0  0  0  0  0  0  0  0  0
    8.1406   -5.1675   17.0772 O   0  0  0  0  0  0  0  0  0  0  0  0
    6.3914   -8.4358   17.5419 O   0  0  0  0  0  0  0  0  0  0  0  0
    9.9147   -7.0731   17.0140 F   0  0  0  0  0  0  0  0  0  0  0  0
    4.0388   -8.4443   15.1409 F   0  0  0  0  0  0  0  0  0  0  0  0
    2.2394  -11.0002   16.3950 P   0  0  0  0  0  0  0  0  0  0  0  0
    7.8200   -6.4213   17.9839 N   0  0  0  0  0  0  0  0  0  0  0  0
    1.2989  -10.6784   16.1652 C   0  0  0  0  0  0  0  0  0  0  0  0
   12.8411   -5.0416   22.5173 B   0  0  0  0  0  0  0  0  0  0  0  0
   10.1772   -4.1321   19.5095 N   0  0  0  0  0  0  0  0  0  0  0  0
    2.1245   -8.0675   15.5348 He  0  0  0  0  0  0  0  0  0  0  0  0
    9.3856   -4.9196   16.1735 He  0  0  0  0  0  0  0  0  0  0  0  0
    8.2128   -7.5431   18.0033 He  0  0  0  0  0  0  0  0  0  0  0  0
    7.6739   -6.4483   14.4391 He  0  0  0  0  0  0  0  0  0  0  0  0
    8.2290   -5.4191   16.5584 He  0  0  0  0  0  0  0  0  0  0  0  0
    9.9715   -2.7832   20.0082 He  0  0  0  0  0  0  0  0  0  0  0  0
    7.9549   -8.6767   16.4819 He  0  0  0  0  0  0  0  0  0  0  0  0
   11.4287   -2.3630   21.5834 He  0  0  0  0  0  0  0  0  0  0  0  0
    3.0992   -9.6918   16.7766 He  0  0  0  0  0  0  0  0  0  0  0  0
    4.4603   -8.1873   16.4085 He  0  0  0  0  0  0  0  0  0  0  0  0
   11.2524   -3.5372   22.4566 He  0  0  0  0  0  0  0  0  0  0  0  0
    6.5609   -7.8378   19.1765 He  0  0  0  0  0  0  0  0  0  0  0  0
   11.7646   -5.5122   18.4744 He  0  0  0  0  0  0  0  0  0  0  0  0
    9.4158   -8.3129   14.7759 He  0  0  0  0  0  0  0  0  0  0  0  0
   11.9911   -4.1859   23.4979 He  0  0  0  0  0  0  0  0  0  0  0  0
  1 10  1  0
  1 12  2  0
  2  5  2  0
  2  6  2  0
  2 11  1  0
  2 14  4  0
  3  6  3  0
  4  6  4  0
  4 10  2  0
  4 14  2  0
  5  6  4  0
  5  7  1  0
  5  9  4  0
  5 13  1  0
  5 14  1  0
  6 10  4  0
  6 13  4  0
  6 14  4  0
  7 11  2  0
  8 10  4  0
  8 14  1  0
  9 10  3  0
 10 11  4  0
 10 14  1  0
 12 13  4  0
 12 14  2  0
M  END
$$$$

 Created by Python create_sdf_string function

 29 42  0  0  0  0  0  0  0  0999 V2000
    7.3534   -6.1042   15.7489 P   0  0  0  0  0  0  0  0  0  0  0  0
    2.5400   -8.7835   16.3323 I   0  0  0  0  0  0  0  0  0  0  0  0
    7.9635   -9.0595   17.1913 C   0  0  0  0  0  0  0  0  0  0  0  0
   10.9811   -4.4843   17.2408 C   0  0  0  0  0  0  0  0  0  0  0  0
    8.2019   -5.8441   15.1538 N   0  0  0  0  0  0  0  0  0  0  0  0
   12.3118   -6.6863   18.6686 F   0  0  0  0  0  0  0  0  0  0  0  0
    7.0551   -7.7272   17.6699 N   0  0  0  0  0  0  0  0  0  0  0  0
   10.3594   -4.0593   20.5012 P   0  0  0  0  0  0  0  0  0  0  0  0
    8.2933   -6.9268   17.3858 F   0  0  0  0  0  0  0  0  0  0  0  0
    1.8044   -8.4786   16.9744 S   0  0  0  0  0  0  0  0  0  0  0  0
   10.9110   -3.9230   20.9976 N   0  0  0  0  0  0  0  0  0  0  0  0
    2.5117   -7.7306   16.1191 O   0  0  0  0  0  0  0  0  0  0  0  0
    6.8240   -7.4347   17.3655 C   0  0  0  0  0  0  0  0  0  0  0  0
   10.0776   -6.5011   19.8814 C   0  0  0  0  0  0  0  0  0  0  0  0
   11.7177   -6.6377   21.1912 N   0  0  0  0  0  0  0  0  0  0  0  0
    9.7136   -5.3284   20.4676 Cl  0  0  0  0  0  0  0  0  0  0  0  0
    9.8568   -4.6287   19.4770 He  0  0  0  0  0  0  0  0  0  0  0  0
   10.5052   -3.9286   17.2080 He  0  0  0  0  0  0  0  0  0  0  0  0
    7.8405   -7.1703   15.8186 He  0  0  0  0  0  0  0  0  0  0  0  0
    7.0094   -5.1841   13.3635 He  0  0  0  0  0  0  0  0  0  0  0  0
    8.3398   -4.6446   15.9461 He  0  0  0  0  0  0  0  0  0  0  0  0
   12.1798   -7.9122   16.8238 He  0  0  0  0  0  0  0  0  0  0  0  0
    2.0222   -7.2201   16.5004 He  0  0  0  0  0  0  0  0  0  0  0  0
   12.5801   -3.2087   20.9519 He  0  0  0  0  0  0  0  0  0  0  0  0
    4.5327   -9.3256   16.0139 He  0  0  0  0  0  0  0  0  0  0  0  0
    2.1154   -8.1326   15.7404 He  0  0  0  0  0  0  0  0  0  0  0  0
    7.5390   -6.6403   16.4399 He  0  0  0  0  0  0  0  0  0  0  0  0
    7.0250   -6.7155   15.3236 He  0  0  0  0  0  0  0  0  0  0  0  0
   11.5679   -1.6725   22.2983 He  0  0  0  0  0  0  0  0  0  0  0  0
  1  2  2  0
  1  3  3  0
  1  4  2  0
  1  7  3  0
  1 11  1  0
  1 16  4  0
  2  5  1  0
  2  6  3  0
  2  7  1  0
  2 12  1  0
  2 14  1  0
  2 15  4  0
  3  4  1  0
  3  9  3  0
  3 12  3  0
  3 14  3  0
  3 15  1  0
  4  5  1  0
  4  6  2  0
  4 10  2  0
  4 12  1  0
  4 13  1  0
  4 15  2  0
  5  9  3  0
  6  7  4  0
  6 10  1  0
  6 14  3  0
  6 16  2  0
  7  8  1  0
  7 14  1  0
  8  9  1  0
  8 10  4  0
  8 14  4  0
  9 11  1  0
  9 12  1  0
 10 12  3  0
 10 16  1  0
 12 15  4  0
 12 16  4  0
 13 15  4  0
 14 16  4  0
 15 16  2  0
M  END
$$$$

 Created by Python create_sdf_string function

 29 32  0  0  0  0  0  0  0  0999 V2000
    7.0213   -4.1555   17.0337 Se  0  0  0  0  0  0  0  0  0  0  0  0
    7.5378   -5.5738   17.8172 O   0  0  0  0  0  0  0  0  0  0  0  0
    8.9191   -4.2504   15.9787 O   0  0  0  0  0  0  0  0  0  0  0  0
    9.5634   -4.5481   15.9556 Cl  0  0  0  0  0  0  0  0  0  0  0  0
    6.6614   -7.2428   17.2298 N   0  0  0  0  0  0  0  0  0  0  0  0
    9.9144   -8.1608   17.3229 B   0  0  0  0  0  0  0  0  0  0  0  0
    8.2921   -8.6934   18.8218 C   0  0  0  0  0  0  0  0  0  0  0  0
    4.1869   -7.6034   15.3073 C   0  0  0  0  0  0  0  0  0  0  0  0
   10.9145   -4.0887   23.1483 S   0  0  0  0  0  0  0  0  0  0  0  0
    7.1221   -7.9477   16.0173 P   0  0  0  0  0  0  0  0  0  0  0  0
   10.3610   -6.4411   20.0106 C   0  0  0  0  0  0  0  0  0  0  0  0
   10.8065   -4.8075   20.8100 C   0  0  0  0  0  0  0  0  0  0  0  0
   10.1312   -5.5759   20.3477 I   0  0  0  0  0  0  0  0  0  0  0  0
   11.6321   -2.2935   21.5135 O   0  0  0  0  0  0  0  0  0  0  0  0
   11.1499   -5.6954   21.4593 He  0  0  0  0  0  0  0  0  0  0  0  0
    3.4636   -7.7430   16.3637 He  0  0  0  0  0  0  0  0  0  0  0  0
   12.1375   -3.3660   17.1078 He  0  0  0  0  0  0  0  0  0  0  0  0
    7.1680   -8.0589   17.9800 He  0  0  0  0  0  0  0  0  0  0  0  0
   11.3366   -4.0110   19.3197 He  0  0  0  0  0  0  0  0  0  0  0  0
    6.5619   -5.4656   13.9085 He  0  0  0  0  0  0  0  0  0  0  0  0
   11.1674   -5.5685   18.7204 He  0  0  0  0  0  0  0  0  0  0  0  0
    2.6037   -8.1744   16.7228 He  0  0  0  0  0  0  0  0  0  0  0  0
   10.2815   -4.2994   19.6875 He  0  0  0  0  0  0  0  0  0  0  0  0
   12.6720   -3.1191   22.3809 He  0  0  0  0  0  0  0  0  0  0  0  0
    3.0497   -7.8343   17.8464 He  0  0  0  0  0  0  0  0  0  0  0  0
    2.8729   -7.6342   16.1372 He  0  0  0  0  0  0  0  0  0  0  0  0
    9.2407   -6.3745   18.3440 He  0  0  0  0  0  0  0  0  0  0  0  0
    2.4166   -7.9188   18.2154 He  0  0  0  0  0  0  0  0  0  0  0  0
    6.4788   -8.0116   15.8037 He  0  0  0  0  0  0  0  0  0  0  0  0
  1 13  1  0
  2  5  1  0
  2  7  2  0
  2  9  4  0
  2 11  2  0
  3  4  1  0
  3  5  2  0
  3  6  3  0
  3  9  3  0
  3 10  1  0
  3 12  1  0
  3 13  4  0
  4  5  2  0
  4  6  1  0
  5  6  2  0
  5  8  3  0
  5  9  3  0
  5 11  2  0
  5 14  2  0
  6 10  2  0
  6 13  1  0
  6 14  2  0
  7 11  2  0
  8 10  2  0
  9 10  1  0
  9 11  1  0
  9 14  3  0
 10 11  3  0
 10 14  1  0
 11 12  3  0
 12 13  3  0
 12 14  1  0
M  END
$$$$

 Created by Python create_sdf_string function

 29  9  0  0  0  0  0  0  0  0999 V2000
   10.1127   -2.7223   17.7307 C   0  0  0  0  0  0  0  0  0  0  0  0
    9.4873   -3.9479   16.0481 Cl  0  0  0  0  0  0  0  0  0  0  0  0
    9.6724   -8.0079   16.9934 Cl  0  0  0  0  0  0  0  0  0  0  0  0
   10.1467   -4.9696   19.2008 C   0  0  0  0  0  0  0  0  0  0  0  0
   13.4468   -1.6580   21.5993 N   0  0  0  0  0  0  0  0  0  0  0  0
    6.3490   -9.2339   15.3747 C   0  0  0  0  0  0  0  0  0  0  0  0
   13.3175   -4.6017   22.0535 I   0  0  0  0  0  0  0  0  0  0  0  0
   10.5929   -1.9638   21.6022 P   0  0  0  0  0  0  0  0  0  0  0  0
    8.6931   -6.7601   16.3488 He  0  0  0  0  0  0  0  0  0  0  0  0
   11.5558   -4.9817   21.5480 He  0  0  0  0  0  0  0  0  0  0  0  0
    4.0173   -6.5052   16.2352 He  0  0  0  0  0  0  0  0  0  0  0  0
   10.3282   -5.1005   16.9192 He  0  0  0  0  0  0  0  0  0  0  0  0
    8.1222   -8.2312   19.2820 He  0  0  0  0  0  0  0  0  0  0  0  0
   10.0355   -6.2594   18.3626 He  0  0  0  0  0  0  0  0  0  0  0  0
    7.8614   -6.0740   14.3142 He  0  0  0  0  0  0  0  0  0  0  0  0
    9.8272   -5.6796   17.1321 He  0  0  0  0  0  0  0  0  0  0  0  0
   10.4295   -4.8232   17.7496 He  0  0  0  0  0  0  0  0  0  0  0  0
    7.1423   -6.8271   18.5229 He  0  0  0  0  0  0  0  0  0  0  0  0
    3.9267   -9.2749   15.6545 He  0  0  0  0  0  0  0  0  0  0  0  0
    6.5107   -7.1718   17.2126 He  0  0  0  0  0  0  0  0  0  0  0  0
    3.0046   -6.5911   17.1479 He  0  0  0  0  0  0  0  0  0  0  0  0
    4.6930   -7.5189   14.2892 He  0  0  0  0  0  0  0  0  0  0  0  0
    2.6684   -7.8220   15.9172 He  0  0  0  0  0  0  0  0  0  0  0  0
    7.6824   -3.4929   20.2645 He  0  0  0  0  0  0  0  0  0  0  0  0
   12.6698   -4.1762   20.7160 He  0  0  0  0  0  0  0  0  0  0  0  0
    2.4409   -8.6710   17.5873 He  0  0  0  0  0  0  0  0  0  0  0  0
    9.3224   -6.7957   18.6015 He  0  0  0  0  0  0  0  0  0  0  0  0
    5.9410   -9.1026   15.2769 He  0  0  0  0  0  0  0  0  0  0  0  0
    8.9863   -4.9943   19.9403 He  0  0  0  0  0  0  0  0  0  0  0  0
  1  3  3  0
  1  4  2  0
  1  7  1  0
  2  8  4  0
  3  6  1  0
  3  7  4  0
  4  8  4  0
  5  6  2  0
  5  8  3  0
M  END
$$$$

 Created by Python create_sdf_string function

 29 33  0  0  0  0  0  0  0  0999 V2000
    9.4772   -4.4442   15.4355 C   0  0  0  0  0  0  0  0  0  0  0  0
   11.9522   -4.1135   22.4503 Cl  0  0  0  0  0  0  0  0  0  0  0  0
   10.1929   -2.7604   17.9531 Cl  0  0  0  0  0  0  0  0  0  0  0  0
    9.5824   -7.3912   18.5615 F   0  0  0  0  0  0  0  0  0  0  0  0
   10.9981   -5.7447   16.7065 N   0  0  0  0  0  0  0  0  0  0  0  0
   10.4926   -7.0711   16.7046 F   0  0  0  0  0  0  0  0  0  0  0  0
   10.4278   -5.1232   16.9276 C   0  0  0  0  0  0  0  0  0  0  0  0
    9.2216   -7.0474   17.1039 O   0  0  0  0  0  0  0  0  0  0  0  0
   12.1230   -2.6988   21.1869 I   0  0  0  0  0  0  0  0  0  0  0  0
    2.8389   -7.8203   14.9308 P   0  0  0  0  0  0  0  0  0  0  0  0
    9.8589   -4.7712   19.2308 C   0  0  0  0  0  0  0  0  0  0  0  0
    2.6467   -8.9117   16.2736 P   0  0  0  0  0  0  0  0  0  0  0  0
   11.3771   -3.8055   21.5498 C   0  0  0  0  0  0  0  0  0  0  0  0
   10.7191   -2.4606   21.9091 O   0  0  0  0  0  0  0  0  0  0  0  0
    3.6790   -8.1521   16.6608 He  0  0  0  0  0  0  0  0  0  0  0  0
    7.4263   -6.6546   14.8554 He  0  0  0  0  0  0  0  0  0  0  0  0
    9.7734   -5.5693   15.8915 He  0  0  0  0  0  0  0  0  0  0  0  0
   10.2735   -6.6261   17.9580 He  0  0  0  0  0  0  0  0  0  0  0  0
    6.9676   -6.7473   17.7862 He  0  0  0  0  0  0  0  0  0  0  0  0
    5.1163   -8.2644   15.9987 He  0  0  0  0  0  0  0  0  0  0  0  0
   10.3636   -4.6678   20.2997 He  0  0  0  0  0  0  0  0  0  0  0  0
    6.0476   -7.5272   16.2485 He  0  0  0  0  0  0  0  0  0  0  0  0
    4.3132   -7.8114   17.6703 He  0  0  0  0  0  0  0  0  0  0  0  0
    4.8760   -9.4415   15.1153 He  0  0  0  0  0  0  0  0  0  0  0  0
   12.8439   -4.5472   22.6451 He  0  0  0  0  0  0  0  0  0  0  0  0
    6.5700   -8.2925   14.4973 He  0  0  0  0  0  0  0  0  0  0  0  0
    8.6174   -6.8995   18.7211 He  0  0  0  0  0  0  0  0  0  0  0  0
    7.9363   -9.4084   15.5784 He  0  0  0  0  0  0  0  0  0  0  0  0
   10.4801   -4.7114   21.4281 He  0  0  0  0  0  0  0  0  0  0  0  0
  1  3  2  0
  1  4  4  0
  1  5  1  0
  1  8  4  0
  1 13  3  0
  1 14  2  0
  2  4  1  0
  2  6  3  0
  2  7  3  0
  2 11  1  0
  2 13  2  0
  3  8  4  0
  3 12  2  0
  3 13  3  0
  4  5  1  0
  4  7  3  0
  4 14  1  0
  6  7  2  0
  6  9  1  0
  6 13  4  0
  6 14  2  0
  7  8  4  0
  7 10  3  0
  7 11  1  0
  7 13  1  0
  8  9  2  0
  8 11  1  0
  9 11  2  0
  9 12  4  0
 10 11  2  0
 10 14  3  0
 12 13  2  0
 12 14  4  0
M  END
$$$$

 Created by Python create_sdf_string function

 29 21  0  0  0  0  0  0  0  0999 V2000
    9.5815   -3.3576   14.9676 F   0  0  0  0  0  0  0  0  0  0  0  0
    9.8653   -6.2433   17.6222 I   0  0  0  0  0  0  0  0  0  0  0  0
   10.0575   -5.1036   16.8843 C   0  0  0  0  0  0  0  0  0  0  0  0
    9.1913   -6.7772   14.9705 S   0  0  0  0  0  0  0  0  0  0  0  0
   10.7797   -4.3157   18.3293 O   0  0  0  0  0  0  0  0  0  0  0  0
    7.0295   -6.5087   19.0343 O   0  0  0  0  0  0  0  0  0  0  0  0
    5.8551   -6.9707   14.7746 S   0  0  0  0  0  0  0  0  0  0  0  0
    4.3530   -6.1547   16.7491 C   0  0  0  0  0  0  0  0  0  0  0  0
    5.9624   -8.4576   14.8322 O   0  0  0  0  0  0  0  0  0  0  0  0
    3.2176   -9.2531   16.8548 C   0  0  0  0  0  0  0  0  0  0  0  0
   10.8068   -6.0867   19.1802 F   0  0  0  0  0  0  0  0  0  0  0  0
   11.0668   -4.5267   20.9814 F   0  0  0  0  0  0  0  0  0  0  0  0
   11.4015   -4.4580   22.8869 He  0  0  0  0  0  0  0  0  0  0  0  0
    4.0947   -8.6696   17.9584 He  0  0  0  0  0  0  0  0  0  0  0  0
   10.0691   -4.3679   17.6296 He  0  0  0  0  0  0  0  0  0  0  0  0
    8.8749   -4.9145   19.1246 He  0  0  0  0  0  0  0  0  0  0  0  0
    9.3834   -5.1407   16.3887 He  0  0  0  0  0  0  0  0  0  0  0  0
    9.8475   -6.7988   19.5554 He  0  0  0  0  0  0  0  0  0  0  0  0
    9.0916   -5.8208   17.0457 He  0  0  0  0  0  0  0  0  0  0  0  0
    3.8211   -9.5477   16.8213 He  0  0  0  0  0  0  0  0  0  0  0  0
   11.2843   -4.3739   20.4117 He  0  0  0  0  0  0  0  0  0  0  0  0
   11.5031   -4.3903   20.4625 He  0  0  0  0  0  0  0  0  0  0  0  0
   12.4605   -5.8568   23.7487 He  0  0  0  0  0  0  0  0  0  0  0  0
    3.2330   -7.8467   15.1503 He  0  0  0  0  0  0  0  0  0  0  0  0
    6.6494   -7.0989   14.2303 He  0  0  0  0  0  0  0  0  0  0  0  0
    7.8228   -7.2371   19.4314 He  0  0  0  0  0  0  0  0  0  0  0  0
    7.1183   -8.5076   15.6885 He  0  0  0  0  0  0  0  0  0  0  0  0
   11.6230   -1.5758   21.1234 He  0  0  0  0  0  0  0  0  0  0  0  0
   11.0608   -2.7557   21.1931 He  0  0  0  0  0  0  0  0  0  0  0  0
  1  2  1  0
  1  4  2  0
  1  6  4  0
  2  3  1  0
  2  5  1  0
  2  9  4  0
  3  4  1  0
  3  6  3  0
  4  5  4  0
  4  8  1  0
  4  9  1  0
  4 12  1  0
  5  7  4  0
  5  9  1  0
  5 12  4  0
  6 10  1  0
  7  9  3  0
  7 10  3  0
  7 11  2  0
  8 11  2  0
 10 11  4  0
M  END
$$$$

 Created by Python create_sdf_string function

 29 46  0  0  0  0  0  0  0  0999 V2000
   11.6528   -4.6643   23.5618 O   0  0  0  0  0  0  0  0  0  0  0  0
    9.9644   -7.9974   17.9797 Cl  0  0  0  0  0  0  0  0  0  0  0  0
    9.0406   -5.2297   20.3339 N   0  0  0  0  0  0  0  0  0  0  0  0
    9.6672   -6.5632   17.7176 C   0  0  0  0  0  0  0  0  0  0  0  0
   11.0110   -4.5541   17.0842 C   0  0  0  0  0  0  0  0  0  0  0  0
    9.1369   -4.1116   16.5653 O   0  0  0  0  0  0  0  0  0  0  0  0
   11.1221   -7.5904   19.2819 N   0  0  0  0  0  0  0  0  0  0  0  0
    7.2712   -7.3079   18.5881 N   0  0  0  0  0  0  0  0  0  0  0  0
    9.4407   -5.2939   17.2873 F   0  0  0  0  0  0  0  0  0  0  0  0
    6.3140   -7.8852   15.4444 C   0  0  0  0  0  0  0  0  0  0  0  0
   11.0253   -4.8446   20.9556 O   0  0  0  0  0  0  0  0  0  0  0  0
    5.9744   -8.5771   15.6082 P   0  0  0  0  0  0  0  0  0  0  0  0
    2.8669   -9.4144   16.8086 N   0  0  0  0  0  0  0  0  0  0  0  0
    4.0239   -7.9188   16.3901 C   0  0  0  0  0  0  0  0  0  0  0  0
    8.3550   -6.1998   15.4615 N   0  0  0  0  0  0  0  0  0  0  0  0
   10.6378   -5.0474   21.1385 O   0  0  0  0  0  0  0  0  0  0  0  0
   10.1935   -3.8437   21.1567 Cl  0  0  0  0  0  0  0  0  0  0  0  0
    9.0906   -2.9471   15.0531 He  0  0  0  0  0  0  0  0  0  0  0  0
    4.0895   -8.2230   17.4895 He  0  0  0  0  0  0  0  0  0  0  0  0
    9.5473   -3.7683   16.5698 He  0  0  0  0  0  0  0  0  0  0  0  0
    8.6119   -8.1452   15.2451 He  0  0  0  0  0  0  0  0  0  0  0  0
    2.9766   -8.9967   16.5491 He  0  0  0  0  0  0  0  0  0  0  0  0
   11.5442   -2.7588   22.5394 He  0  0  0  0  0  0  0  0  0  0  0  0
    2.4200   -6.7582   16.3463 He  0  0  0  0  0  0  0  0  0  0  0  0
   10.5816   -3.8679   19.5246 He  0  0  0  0  0  0  0  0  0  0  0  0
   12.3157   -4.2992   24.1881 He  0  0  0  0  0  0  0  0  0  0  0  0
    5.5990   -7.3658   16.1852 He  0  0  0  0  0  0  0  0  0  0  0  0
    7.7753   -7.6985   18.4566 He  0  0  0  0  0  0  0  0  0  0  0  0
   10.3885   -3.0538   20.4396 He  0  0  0  0  0  0  0  0  0  0  0  0
  1  7  3  0
  1 12  2  0
  1 13  3  0
  1 14  2  0
  1 16  1  0
  2  4  3  0
  2  6  1  0
  2 10  4  0
  2 13  1  0
  3 10  2  0
  3 12  4  0
  3 14  2  0
  4  5  4  0
  4  7  3  0
  4 10  3  0
  4 13  2  0
  5  6  2  0
  5 10  2  0
  5 12  3  0
  5 13  3  0
  5 17  1  0
  6  7  3  0
  6  8  1  0
  6  9  3  0
  6 10  4  0
  6 16  2  0
  7 10  1  0
  7 11  2  0
  7 12  1  0
  7 13  2  0
  7 14  3  0
  7 15  1  0
  8 10  1  0
  8 12  4  0
  9 11  3  0
  9 15  2  0
  9 17  3  0
 10 14  4  0
 10 17  2  0
 11 13  1  0
 12 15  2  0
 12 17  1  0
 13 14  1  0
 13 15  2  0
 14 16  3  0
 16 17  2  0
M  END
$$$$

 Created by Python create_sdf_string function

 29 74  0  0  0  0  0  0  0  0999 V2000
   10.2743   -4.3251   15.0714 C   0  0  0  0  0  0  0  0  0  0  0  0
   10.1668   -5.3926   22.8334 N   0  0  0  0  0  0  0  0  0  0  0  0
    9.9743   -3.6610   16.1668 N   0  0  0  0  0  0  0  0  0  0  0  0
   10.2804   -5.5506   20.4859 C   0  0  0  0  0  0  0  0  0  0  0  0
    9.1455   -5.5972   19.2478 O   0  0  0  0  0  0  0  0  0  0  0  0
    8.9747   -8.7350   15.7850 Cl  0  0  0  0  0  0  0  0  0  0  0  0
   11.5118   -7.9112   21.0428 N   0  0  0  0  0  0  0  0  0  0  0  0
    7.0554   -6.8559   19.0572 C   0  0  0  0  0  0  0  0  0  0  0  0
   10.2017   -6.7997   17.0621 C   0  0  0  0  0  0  0  0  0  0  0  0
    2.7301   -7.2553   15.9979 O   0  0  0  0  0  0  0  0  0  0  0  0
   10.9412   -2.6265   23.9653 O   0  0  0  0  0  0  0  0  0  0  0  0
    1.2911   -6.9728   16.7915 C   0  0  0  0  0  0  0  0  0  0  0  0
    4.6500   -9.0893   14.4287 C   0  0  0  0  0  0  0  0  0  0  0  0
    2.8771   -7.6097   16.2553 O   0  0  0  0  0  0  0  0  0  0  0  0
    9.4757   -4.6048   20.6994 C   0  0  0  0  0  0  0  0  0  0  0  0
   11.3186   -4.0853   22.5635 F   0  0  0  0  0  0  0  0  0  0  0  0
    8.1763   -7.5578   18.2736 O   0  0  0  0  0  0  0  0  0  0  0  0
   10.1105   -6.4174   16.3030 C   0  0  0  0  0  0  0  0  0  0  0  0
   10.7636   -4.9490   21.5756 F   0  0  0  0  0  0  0  0  0  0  0  0
   10.9058   -2.7718   21.4625 O   0  0  0  0  0  0  0  0  0  0  0  0
   11.2715   -1.0164   19.5207 C   0  0  0  0  0  0  0  0  0  0  0  0
    3.7963   -8.8277   17.9560 He  0  0  0  0  0  0  0  0  0  0  0  0
    7.6832   -7.2985   18.5000 He  0  0  0  0  0  0  0  0  0  0  0  0
    9.7619   -4.6789   15.8779 He  0  0  0  0  0  0  0  0  0  0  0  0
   10.6522   -4.5896   16.9034 He  0  0  0  0  0  0  0  0  0  0  0  0
    6.0104   -6.3184   14.7421 He  0  0  0  0  0  0  0  0  0  0  0  0
    9.7497   -4.7636   21.1616 He  0  0  0  0  0  0  0  0  0  0  0  0
    4.2875   -8.2008   15.5560 He  0  0  0  0  0  0  0  0  0  0  0  0
    6.0209   -8.3393   16.2877 He  0  0  0  0  0  0  0  0  0  0  0  0
  1  2  2  0
  1  3  4  0
  1  4  2  0
  1 16  3  0
  1 17  1  0
  2  3  4  0
  2  5  1  0
  2  7  4  0
  2  9  1  0
  2 11  1  0
  2 13  2  0
  3  4  2  0
  3 12  1  0
  3 16  4  0
  3 17  3  0
  4  5  4  0
  4  9  3  0
  4 12  2  0
  4 15  1  0
  5  7  3  0
  5 10  3  0
  5 17  3  0
  5 18  1  0
  5 21  1  0
  6  8  2  0
  6 12  4  0
  6 13  4  0
  6 14  1  0
  6 17  4  0
  6 20  2  0
  7 15  4  0
  7 18  1  0
  7 20  1  0
  7 21  2  0
  8  9  1  0
  8 11  3  0
  8 13  2  0
  8 14  1  0
  8 15  4  0
  8 16  3  0
  8 18  2  0
  8 19  1  0
  9 11  4  0
  9 12  1  0
  9 16  4  0
  9 18  3  0
  9 19  1  0
  9 21  1  0
 10 12  3  0
 10 13  3  0
 10 16  3  0
 10 18  2  0
 11 12  4  0
 11 14  1  0
 11 16  3  0
 11 18  1  0
 11 19  1  0
 11 21  1  0
 12 14  4  0
 12 17  4  0
 12 18  1  0
 12 20  2  0
 13 19  2  0
 14 15  3  0
 14 16  4  0
 14 19  3  0
 15 16  4  0
 16 20  4  0
 16 21  1  0
 17 18  1  0
 17 21  4  0
 18 21  3  0
 19 21  1  0
 20 21  4  0
M  END
$$$$

 Created by Python create_sdf_string function

 29 56  0  0  0  0  0  0  0  0999 V2000
    3.0036   -6.9018   16.8539 C   0  0  0  0  0  0  0  0  0  0  0  0
   10.1670   -4.2511   16.4214 N   0  0  0  0  0  0  0  0  0  0  0  0
    6.2116   -7.7883   17.2230 C   0  0  0  0  0  0  0  0  0  0  0  0
    9.7353   -4.3468   20.9720 P   0  0  0  0  0  0  0  0  0  0  0  0
    8.1381   -3.8391   18.0840 N   0  0  0  0  0  0  0  0  0  0  0  0
   10.2935   -6.4786   20.2299 C   0  0  0  0  0  0  0  0  0  0  0  0
    9.9129   -5.8324   18.1688 F   0  0  0  0  0  0  0  0  0  0  0  0
    7.4642   -7.4628   14.7367 N   0  0  0  0  0  0  0  0  0  0  0  0
    1.9097  -10.4626   17.6016 C   0  0  0  0  0  0  0  0  0  0  0  0
   12.2661   -4.6261   20.2850 O   0  0  0  0  0  0  0  0  0  0  0  0
   10.4698   -5.4715   22.4095 O   0  0  0  0  0  0  0  0  0  0  0  0
    3.3832   -7.7344   16.3348 C   0  0  0  0  0  0  0  0  0  0  0  0
    5.9948   -9.8314   16.5479 C   0  0  0  0  0  0  0  0  0  0  0  0
    6.9946   -8.0029   16.1168 F   0  0  0  0  0  0  0  0  0  0  0  0
    8.9065   -6.9474   17.7753 C   0  0  0  0  0  0  0  0  0  0  0  0
   10.1741   -3.9088   22.6435 I   0  0  0  0  0  0  0  0  0  0  0  0
   10.7010   -4.3030   21.2258 O   0  0  0  0  0  0  0  0  0  0  0  0
    9.7961    0.0699   19.4599 N   0  0  0  0  0  0  0  0  0  0  0  0
   10.6066   -1.6123   15.8885 He  0  0  0  0  0  0  0  0  0  0  0  0
   11.9332   -5.7192   24.1344 He  0  0  0  0  0  0  0  0  0  0  0  0
    8.6472   -5.1224   18.0697 He  0  0  0  0  0  0  0  0  0  0  0  0
    7.0906   -8.4773   15.2934 He  0  0  0  0  0  0  0  0  0  0  0  0
    9.6273   -4.4627   15.2433 He  0  0  0  0  0  0  0  0  0  0  0  0
    8.2295   -6.7413   16.6455 He  0  0  0  0  0  0  0  0  0  0  0  0
    3.0856   -6.9953   15.6996 He  0  0  0  0  0  0  0  0  0  0  0  0
   11.7702   -2.7580   23.9022 He  0  0  0  0  0  0  0  0  0  0  0  0
   10.4538   -5.5066   21.7907 He  0  0  0  0  0  0  0  0  0  0  0  0
    2.6129   -8.1443   16.8860 He  0  0  0  0  0  0  0  0  0  0  0  0
    4.8370   -7.3304   15.0643 He  0  0  0  0  0  0  0  0  0  0  0  0
  1  2  3  0
  1  3  1  0
  1  5  4  0
  1  6  4  0
  1 10  4  0
  1 14  2  0
  1 18  2  0
  2  3  2  0
  2  4  4  0
  2  6  3  0
  2 11  3  0
  2 18  3  0
  3  5  4  0
  3  6  1  0
  3  8  4  0
  3  9  1  0
  3 13  4  0
  3 16  1  0
  4  5  3  0
  4  8  2  0
  4 10  1  0
  4 13  2  0
  4 17  1  0
  5  7  2  0
  5  9  2  0
  5 11  1  0
  5 12  1  0
  5 14  1  0
  6 10  1  0
  6 14  4  0
  6 18  2  0
  7 11  1  0
  7 13  4  0
  7 15  4  0
  8 12  4  0
  8 14  2  0
  8 16  2  0
  8 17  1  0
  9 12  3  0
  9 15  4  0
 10 14  3  0
 10 16  2  0
 11 13  4  0
 11 16  1  0
 11 17  2  0
 12 13  2  0
 12 17  2  0
 13 14  1  0
 13 15  3  0
 13 17  1  0
 14 15  4  0
 14 17  3  0
 15 18  1  0
 16 17  3  0
 16 18  3  0
 17 18  1  0
M  END
$$$$

 Created by Python create_sdf_string function

 29 19  0  0  0  0  0  0  0  0999 V2000
   14.2134   -6.5459   24.0817 N   0  0  0  0  0  0  0  0  0  0  0  0
    2.1898   -8.4374   15.7359 C   0  0  0  0  0  0  0  0  0  0  0  0
   10.2208   -3.0314   15.7972 P   0  0  0  0  0  0  0  0  0  0  0  0
   10.8552   -3.4505   20.6080 F   0  0  0  0  0  0  0  0  0  0  0  0
    9.7377   -5.8975   18.9002 F   0  0  0  0  0  0  0  0  0  0  0  0
    3.6137   -6.5448   16.5084 P   0  0  0  0  0  0  0  0  0  0  0  0
   10.2098   -6.7243   21.7316 C   0  0  0  0  0  0  0  0  0  0  0  0
    6.4570   -7.9665   15.3503 C   0  0  0  0  0  0  0  0  0  0  0  0
    4.1689   -9.5379   16.8820 C   0  0  0  0  0  0  0  0  0  0  0  0
    6.9214   -9.4620   16.0284 C   0  0  0  0  0  0  0  0  0  0  0  0
   12.3073   -2.1771   22.5544 C   0  0  0  0  0  0  0  0  0  0  0  0
   10.8094   -4.1430   20.4902 C   0  0  0  0  0  0  0  0  0  0  0  0
   10.4618   -4.0365   15.9443 He  0  0  0  0  0  0  0  0  0  0  0  0
    6.8043   -8.4430   17.3379 He  0  0  0  0  0  0  0  0  0  0  0  0
   10.1536   -6.0464   17.6663 He  0  0  0  0  0  0  0  0  0  0  0  0
    6.1172   -9.1270   13.9205 He  0  0  0  0  0  0  0  0  0  0  0  0
   10.8946   -4.6069   14.1535 He  0  0  0  0  0  0  0  0  0  0  0  0
    8.3345   -4.8365   17.3925 He  0  0  0  0  0  0  0  0  0  0  0  0
   10.2180   -7.0410   19.4621 He  0  0  0  0  0  0  0  0  0  0  0  0
    7.7257   -5.4749   15.4856 He  0  0  0  0  0  0  0  0  0  0  0  0
   11.0530   -2.7733   23.4034 He  0  0  0  0  0  0  0  0  0  0  0  0
    6.6391   -7.1538   15.4628 He  0  0  0  0  0  0  0  0  0  0  0  0
    3.2393  -10.5026   18.0084 He  0  0  0  0  0  0  0  0  0  0  0  0
    2.9385   -9.4005   15.6556 He  0  0  0  0  0  0  0  0  0  0  0  0
   11.5389   -6.3327   21.3535 He  0  0  0  0  0  0  0  0  0  0  0  0
   11.6907   -4.0952   22.5738 He  0  0  0  0  0  0  0  0  0  0  0  0
    4.8659  -11.0419   16.0016 He  0  0  0  0  0  0  0  0  0  0  0  0
    9.0338   -6.5419   18.1477 He  0  0  0  0  0  0  0  0  0  0  0  0
   10.8336   -3.8033   18.6966 He  0  0  0  0  0  0  0  0  0  0  0  0
  1  4  4  0
  1  5  2  0
  1  6  3  0
  1  7  3  0
  1 12  3  0
  2  4  3  0
  2  8  1  0
  2  9  4  0
  2 10  4  0
  4  5  3  0
  4  8  2  0
  4  9  1  0
  4 10  1  0
  4 12  4  0
  6 10  4  0
  6 11  2  0
  7 11  1  0
  8 10  2  0
  9 12  3  0
M  END
$$$$

 Created by Python create_sdf_string function

 29 48  0  0  0  0  0  0  0  0999 V2000
    7.9858   -4.4196   16.7171 C   0  0  0  0  0  0  0  0  0  0  0  0
    7.8935   -8.3548   18.6150 N   0  0  0  0  0  0  0  0  0  0  0  0
   11.9921   -4.7568   22.1054 C   0  0  0  0  0  0  0  0  0  0  0  0
    6.9116   -9.8342   17.1519 F   0  0  0  0  0  0  0  0  0  0  0  0
    9.5829   -5.3254   15.3660 C   0  0  0  0  0  0  0  0  0  0  0  0
    8.0009   -5.6589   17.9457 C   0  0  0  0  0  0  0  0  0  0  0  0
    8.6135   -5.8684   18.2275 I   0  0  0  0  0  0  0  0  0  0  0  0
    2.9074   -7.9704   16.4741 Br  0  0  0  0  0  0  0  0  0  0  0  0
    6.7515   -7.1556   16.0053 F   0  0  0  0  0  0  0  0  0  0  0  0
   10.6315   -6.1194   20.4962 C   0  0  0  0  0  0  0  0  0  0  0  0
    3.7838  -11.3757   17.7684 F   0  0  0  0  0  0  0  0  0  0  0  0
    2.0125   -9.5491   16.0155 C   0  0  0  0  0  0  0  0  0  0  0  0
    3.1046   -9.6415   16.3611 C   0  0  0  0  0  0  0  0  0  0  0  0
    4.9439   -9.7001   16.1575 N   0  0  0  0  0  0  0  0  0  0  0  0
    8.5383   -6.8435   16.9071 C   0  0  0  0  0  0  0  0  0  0  0  0
   11.6047   -2.4154   23.0053 Cl  0  0  0  0  0  0  0  0  0  0  0  0
   12.1567   -3.2009   18.6448 C   0  0  0  0  0  0  0  0  0  0  0  0
   13.5733   -6.2680   23.5684 He  0  0  0  0  0  0  0  0  0  0  0  0
    3.2053   -8.3931   15.9762 He  0  0  0  0  0  0  0  0  0  0  0  0
   10.1691   -2.4921   17.2468 He  0  0  0  0  0  0  0  0  0  0  0  0
    9.4684   -6.5779   17.6603 He  0  0  0  0  0  0  0  0  0  0  0  0
    9.5479   -4.6830   16.8892 He  0  0  0  0  0  0  0  0  0  0  0  0
    9.9101   -6.7735   19.9553 He  0  0  0  0  0  0  0  0  0  0  0  0
   12.2080   -3.0840   24.9187 He  0  0  0  0  0  0  0  0  0  0  0  0
    5.8224   -7.7294   15.7511 He  0  0  0  0  0  0  0  0  0  0  0  0
    9.9680   -6.4982   21.6386 He  0  0  0  0  0  0  0  0  0  0  0  0
   13.7920   -5.5268   22.8098 He  0  0  0  0  0  0  0  0  0  0  0  0
    7.0702   -8.6128   16.7034 He  0  0  0  0  0  0  0  0  0  0  0  0
   11.8190   -3.9344   18.8857 He  0  0  0  0  0  0  0  0  0  0  0  0
  1  2  2  0
  1  9  1  0
  1 11  2  0
  1 12  2  0
  1 14  4  0
  2  5  2  0
  2  7  4  0
  2  8  3  0
  2 10  1  0
  2 12  4  0
  3  4  1  0
  3  5  4  0
  3  6  1  0
  3 13  4  0
  4  5  3  0
  4  6  2  0
  4  7  4  0
  4  8  4  0
  4  9  4  0
  4 14  2  0
  4 17  4  0
  5 11  3  0
  5 16  2  0
  5 17  4  0
  6  9  3  0
  6 11  4  0
  6 16  4  0
  7  9  2  0
  7 13  2  0
  7 15  2  0
  8 12  4  0
  8 13  3  0
  8 14  1  0
  8 17  1  0
  9 10  1  0
  9 11  4  0
  9 16  1  0
  9 17  4  0
 10 13  4  0
 10 16  3  0
 11 12  2  0
 11 13  2  0
 11 15  4  0
 11 16  4  0
 12 14  2  0
 12 15  4  0
 12 17  2  0
 13 17  4  0
M  END
$$$$

 Created by Python create_sdf_string function

 29 39  0  0  0  0  0  0  0  0999 V2000
    3.4947   -8.9677   15.7545 N   0  0  0  0  0  0  0  0  0  0  0  0
    9.8496   -3.7637   17.2788 C   0  0  0  0  0  0  0  0  0  0  0  0
    9.5333   -4.8367   17.3201 O   0  0  0  0  0  0  0  0  0  0  0  0
    7.4870   -9.7163   18.1763 O   0  0  0  0  0  0  0  0  0  0  0  0
   10.1672   -5.5894   16.7570 C   0  0  0  0  0  0  0  0  0  0  0  0
    8.4059   -6.8142   17.2185 P   0  0  0  0  0  0  0  0  0  0  0  0
    1.0145  -10.0059   15.6625 N   0  0  0  0  0  0  0  0  0  0  0  0
   11.5799   -3.7849   26.0243 F   0  0  0  0  0  0  0  0  0  0  0  0
    6.7990   -6.2453   17.8333 C   0  0  0  0  0  0  0  0  0  0  0  0
   10.2909   -6.2524   20.8917 C   0  0  0  0  0  0  0  0  0  0  0  0
    3.9469  -11.8309   18.9821 C   0  0  0  0  0  0  0  0  0  0  0  0
   11.0384   -5.3814   20.2002 P   0  0  0  0  0  0  0  0  0  0  0  0
    4.5028   -9.6622   16.8839 N   0  0  0  0  0  0  0  0  0  0  0  0
    5.1141   -8.8783   15.8735 C   0  0  0  0  0  0  0  0  0  0  0  0
   10.2376   -3.8102   19.0985 C   0  0  0  0  0  0  0  0  0  0  0  0
   11.2531   -2.4571   19.1298 C   0  0  0  0  0  0  0  0  0  0  0  0
    9.7934   -4.2933   18.1085 He  0  0  0  0  0  0  0  0  0  0  0  0
   12.2956   -4.9708   24.1818 He  0  0  0  0  0  0  0  0  0  0  0  0
    8.0444   -7.2363   17.6565 He  0  0  0  0  0  0  0  0  0  0  0  0
   12.4116   -4.9024   21.3001 He  0  0  0  0  0  0  0  0  0  0  0  0
   10.9548   -5.5569   17.8224 He  0  0  0  0  0  0  0  0  0  0  0  0
   10.5721   -5.9365   17.7216 He  0  0  0  0  0  0  0  0  0  0  0  0
    8.3572   -5.6418   18.0415 He  0  0  0  0  0  0  0  0  0  0  0  0
    6.2525   -8.0079   15.9130 He  0  0  0  0  0  0  0  0  0  0  0  0
    2.5366   -9.0028   16.3730 He  0  0  0  0  0  0  0  0  0  0  0  0
   13.0033   -5.0414   22.1585 He  0  0  0  0  0  0  0  0  0  0  0  0
    7.7661   -7.3969   16.3776 He  0  0  0  0  0  0  0  0  0  0  0  0
    6.6085   -7.6834   16.9948 He  0  0  0  0  0  0  0  0  0  0  0  0
   12.3334   -4.1883   22.3861 He  0  0  0  0  0  0  0  0  0  0  0  0
  1  3  1  0
  1  5  3  0
  1  7  1  0
  1 12  2  0
  1 15  4  0
  1 16  4  0
  2  3  3  0
  2  4  4  0
  2  5  4  0
  2  7  4  0
  2  9  1  0
  2 10  3  0
  3  9  1  0
  3 10  3  0
  3 11  3  0
  3 16  2  0
  4  7  2  0
  5  6  4  0
  5  8  4  0
  5  9  2  0
  5 10  1  0
  5 13  1  0
  5 16  4  0
  6  7  2  0
  6 16  1  0
  7  8  3  0
  7  9  3  0
  7 10  2  0
  7 12  4  0
  8  9  3  0
  9 11  2  0
  9 16  4  0
 10 13  3  0
 10 15  4  0
 12 13  1  0
 12 15  2  0
 13 15  4  0
 14 16  3  0
 15 16  4  0
M  END
$$$$

 Created by Python create_sdf_string function

 29 33  0  0  0  0  0  0  0  0999 V2000
   11.4896   -3.6420   18.5594 N   0  0  0  0  0  0  0  0  0  0  0  0
   10.4767   -3.8077   15.2483 C   0  0  0  0  0  0  0  0  0  0  0  0
    9.4009   -6.1657   17.0886 N   0  0  0  0  0  0  0  0  0  0  0  0
   10.5612   -5.4294   16.6092 C   0  0  0  0  0  0  0  0  0  0  0  0
    9.8730   -6.7934   18.8370 I   0  0  0  0  0  0  0  0  0  0  0  0
    8.6632   -7.0508   17.2733 C   0  0  0  0  0  0  0  0  0  0  0  0
    9.0406   -5.6559   16.7654 C   0  0  0  0  0  0  0  0  0  0  0  0
    1.2122   -9.0140   15.5418 I   0  0  0  0  0  0  0  0  0  0  0  0
   11.3936   -5.8674   20.8332 F   0  0  0  0  0  0  0  0  0  0  0  0
    6.3551   -8.1598   16.1292 C   0  0  0  0  0  0  0  0  0  0  0  0
    2.0530  -10.5879   15.9834 F   0  0  0  0  0  0  0  0  0  0  0  0
    3.9204  -10.5447   17.9217 I   0  0  0  0  0  0  0  0  0  0  0  0
    8.4927   -7.7762   15.4693 O   0  0  0  0  0  0  0  0  0  0  0  0
   11.1836   -5.5810   20.3320 P   0  0  0  0  0  0  0  0  0  0  0  0
   11.0565   -5.1362   17.6034 Cl  0  0  0  0  0  0  0  0  0  0  0  0
   12.5590   -5.3325   24.2592 He  0  0  0  0  0  0  0  0  0  0  0  0
    1.9993   -8.7829   15.2484 He  0  0  0  0  0  0  0  0  0  0  0  0
    7.2437   -5.5405   18.1056 He  0  0  0  0  0  0  0  0  0  0  0  0
   12.6839   -4.8996   22.3607 He  0  0  0  0  0  0  0  0  0  0  0  0
    9.5038   -6.3023   16.7577 He  0  0  0  0  0  0  0  0  0  0  0  0
    7.1626   -8.6236   17.2322 He  0  0  0  0  0  0  0  0  0  0  0  0
   12.0649   -5.5613   24.5585 He  0  0  0  0  0  0  0  0  0  0  0  0
    7.9137   -6.9857   17.3579 He  0  0  0  0  0  0  0  0  0  0  0  0
    2.8525  -10.8579   16.5799 He  0  0  0  0  0  0  0  0  0  0  0  0
   11.9342   -4.4620   20.8011 He  0  0  0  0  0  0  0  0  0  0  0  0
   12.4713   -5.7872   23.2872 He  0  0  0  0  0  0  0  0  0  0  0  0
    4.9892   -7.7518   17.0915 He  0  0  0  0  0  0  0  0  0  0  0  0
    5.6774   -8.8520   15.5242 He  0  0  0  0  0  0  0  0  0  0  0  0
   12.5149   -5.9606   24.0164 He  0  0  0  0  0  0  0  0  0  0  0  0
  1  3  4  0
  1  8  3  0
  1  9  2  0
  1 10  4  0
  1 13  3  0
  2  5  2  0
  2  6  4  0
  2  8  2  0
  2  9  4  0
  2 10  1  0
  2 11  2  0
  3  4  4  0
  3 14  2  0
  4  6  4  0
  4  9  2  0
  4 14  3  0
  5  6  4  0
  5  9  4  0
  5 12  2  0
  5 13  1  0
  5 15  1  0
  6  9  1  0
  6 11  1  0
  7  9  2  0
  7 11  2  0
  7 14  3  0
  8 11  4  0
  8 14  4  0
  9 11  4  0
 10 13  4  0
 10 15  1  0
 11 14  3  0
 12 15  4  0
M  END
$$$$

 Created by Python create_sdf_string function

 29 34  0  0  0  0  0  0  0  0999 V2000
   11.6006   -2.8130   18.2146 C   0  0  0  0  0  0  0  0  0  0  0  0
    7.4944   -5.3570   19.1313 S   0  0  0  0  0  0  0  0  0  0  0  0
   13.4632   -3.6270   20.6992 C   0  0  0  0  0  0  0  0  0  0  0  0
    9.8623   -5.3211   16.3278 P   0  0  0  0  0  0  0  0  0  0  0  0
   10.4384   -6.5405   19.2672 C   0  0  0  0  0  0  0  0  0  0  0  0
   12.7161   -4.5283   24.0458 S   0  0  0  0  0  0  0  0  0  0  0  0
    7.3358   -8.0426   16.8224 N   0  0  0  0  0  0  0  0  0  0  0  0
    2.9032   -9.5833   16.2843 C   0  0  0  0  0  0  0  0  0  0  0  0
    5.7289   -7.8698   16.3742 C   0  0  0  0  0  0  0  0  0  0  0  0
    2.2733   -9.3686   16.9802 C   0  0  0  0  0  0  0  0  0  0  0  0
   11.6218   -4.5606   21.3445 S   0  0  0  0  0  0  0  0  0  0  0  0
    4.1033   -9.5571   18.0458 P   0  0  0  0  0  0  0  0  0  0  0  0
    5.0331  -10.2742   17.6858 N   0  0  0  0  0  0  0  0  0  0  0  0
    5.8941   -8.0452   15.8839 F   0  0  0  0  0  0  0  0  0  0  0  0
   10.4026   -3.9386   17.0476 O   0  0  0  0  0  0  0  0  0  0  0  0
   12.2916   -5.3205   23.5623 He  0  0  0  0  0  0  0  0  0  0  0  0
    3.1907   -8.6368   15.1395 He  0  0  0  0  0  0  0  0  0  0  0  0
   10.8144   -4.2106   15.3084 He  0  0  0  0  0  0  0  0  0  0  0  0
    9.3421   -3.8304   17.1011 He  0  0  0  0  0  0  0  0  0  0  0  0
    6.1257   -8.6604   16.9950 He  0  0  0  0  0  0  0  0  0  0  0  0
    9.6348   -6.3885   18.1933 He  0  0  0  0  0  0  0  0  0  0  0  0
   10.0769   -7.2343   16.8922 He  0  0  0  0  0  0  0  0  0  0  0  0
    8.9678   -5.4795   15.6956 He  0  0  0  0  0  0  0  0  0  0  0  0
    0.7409  -10.4599   15.9583 He  0  0  0  0  0  0  0  0  0  0  0  0
   10.7619   -5.9427   21.0932 He  0  0  0  0  0  0  0  0  0  0  0  0
   12.2157   -6.0701   23.1283 He  0  0  0  0  0  0  0  0  0  0  0  0
    7.9174   -8.0748   14.7492 He  0  0  0  0  0  0  0  0  0  0  0  0
   10.6967   -4.3852   24.6663 He  0  0  0  0  0  0  0  0  0  0  0  0
    9.6751   -3.6198   19.6701 He  0  0  0  0  0  0  0  0  0  0  0  0
  1  2  4  0
  1  3  3  0
  1  5  2  0
  1  6  4  0
  1 10  3  0
  1 11  1  0
  1 12  1  0
  1 13  2  0
  1 14  3  0
  2  4  3  0
  2 11  2  0
  2 12  3  0
  3  7  2  0
  3  9  2  0
  3 11  4  0
  3 14  2  0
  5  6  1  0
  5 13  1  0
  6 10  2  0
  6 11  2  0
  6 15  1  0
  7  8  3  0
  8 10  4  0
  8 11  4  0
  8 12  4  0
  8 13  4  0
  9 12  1  0
  9 14  3  0
  9 15  2  0
 10 12  3  0
 10 15  1  0
 13 14  3  0
 13 15  3  0
 14 15  2  0
M  END
$$$$

 Created by Python create_sdf_string function

 29 64  0  0  0  0  0  0  0  0999 V2000
   12.2886   -2.8607   19.2610 F   0  0  0  0  0  0  0  0  0  0  0  0
   12.2401   -4.2718   23.5851 C   0  0  0  0  0  0  0  0  0  0  0  0
    4.9868   -9.8601   14.7275 O   0  0  0  0  0  0  0  0  0  0  0  0
    9.8715   -5.0402   15.3043 C   0  0  0  0  0  0  0  0  0  0  0  0
   11.7999   -5.2663   20.8635 C   0  0  0  0  0  0  0  0  0  0  0  0
   11.7653   -3.5152   18.2287 S   0  0  0  0  0  0  0  0  0  0  0  0
    7.4039   -8.9671   19.1887 C   0  0  0  0  0  0  0  0  0  0  0  0
    9.0748   -6.0238   18.0032 F   0  0  0  0  0  0  0  0  0  0  0  0
    9.5481   -6.8208   18.2477 C   0  0  0  0  0  0  0  0  0  0  0  0
   10.4576   -8.4779   18.8897 Cl  0  0  0  0  0  0  0  0  0  0  0  0
   11.3514   -5.0005   23.8668 C   0  0  0  0  0  0  0  0  0  0  0  0
    7.3405   -7.8475   16.1647 F   0  0  0  0  0  0  0  0  0  0  0  0
    2.7671  -10.0740   16.6716 O   0  0  0  0  0  0  0  0  0  0  0  0
   10.7015   -3.9487   23.3273 F   0  0  0  0  0  0  0  0  0  0  0  0
    3.3185  -11.1773   18.0672 C   0  0  0  0  0  0  0  0  0  0  0  0
    4.6965   -9.9411   17.1538 O   0  0  0  0  0  0  0  0  0  0  0  0
    6.9569   -7.3400   16.9837 Br  0  0  0  0  0  0  0  0  0  0  0  0
    6.4717   -9.3074   17.3269 C   0  0  0  0  0  0  0  0  0  0  0  0
   10.5186   -5.2001   20.7478 N   0  0  0  0  0  0  0  0  0  0  0  0
   12.2409   -3.4354   17.1082 C   0  0  0  0  0  0  0  0  0  0  0  0
    9.2055   -5.5555   17.4661 He  0  0  0  0  0  0  0  0  0  0  0  0
   10.6885   -5.3322   17.6606 He  0  0  0  0  0  0  0  0  0  0  0  0
    8.2292   -5.9218   16.2522 He  0  0  0  0  0  0  0  0  0  0  0  0
    1.4156  -10.9777   15.2435 He  0  0  0  0  0  0  0  0  0  0  0  0
   12.4487   -5.9039   21.7872 He  0  0  0  0  0  0  0  0  0  0  0  0
    2.5466   -9.6255   16.4315 He  0  0  0  0  0  0  0  0  0  0  0  0
    5.9859   -8.5108   15.4064 He  0  0  0  0  0  0  0  0  0  0  0  0
   11.4064   -5.2480   22.0771 He  0  0  0  0  0  0  0  0  0  0  0  0
   10.4640   -4.8962   23.6239 He  0  0  0  0  0  0  0  0  0  0  0  0
  1  2  1  0
  1  7  3  0
  1 11  3  0
  1 18  2  0
  1 19  4  0
  1 20  2  0
  2  6  3  0
  2  9  4  0
  2 11  1  0
  2 14  3  0
  2 18  3  0
  3  5  1  0
  3  8  3  0
  3 10  2  0
  3 11  4  0
  3 12  3  0
  3 13  4  0
  3 14  4  0
  3 15  3  0
  3 18  1  0
  4  5  3  0
  4  6  2  0
  4  7  4  0
  4  9  4  0
  4 13  1  0
  4 14  2  0
  5  6  2  0
  5  8  4  0
  5 11  1  0
  5 12  4  0
  5 14  2  0
  5 15  2  0
  5 17  1  0
  6 10  3  0
  6 19  3  0
  6 20  3  0
  7  8  2  0
  7 10  1  0
  7 12  2  0
  7 14  2  0
  7 15  3  0
  7 16  3  0
  8 10  2  0
  8 12  2  0
  8 14  3  0
  8 16  4  0
  8 20  2  0
  9 11  2  0
  9 12  2  0
  9 13  3  0
  9 18  4  0
 10 15  3  0
 10 19  1  0
 10 20  3  0
 11 19  2  0
 12 15  4  0
 12 17  4  0
 13 15  3  0
 13 16  1  0
 13 20  3  0
 16 18  3  0
 16 20  3  0
 17 20  2  0
 18 20  1  0
M  END
$$$$

 Created by Python create_sdf_string function

 29 37  0  0  0  0  0  0  0  0999 V2000
    5.5427   -8.6199   15.4525 C   0  0  0  0  0  0  0  0  0  0  0  0
    8.3689   -6.3630   17.2909 C   0  0  0  0  0  0  0  0  0  0  0  0
   11.5378   -4.8265   21.7759 P   0  0  0  0  0  0  0  0  0  0  0  0
    7.1026   -8.2098   17.2563 O   0  0  0  0  0  0  0  0  0  0  0  0
    9.2723   -7.3366   17.0906 F   0  0  0  0  0  0  0  0  0  0  0  0
    8.7148   -6.3401   15.5153 C   0  0  0  0  0  0  0  0  0  0  0  0
    2.1784   -8.9572   16.1411 O   0  0  0  0  0  0  0  0  0  0  0  0
   11.4985   -4.8327   22.1898 C   0  0  0  0  0  0  0  0  0  0  0  0
   12.5418   -4.0037   22.1103 C   0  0  0  0  0  0  0  0  0  0  0  0
    5.7519   -9.0419   14.5143 C   0  0  0  0  0  0  0  0  0  0  0  0
    3.8491   -8.7808   17.1072 C   0  0  0  0  0  0  0  0  0  0  0  0
    2.9176   -9.1716   18.4153 C   0  0  0  0  0  0  0  0  0  0  0  0
    9.6715   -4.3367   24.5889 N   0  0  0  0  0  0  0  0  0  0  0  0
   11.9023   -4.7127   17.8951 C   0  0  0  0  0  0  0  0  0  0  0  0
   11.2695   -2.0378   18.1156 He  0  0  0  0  0  0  0  0  0  0  0  0
   12.8347   -5.3301   23.6001 He  0  0  0  0  0  0  0  0  0  0  0  0
   10.0954   -5.1140   16.8203 He  0  0  0  0  0  0  0  0  0  0  0  0
   12.3056   -3.1209   17.6324 He  0  0  0  0  0  0  0  0  0  0  0  0
    9.3523   -6.5259   18.7824 He  0  0  0  0  0  0  0  0  0  0  0  0
   11.6334   -5.7713   17.7816 He  0  0  0  0  0  0  0  0  0  0  0  0
    9.1217   -5.3552   17.4070 He  0  0  0  0  0  0  0  0  0  0  0  0
    8.0979   -8.0223   17.1025 He  0  0  0  0  0  0  0  0  0  0  0  0
    2.8891  -10.1909   17.3296 He  0  0  0  0  0  0  0  0  0  0  0  0
   11.4695   -3.3162   22.9712 He  0  0  0  0  0  0  0  0  0  0  0  0
   10.6648   -3.9443   21.6788 He  0  0  0  0  0  0  0  0  0  0  0  0
    4.4951   -9.5724   17.6036 He  0  0  0  0  0  0  0  0  0  0  0  0
    6.6128   -7.6409   16.1178 He  0  0  0  0  0  0  0  0  0  0  0  0
    6.9315   -9.8071   17.5260 He  0  0  0  0  0  0  0  0  0  0  0  0
   10.9918   -5.5062   19.9391 He  0  0  0  0  0  0  0  0  0  0  0  0
  1  5  1  0
  1  7  2  0
  1 11  2  0
  1 13  4  0
  1 14  1  0
  2  3  3  0
  2  4  3  0
  2  7  3  0
  2  9  4  0
  2 10  2  0
  2 14  3  0
  3  4  4  0
  3  8  3  0
  3  9  1  0
  4  5  2  0
  4  7  3  0
  4  8  2  0
  4  9  4  0
  4 10  1  0
  4 14  4  0
  5  7  3  0
  5 11  1  0
  5 12  1  0
  5 13  3  0
  5 14  4  0
  6  7  1  0
  6 11  2  0
  7 10  1  0
  7 11  3  0
  7 13  1  0
  7 14  3  0
  8 10  2  0
  8 13  4  0
  9 11  4  0
 10 11  1  0
 11 12  1  0
 12 13  1  0
M  END
$$$$

 Created by Python create_sdf_string function

 29 69  0  0  0  0  0  0  0  0999 V2000
   12.9338   -3.5483   23.2248 C   0  0  0  0  0  0  0  0  0  0  0  0
    4.5466   -8.2905   15.9785 O   0  0  0  0  0  0  0  0  0  0  0  0
    9.3017   -5.3308   16.0785 N   0  0  0  0  0  0  0  0  0  0  0  0
    8.9624   -7.5608   16.5769 F   0  0  0  0  0  0  0  0  0  0  0  0
   11.4951   -4.6532   22.0541 S   0  0  0  0  0  0  0  0  0  0  0  0
    8.6304   -5.5399   16.9424 C   0  0  0  0  0  0  0  0  0  0  0  0
    9.3325   -5.0627   17.7878 Cl  0  0  0  0  0  0  0  0  0  0  0  0
    2.7570  -10.1757   16.0159 P   0  0  0  0  0  0  0  0  0  0  0  0
   11.4324   -3.2820   22.4099 C   0  0  0  0  0  0  0  0  0  0  0  0
    7.7785   -7.0628   16.1661 C   0  0  0  0  0  0  0  0  0  0  0  0
   12.3854   -3.9331   22.1720 P   0  0  0  0  0  0  0  0  0  0  0  0
    2.4026   -9.5180   16.2845 N   0  0  0  0  0  0  0  0  0  0  0  0
    1.4114   -9.1193   17.4548 F   0  0  0  0  0  0  0  0  0  0  0  0
   10.6203   -2.6112   21.0395 C   0  0  0  0  0  0  0  0  0  0  0  0
   10.9915   -2.3999   22.3920 C   0  0  0  0  0  0  0  0  0  0  0  0
    1.7445  -10.0695   17.9101 S   0  0  0  0  0  0  0  0  0  0  0  0
    3.7833  -10.3481   16.9928 C   0  0  0  0  0  0  0  0  0  0  0  0
    6.5172   -7.5088   16.1198 C   0  0  0  0  0  0  0  0  0  0  0  0
    7.6341   -9.1058   19.2140 C   0  0  0  0  0  0  0  0  0  0  0  0
   11.5048   -4.1026   17.8218 C   0  0  0  0  0  0  0  0  0  0  0  0
   11.7300   -1.4780   18.5010 He  0  0  0  0  0  0  0  0  0  0  0  0
   10.1394   -3.7003   18.0142 He  0  0  0  0  0  0  0  0  0  0  0  0
    7.1733   -8.8690   17.3376 He  0  0  0  0  0  0  0  0  0  0  0  0
    8.7803   -5.1567   19.3115 He  0  0  0  0  0  0  0  0  0  0  0  0
   10.9227   -5.2463   16.8096 He  0  0  0  0  0  0  0  0  0  0  0  0
    7.9036   -5.4532   16.9077 He  0  0  0  0  0  0  0  0  0  0  0  0
    5.5338   -7.4699   15.4160 He  0  0  0  0  0  0  0  0  0  0  0  0
   10.8649   -4.8242   23.9512 He  0  0  0  0  0  0  0  0  0  0  0  0
   11.9429   -5.3682   19.1966 He  0  0  0  0  0  0  0  0  0  0  0  0
  1  6  3  0
  1 12  1  0
  1 17  2  0
  1 19  2  0
  2  3  3  0
  2  6  3  0
  2  7  3  0
  2  9  2  0
  2 10  3  0
  2 11  3  0
  2 14  2  0
  2 15  2  0
  2 16  4  0
  2 18  4  0
  2 19  3  0
  2 20  1  0
  3  9  2  0
  3 12  3  0
  3 14  4  0
  3 16  4  0
  4  8  4  0
  4  9  4  0
  4 14  1  0
  4 15  1  0
  4 18  2  0
  4 20  2  0
  5  6  2  0
  5  7  4  0
  5  8  2  0
  5 14  4  0
  5 17  1  0
  5 20  2  0
  6 13  1  0
  6 14  2  0
  6 18  4  0
  6 20  3  0
  7  9  3  0
  7 10  1  0
  7 12  4  0
  7 13  1  0
  7 15  2  0
  8 10  1  0
  8 12  4  0
  8 14  4  0
  8 16  2  0
  8 17  1  0
  8 19  3  0
  9 11  1  0
  9 12  4  0
  9 19  1  0
 10 11  1  0
 10 12  4  0
 10 17  4  0
 11 13  3  0
 11 15  2  0
 11 18  3  0
 11 19  4  0
 11 20  4  0
 12 13  4  0
 12 16  4  0
 12 17  2  0
 12 19  3  0
 13 16  1  0
 13 17  3  0
 14 15  1  0
 14 16  3  0
 14 19  2  0
 14 20  3  0
 16 17  2  0
M  END
$$$$

 Created by Python create_sdf_string function

 29 33  0  0  0  0  0  0  0  0999 V2000
   12.5314   -3.2445   23.0142 C   0  0  0  0  0  0  0  0  0  0  0  0
    9.4113   -8.5922   18.0020 N   0  0  0  0  0  0  0  0  0  0  0  0
    9.8054   -3.8755   19.5056 I   0  0  0  0  0  0  0  0  0  0  0  0
   10.9026   -3.9279   16.9800 C   0  0  0  0  0  0  0  0  0  0  0  0
   11.5006   -4.5039   16.4891 F   0  0  0  0  0  0  0  0  0  0  0  0
   11.7436   -3.5659   21.9924 C   0  0  0  0  0  0  0  0  0  0  0  0
   11.6333   -2.8628   22.5263 F   0  0  0  0  0  0  0  0  0  0  0  0
    5.7560   -8.6212   15.2110 C   0  0  0  0  0  0  0  0  0  0  0  0
   11.3264   -3.2397   22.3659 N   0  0  0  0  0  0  0  0  0  0  0  0
    2.1631   -9.9977   16.9781 N   0  0  0  0  0  0  0  0  0  0  0  0
    3.9039   -9.7749   16.5892 C   0  0  0  0  0  0  0  0  0  0  0  0
    7.2339   -8.5774   16.1945 C   0  0  0  0  0  0  0  0  0  0  0  0
   10.2007   -3.1997   17.2280 C   0  0  0  0  0  0  0  0  0  0  0  0
   12.5778   -4.2161   18.6904 He  0  0  0  0  0  0  0  0  0  0  0  0
    5.5824   -9.2760   15.1239 He  0  0  0  0  0  0  0  0  0  0  0  0
    9.4776   -4.9785   14.5881 He  0  0  0  0  0  0  0  0  0  0  0  0
   11.8447   -3.9872   21.5861 He  0  0  0  0  0  0  0  0  0  0  0  0
   11.8533   -3.8899   17.4507 He  0  0  0  0  0  0  0  0  0  0  0  0
    5.9085   -7.3811   15.7470 He  0  0  0  0  0  0  0  0  0  0  0  0
    9.3217   -6.1154   16.5163 He  0  0  0  0  0  0  0  0  0  0  0  0
    7.3851   -7.5568   15.0843 He  0  0  0  0  0  0  0  0  0  0  0  0
    2.0620   -9.6121   16.1453 He  0  0  0  0  0  0  0  0  0  0  0  0
    7.3044   -7.2498   16.3009 He  0  0  0  0  0  0  0  0  0  0  0  0
    2.1551   -8.9127   16.0651 He  0  0  0  0  0  0  0  0  0  0  0  0
    1.5405  -10.4604   17.8774 He  0  0  0  0  0  0  0  0  0  0  0  0
   10.3353   -3.2629   23.5963 He  0  0  0  0  0  0  0  0  0  0  0  0
    6.7373   -7.5153   16.2153 He  0  0  0  0  0  0  0  0  0  0  0  0
   11.2975   -5.1151   24.3959 He  0  0  0  0  0  0  0  0  0  0  0  0
   10.3862   -5.5601   18.6391 He  0  0  0  0  0  0  0  0  0  0  0  0
  1  2  3  0
  1  6  2  0
  1  8  1  0
  1 12  2  0
  1 13  2  0
  2  6  3  0
  2  9  2  0
  2 10  2  0
  3  5  3  0
  3  8  2  0
  3  9  4  0
  3 10  2  0
  3 11  4  0
  4  5  1  0
  4  7  2  0
  4  8  4  0
  4 13  3  0
  5  6  2  0
  5  7  1  0
  5  8  2  0
  5 10  4  0
  5 11  1  0
  6  9  1  0
  6 10  1  0
  6 13  4  0
  7  9  3  0
  7 12  2  0
  8  9  2  0
  8 12  1  0
  9 11  1  0
 10 11  2  0
 10 13  4  0
 11 13  3  0
M  END
$$$$

 Created by Python create_sdf_string function

 29 51  0  0  0  0  0  0  0  0999 V2000
   11.6042   -5.2702   18.6849 C   0  0  0  0  0  0  0  0  0  0  0  0
    5.3209   -8.1002   14.8671 C   0  0  0  0  0  0  0  0  0  0  0  0
    8.3887   -7.9948   18.7385 C   0  0  0  0  0  0  0  0  0  0  0  0
    7.1739   -7.8926   15.1053 O   0  0  0  0  0  0  0  0  0  0  0  0
   10.5394   -4.3111   17.2479 C   0  0  0  0  0  0  0  0  0  0  0  0
    7.8439   -6.1779   16.8059 C   0  0  0  0  0  0  0  0  0  0  0  0
    3.4656  -10.7460   16.0944 C   0  0  0  0  0  0  0  0  0  0  0  0
   11.0423   -2.5476   22.4034 C   0  0  0  0  0  0  0  0  0  0  0  0
    6.6441   -7.5756   16.6942 C   0  0  0  0  0  0  0  0  0  0  0  0
   10.6605   -3.8771   22.2380 C   0  0  0  0  0  0  0  0  0  0  0  0
    4.1871   -9.7335   14.8303 O   0  0  0  0  0  0  0  0  0  0  0  0
    4.2176   -8.7717   15.5289 F   0  0  0  0  0  0  0  0  0  0  0  0
    2.1092   -9.9351   17.7798 O   0  0  0  0  0  0  0  0  0  0  0  0
   11.3844   -4.6122   21.8950 B   0  0  0  0  0  0  0  0  0  0  0  0
    3.6372   -8.5323   17.2280 P   0  0  0  0  0  0  0  0  0  0  0  0
    3.2058   -9.6175   16.9348 C   0  0  0  0  0  0  0  0  0  0  0  0
    7.0689   -8.3765   16.9080 C   0  0  0  0  0  0  0  0  0  0  0  0
    8.8199   -5.2998   18.8048 Se  0  0  0  0  0  0  0  0  0  0  0  0
    9.7914   -4.7493   17.5618 S   0  0  0  0  0  0  0  0  0  0  0  0
   11.5868   -3.1846   22.6468 He  0  0  0  0  0  0  0  0  0  0  0  0
    8.0932   -3.7231   15.9874 He  0  0  0  0  0  0  0  0  0  0  0  0
   11.3009   -2.9986   20.8094 He  0  0  0  0  0  0  0  0  0  0  0  0
   11.8818   -4.3326   17.3943 He  0  0  0  0  0  0  0  0  0  0  0  0
    9.2383   -5.4355   16.9457 He  0  0  0  0  0  0  0  0  0  0  0  0
    9.4183   -5.4535   20.1377 He  0  0  0  0  0  0  0  0  0  0  0  0
    7.9101   -3.8931   17.4180 He  0  0  0  0  0  0  0  0  0  0  0  0
   11.2932   -3.0390   22.8412 He  0  0  0  0  0  0  0  0  0  0  0  0
    6.7636   -7.8742   16.9279 He  0  0  0  0  0  0  0  0  0  0  0  0
   12.0579   -5.7573   24.7194 He  0  0  0  0  0  0  0  0  0  0  0  0
  1  2  4  0
  1  3  1  0
  1  6  3  0
  1 14  3  0
  1 16  3  0
  1 19  4  0
  2  3  1  0
  2  4  2  0
  2  5  1  0
  2  7  4  0
  2 15  2  0
  2 18  4  0
  4  6  4  0
  4  7  4  0
  4 19  1  0
  5  6  1  0
  5  7  1  0
  5 18  1  0
  6 13  2  0
  6 14  3  0
  6 17  3  0
  7  9  3  0
  7 11  2  0
  7 12  4  0
  7 13  4  0
  7 14  2  0
  7 17  4  0
  7 18  1  0
  8 10  1  0
  8 13  3  0
  8 14  1  0
  8 15  2  0
  9 12  1  0
  9 14  3  0
  9 17  4  0
 10 12  1  0
 10 13  3  0
 10 14  4  0
 10 15  2  0
 11 13  2  0
 12 13  2  0
 12 17  4  0
 12 19  4  0
 13 15  4  0
 13 17  1  0
 15 16  4  0
 15 17  3  0
 15 19  2  0
 16 19  1  0
 17 19  2  0
 18 19  3  0
M  END
$$$$

 Created by Python create_sdf_string function

 29 64  0  0  0  0  0  0  0  0999 V2000
   12.0535   -2.9888   23.9675 C   0  0  0  0  0  0  0  0  0  0  0  0
    5.7574   -7.0257   15.3876 O   0  0  0  0  0  0  0  0  0  0  0  0
    9.2738   -5.2066   16.1802 O   0  0  0  0  0  0  0  0  0  0  0  0
    8.6295   -6.6862   17.4578 I   0  0  0  0  0  0  0  0  0  0  0  0
    9.0609   -5.6742   17.6292 Br  0  0  0  0  0  0  0  0  0  0  0  0
    9.9995   -3.8980   18.3966 C   0  0  0  0  0  0  0  0  0  0  0  0
    9.4712   -4.5605   17.4634 O   0  0  0  0  0  0  0  0  0  0  0  0
    9.5431   -6.3196   16.3225 N   0  0  0  0  0  0  0  0  0  0  0  0
    3.2313   -9.5723   15.9803 C   0  0  0  0  0  0  0  0  0  0  0  0
   10.6849   -2.7802   23.6146 C   0  0  0  0  0  0  0  0  0  0  0  0
   12.1378   -4.6622   23.0306 Br  0  0  0  0  0  0  0  0  0  0  0  0
    4.7999   -8.7890   16.2682 C   0  0  0  0  0  0  0  0  0  0  0  0
    2.2949   -8.8341   16.9884 C   0  0  0  0  0  0  0  0  0  0  0  0
   11.9037   -2.4779   21.8916 N   0  0  0  0  0  0  0  0  0  0  0  0
    1.2379   -9.1440   17.1308 C   0  0  0  0  0  0  0  0  0  0  0  0
    3.4887   -9.5566   17.4411 C   0  0  0  0  0  0  0  0  0  0  0  0
    7.7395   -8.0160   16.2855 F   0  0  0  0  0  0  0  0  0  0  0  0
    7.1580   -6.9095   17.2551 Se  0  0  0  0  0  0  0  0  0  0  0  0
   11.8034   -5.5494   23.1259 O   0  0  0  0  0  0  0  0  0  0  0  0
    9.5773   -5.9442   19.3024 C   0  0  0  0  0  0  0  0  0  0  0  0
   12.0177   -4.3876   17.7116 C   0  0  0  0  0  0  0  0  0  0  0  0
   11.6913   -4.8636   20.7878 He  0  0  0  0  0  0  0  0  0  0  0  0
   11.8322   -2.6479   21.9829 He  0  0  0  0  0  0  0  0  0  0  0  0
   10.2352   -4.7561   16.3544 He  0  0  0  0  0  0  0  0  0  0  0  0
    7.8901   -8.2464   14.9243 He  0  0  0  0  0  0  0  0  0  0  0  0
    7.3476   -4.3618   15.8231 He  0  0  0  0  0  0  0  0  0  0  0  0
    6.4014   -8.4380   17.4806 He  0  0  0  0  0  0  0  0  0  0  0  0
    2.9713   -9.6181   14.3985 He  0  0  0  0  0  0  0  0  0  0  0  0
   11.2242   -5.0713   21.9611 He  0  0  0  0  0  0  0  0  0  0  0  0
  1  5  4  0
  1  6  2  0
  1  9  2  0
  1 17  2  0
  2  3  3  0
  2  4  2  0
  2  7  3  0
  2 16  2  0
  2 20  4  0
  3  5  2  0
  3 10  1  0
  3 11  3  0
  3 13  1  0
  3 16  1  0
  3 19  4  0
  4  6  2  0
  4 20  2  0
  4 21  2  0
  5 15  4  0
  5 21  2  0
  6  7  4  0
  6 16  4  0
  6 21  2  0
  7  8  2  0
  7 11  2  0
  7 13  1  0
  7 14  4  0
  7 16  1  0
  7 20  1  0
  7 21  4  0
  8 11  2  0
  8 16  2  0
  8 20  4  0
  8 21  3  0
  9 13  4  0
  9 16  2  0
  9 20  1  0
  9 21  2  0
 10 12  3  0
 10 14  1  0
 11 13  4  0
 11 14  4  0
 11 16  1  0
 11 18  4  0
 11 19  1  0
 11 21  4  0
 12 13  2  0
 12 14  4  0
 12 16  1  0
 12 19  3  0
 12 20  3  0
 12 21  4  0
 13 15  1  0
 13 20  3  0
 14 17  4  0
 14 19  2  0
 15 18  4  0
 15 21  2  0
 16 21  1  0
 17 19  3  0
 17 21  3  0
 18 19  2  0
 18 21  4  0
 19 21  2  0
M  END
$$$$

 Created by Python create_sdf_string function

 29 72  0  0  0  0  0  0  0  0999 V2000
   12.3638   -4.8135   21.0515 C   0  0  0  0  0  0  0  0  0  0  0  0
   11.2805   -3.6548   23.2027 C   0  0  0  0  0  0  0  0  0  0  0  0
    7.1574   -8.9080   15.0672 O   0  0  0  0  0  0  0  0  0  0  0  0
   10.3657   -6.1913   16.7737 N   0  0  0  0  0  0  0  0  0  0  0  0
   11.6679   -3.4810   21.8843 F   0  0  0  0  0  0  0  0  0  0  0  0
    9.3773   -3.6656   15.8477 N   0  0  0  0  0  0  0  0  0  0  0  0
    8.4093   -7.8890   15.5962 N   0  0  0  0  0  0  0  0  0  0  0  0
    8.7601   -6.1769   19.1947 C   0  0  0  0  0  0  0  0  0  0  0  0
    6.8301   -4.2572   15.9370 P   0  0  0  0  0  0  0  0  0  0  0  0
   10.6139   -4.7579   17.0907 O   0  0  0  0  0  0  0  0  0  0  0  0
    2.1294   -7.9249   15.9171 C   0  0  0  0  0  0  0  0  0  0  0  0
   10.3296   -4.0970   23.4110 O   0  0  0  0  0  0  0  0  0  0  0  0
    5.5620   -9.8715   17.4378 O   0  0  0  0  0  0  0  0  0  0  0  0
    2.2901   -8.0487   15.1328 I   0  0  0  0  0  0  0  0  0  0  0  0
    4.0111   -8.7730   17.1356 Cl  0  0  0  0  0  0  0  0  0  0  0  0
    1.7869   -9.4669   18.4089 C   0  0  0  0  0  0  0  0  0  0  0  0
   11.5602   -2.7464   21.2645 N   0  0  0  0  0  0  0  0  0  0  0  0
    1.7942   -9.5434   16.7268 N   0  0  0  0  0  0  0  0  0  0  0  0
    6.2869   -7.9732   17.0968 Cl  0  0  0  0  0  0  0  0  0  0  0  0
    9.5805   -4.3802   19.6273 F   0  0  0  0  0  0  0  0  0  0  0  0
   10.9734   -4.4009   17.0705 C   0  0  0  0  0  0  0  0  0  0  0  0
    7.1150   -4.6078   17.7295 He  0  0  0  0  0  0  0  0  0  0  0  0
   11.7186   -3.5370   17.3616 He  0  0  0  0  0  0  0  0  0  0  0  0
    9.7355   -7.3550   17.4124 He  0  0  0  0  0  0  0  0  0  0  0  0
   11.2820   -5.7945   23.0552 He  0  0  0  0  0  0  0  0  0  0  0  0
   10.8378   -4.1168   22.7839 He  0  0  0  0  0  0  0  0  0  0  0  0
    2.9084   -9.5828   15.7063 He  0  0  0  0  0  0  0  0  0  0  0  0
    6.7816   -6.5695   17.1232 He  0  0  0  0  0  0  0  0  0  0  0  0
   12.2318   -5.1942   23.1684 He  0  0  0  0  0  0  0  0  0  0  0  0
  1  3  2  0
  1  4  4  0
  1  6  2  0
  1 14  3  0
  1 16  4  0
  1 18  4  0
  2 11  2  0
  2 15  4  0
  2 16  3  0
  2 18  2  0
  2 19  1  0
  2 20  3  0
  2 21  4  0
  3  6  3  0
  3  9  4  0
  3 11  4  0
  3 12  3  0
  3 18  3  0
  3 20  2  0
  4  5  1  0
  4  6  1  0
  4  7  4  0
  4  9  2  0
  4 17  1  0
  4 19  2  0
  5  6  2  0
  5  7  4  0
  5  8  4  0
  5 11  3  0
  5 15  4  0
  5 18  1  0
  5 21  1  0
  6  7  2  0
  6 10  2  0
  6 16  1  0
  7  8  1  0
  7 10  3  0
  7 11  4  0
  7 12  1  0
  7 21  3  0
  8 12  3  0
  8 13  1  0
  8 17  1  0
  8 20  2  0
  9 12  1  0
  9 14  1  0
  9 16  3  0
  9 17  1  0
  9 18  4  0
 10 13  2  0
 10 16  2  0
 10 17  1  0
 10 19  3  0
 11 12  2  0
 11 14  4  0
 11 18  3  0
 12 16  4  0
 12 17  1  0
 12 20  3  0
 13 14  2  0
 13 15  3  0
 13 20  4  0
 13 21  4  0
 14 17  4  0
 14 18  3  0
 14 19  2  0
 14 21  4  0
 15 17  2  0
 15 20  2  0
 17 21  2  0
 18 21  2  0
 19 21  3  0
M  END
$$$$

 Created by Python create_sdf_string function

 29 60  0  0  0  0  0  0  0  0999 V2000
   11.5619   -3.3488   22.4654 C   0  0  0  0  0  0  0  0  0  0  0  0
    6.7446   -9.0117   14.2227 C   0  0  0  0  0  0  0  0  0  0  0  0
    7.7673   -6.5712   17.1284 C   0  0  0  0  0  0  0  0  0  0  0  0
    7.8678   -7.4643   18.6217 N   0  0  0  0  0  0  0  0  0  0  0  0
   11.5320   -3.9874   21.4535 N   0  0  0  0  0  0  0  0  0  0  0  0
    7.5353   -8.5351   15.8503 N   0  0  0  0  0  0  0  0  0  0  0  0
    9.4420   -5.6671   19.3519 C   0  0  0  0  0  0  0  0  0  0  0  0
    6.8359   -6.4421   15.4465 Cl  0  0  0  0  0  0  0  0  0  0  0  0
    8.5607   -7.3405   17.0873 C   0  0  0  0  0  0  0  0  0  0  0  0
   11.6141   -4.5603   23.0187 S   0  0  0  0  0  0  0  0  0  0  0  0
    2.7168   -9.0098   15.2179 C   0  0  0  0  0  0  0  0  0  0  0  0
    4.0437   -8.6089   16.8941 C   0  0  0  0  0  0  0  0  0  0  0  0
    3.0819   -9.9401   17.7353 O   0  0  0  0  0  0  0  0  0  0  0  0
    9.7640   -3.9418   21.5882 F   0  0  0  0  0  0  0  0  0  0  0  0
    3.0790   -9.2554   16.7358 C   0  0  0  0  0  0  0  0  0  0  0  0
    5.8967   -7.5805   17.0026 I   0  0  0  0  0  0  0  0  0  0  0  0
    6.1788   -8.7529   17.6961 C   0  0  0  0  0  0  0  0  0  0  0  0
   11.3444   -5.3247   23.0264 P   0  0  0  0  0  0  0  0  0  0  0  0
    9.9532   -4.2853   19.0457 N   0  0  0  0  0  0  0  0  0  0  0  0
   12.1996   -4.8256   18.5489 C   0  0  0  0  0  0  0  0  0  0  0  0
   11.8459   -4.9007   21.7829 He  0  0  0  0  0  0  0  0  0  0  0  0
    9.8846   -4.3634   16.2927 He  0  0  0  0  0  0  0  0  0  0  0  0
    9.9609   -4.0158   18.0727 He  0  0  0  0  0  0  0  0  0  0  0  0
    9.9420   -5.1060   15.5023 He  0  0  0  0  0  0  0  0  0  0  0  0
    1.6255   -9.6088   16.5156 He  0  0  0  0  0  0  0  0  0  0  0  0
   11.1516   -2.1771   23.4649 He  0  0  0  0  0  0  0  0  0  0  0  0
    6.2689   -9.0515   16.1181 He  0  0  0  0  0  0  0  0  0  0  0  0
   10.9191   -3.5083   21.6215 He  0  0  0  0  0  0  0  0  0  0  0  0
    0.8668   -9.8598   16.5734 He  0  0  0  0  0  0  0  0  0  0  0  0
  1  2  2  0
  1  3  2  0
  1  4  1  0
  1  6  1  0
  1  8  1  0
  1 12  4  0
  1 13  1  0
  1 14  1  0
  1 15  3  0
  1 18  4  0
  1 20  2  0
  2  3  1  0
  2  4  4  0
  2  5  3  0
  2  6  3  0
  2  7  3  0
  2 10  2  0
  2 13  2  0
  2 16  4  0
  2 17  2  0
  2 20  1  0
  3  7  1  0
  3  9  4  0
  3 10  1  0
  3 18  4  0
  4  5  1  0
  4  6  3  0
  4  7  3  0
  4  8  4  0
  4 13  2  0
  4 14  1  0
  4 16  2  0
  5 14  3  0
  5 15  3  0
  5 20  1  0
  6  7  2  0
  6 11  3  0
  6 20  4  0
  7  9  3  0
  7 19  4  0
  7 20  2  0
  8 16  3  0
  8 20  4  0
  9 11  3  0
  9 16  3  0
  9 18  4  0
  9 19  3  0
  9 20  2  0
 10 11  4  0
 10 15  1  0
 10 18  2  0
 10 20  4  0
 11 16  3  0
 13 17  3  0
 13 19  4  0
 14 20  4  0
 16 17  3  0
 17 20  3  0
 18 20  4  0
 19 20  2  0
M  END
$$$$

 Created by Python create_sdf_string function

 29 57  0  0  0  0  0  0  0  0999 V2000
   11.6286   -6.2448   21.1637 C   0  0  0  0  0  0  0  0  0  0  0  0
    6.3544   -8.2643   14.7239 C   0  0  0  0  0  0  0  0  0  0  0  0
    8.1615   -6.6953   17.7706 F   0  0  0  0  0  0  0  0  0  0  0  0
    8.1338   -7.3601   19.2863 C   0  0  0  0  0  0  0  0  0  0  0  0
   11.0866   -3.5597   16.5926 C   0  0  0  0  0  0  0  0  0  0  0  0
   11.9311   -4.7658   17.6157 F   0  0  0  0  0  0  0  0  0  0  0  0
    8.5016   -6.2878   16.4177 O   0  0  0  0  0  0  0  0  0  0  0  0
    8.1670   -6.8254   17.5695 C   0  0  0  0  0  0  0  0  0  0  0  0
    1.6292   -8.1494   16.7304 Cl  0  0  0  0  0  0  0  0  0  0  0  0
   11.9301   -2.2369   23.5962 O   0  0  0  0  0  0  0  0  0  0  0  0
    5.5813   -8.4237   15.3933 F   0  0  0  0  0  0  0  0  0  0  0  0
    1.9759   -9.0515   14.8249 N   0  0  0  0  0  0  0  0  0  0  0  0
    4.3494   -8.1900   16.7984 C   0  0  0  0  0  0  0  0  0  0  0  0
    2.6411   -8.4191   18.4572 I   0  0  0  0  0  0  0  0  0  0  0  0
   10.0399   -3.2414   21.4771 C   0  0  0  0  0  0  0  0  0  0  0  0
    1.8215  -10.8858   16.8397 C   0  0  0  0  0  0  0  0  0  0  0  0
    4.6282   -7.7677   18.0758 P   0  0  0  0  0  0  0  0  0  0  0  0
   12.6067   -4.8807   23.5292 O   0  0  0  0  0  0  0  0  0  0  0  0
   10.1154   -4.2159   18.4868 N   0  0  0  0  0  0  0  0  0  0  0  0
   10.3876   -2.1438   23.1379 He  0  0  0  0  0  0  0  0  0  0  0  0
   11.9047   -5.8406   22.0291 He  0  0  0  0  0  0  0  0  0  0  0  0
    9.0676   -7.4093   16.3780 He  0  0  0  0  0  0  0  0  0  0  0  0
    9.8245   -6.1499   19.0983 He  0  0  0  0  0  0  0  0  0  0  0  0
    8.4646   -5.9939   17.5537 He  0  0  0  0  0  0  0  0  0  0  0  0
   11.6697   -5.6266   22.9006 He  0  0  0  0  0  0  0  0  0  0  0  0
    9.6861   -2.9824   22.8550 He  0  0  0  0  0  0  0  0  0  0  0  0
    3.2774   -9.0302   16.3694 He  0  0  0  0  0  0  0  0  0  0  0  0
    5.8401   -7.8926   16.8381 He  0  0  0  0  0  0  0  0  0  0  0  0
   11.4659   -4.8478   20.0861 He  0  0  0  0  0  0  0  0  0  0  0  0
  1  5  4  0
  1  9  1  0
  1 12  4  0
  1 14  2  0
  1 15  3  0
  2  8  3  0
  2 10  2  0
  2 11  2  0
  2 15  2  0
  2 17  3  0
  3 11  3  0
  3 12  4  0
  3 17  1  0
  4  7  2  0
  4  8  3  0
  4 10  3  0
  4 17  2  0
  4 18  2  0
  4 19  2  0
  5  6  4  0
  5  7  1  0
  5  8  4  0
  5 12  4  0
  5 16  1  0
  5 17  4  0
  6 10  3  0
  6 12  2  0
  6 13  3  0
  6 14  3  0
  6 15  3  0
  6 17  2  0
  6 18  1  0
  7 11  4  0
  7 15  2  0
  7 17  3  0
  7 19  1  0
  8 13  4  0
  8 14  3  0
  8 15  4  0
  8 17  4  0
  9 13  4  0
  9 16  4  0
 10 15  1  0
 10 16  1  0
 10 17  1  0
 10 18  1  0
 11 12  1  0
 11 13  2  0
 11 14  2  0
 11 16  2  0
 11 17  4  0
 11 19  2  0
 12 13  4  0
 12 16  4  0
 14 17  4  0
 15 19  3  0
 17 18  1  0
M  END
$$$$

 Created by Python create_sdf_string function

 29 68  0  0  0  0  0  0  0  0999 V2000
   10.7032   -5.3826   20.0703 C   0  0  0  0  0  0  0  0  0  0  0  0
    7.9524   -8.8889   14.8536 N   0  0  0  0  0  0  0  0  0  0  0  0
    8.9699   -7.3084   17.4615 O   0  0  0  0  0  0  0  0  0  0  0  0
    9.0026   -7.7605   18.1873 C   0  0  0  0  0  0  0  0  0  0  0  0
   12.3133   -5.7350   20.8540 C   0  0  0  0  0  0  0  0  0  0  0  0
   11.3187   -3.6095   16.5288 C   0  0  0  0  0  0  0  0  0  0  0  0
    8.2056   -7.5450   15.6799 C   0  0  0  0  0  0  0  0  0  0  0  0
   10.9875   -5.1490   20.2415 O   0  0  0  0  0  0  0  0  0  0  0  0
   11.4346   -4.9749   16.4681 C   0  0  0  0  0  0  0  0  0  0  0  0
    8.8221   -6.5892   16.2675 C   0  0  0  0  0  0  0  0  0  0  0  0
    2.1462   -9.4493   16.7128 Cl  0  0  0  0  0  0  0  0  0  0  0  0
   12.1587   -3.4356   24.8356 O   0  0  0  0  0  0  0  0  0  0  0  0
    3.0887   -8.4379   15.6720 O   0  0  0  0  0  0  0  0  0  0  0  0
    1.2274   -9.3657   18.0250 C   0  0  0  0  0  0  0  0  0  0  0  0
    9.8370   -2.9100   22.8472 F   0  0  0  0  0  0  0  0  0  0  0  0
    6.3831   -8.0904   17.1463 Cl  0  0  0  0  0  0  0  0  0  0  0  0
    5.5626   -9.8722   17.0021 O   0  0  0  0  0  0  0  0  0  0  0  0
   11.3795   -4.8289   23.0504 O   0  0  0  0  0  0  0  0  0  0  0  0
   11.6279   -2.5803   18.1296 N   0  0  0  0  0  0  0  0  0  0  0  0
   10.9255   -4.8054   19.4634 C   0  0  0  0  0  0  0  0  0  0  0  0
    9.8931   -3.2697   23.1062 He  0  0  0  0  0  0  0  0  0  0  0  0
    8.6891   -7.8838   16.6447 He  0  0  0  0  0  0  0  0  0  0  0  0
    9.1844   -5.2348   17.2705 He  0  0  0  0  0  0  0  0  0  0  0  0
    6.0666   -8.8848   15.3096 He  0  0  0  0  0  0  0  0  0  0  0  0
   11.3054   -5.5219   24.2554 He  0  0  0  0  0  0  0  0  0  0  0  0
    1.0567   -9.0497   15.8353 He  0  0  0  0  0  0  0  0  0  0  0  0
   11.0010   -3.7593   22.4296 He  0  0  0  0  0  0  0  0  0  0  0  0
   -0.3829   -9.7599   16.3826 He  0  0  0  0  0  0  0  0  0  0  0  0
    3.5091   -8.4940   15.7508 He  0  0  0  0  0  0  0  0  0  0  0  0
  1  2  1  0
  1  3  2  0
  1  5  4  0
  1  7  4  0
  1  9  1  0
  1 10  2  0
  1 13  2  0
  1 14  4  0
  2  7  3  0
  2  9  3  0
  2 11  1  0
  2 17  4  0
  2 19  4  0
  3  5  2  0
  3  6  4  0
  3  8  1  0
  3  9  2  0
  3 11  3  0
  3 13  3  0
  4  8  4  0
  4  9  4  0
  4 11  4  0
  4 12  3  0
  4 17  1  0
  4 19  1  0
  4 20  3  0
  5  6  4  0
  5 19  4  0
  6  8  3  0
  6  9  4  0
  6 11  3  0
  6 14  1  0
  6 15  2  0
  6 16  3  0
  7 16  3  0
  7 20  4  0
  8  9  1  0
  8 12  1  0
  8 19  2  0
  8 20  4  0
  9 12  1  0
  9 15  2  0
  9 16  4  0
  9 19  4  0
  9 20  3  0
 10 12  1  0
 10 14  1  0
 10 15  4  0
 10 16  2  0
 10 17  1  0
 10 18  1  0
 10 19  2  0
 10 20  1  0
 11 14  3  0
 11 15  2  0
 11 20  3  0
 12 13  3  0
 13 14  1  0
 13 18  2  0
 13 20  4  0
 14 15  3  0
 14 19  3  0
 16 19  4  0
 17 19  1  0
 17 20  1  0
 18 19  2  0
 18 20  1  0
 19 20  1  0
M  END
$$$$

 Created by Python create_sdf_string function

 29 54  0  0  0  0  0  0  0  0999 V2000
   10.0021   -5.2530   19.3669 O   0  0  0  0  0  0  0  0  0  0  0  0
    6.9654   -8.2275   15.5130 S   0  0  0  0  0  0  0  0  0  0  0  0
    7.9972   -8.5676   15.3039 C   0  0  0  0  0  0  0  0  0  0  0  0
   10.4390   -4.0079   20.2690 C   0  0  0  0  0  0  0  0  0  0  0  0
   11.2817   -4.8322   15.8956 N   0  0  0  0  0  0  0  0  0  0  0  0
    8.7932   -6.6858   15.6183 N   0  0  0  0  0  0  0  0  0  0  0  0
   10.2119   -3.9814   16.6888 C   0  0  0  0  0  0  0  0  0  0  0  0
    4.0437   -8.2772   16.8025 C   0  0  0  0  0  0  0  0  0  0  0  0
   12.1481   -4.4095   24.7693 O   0  0  0  0  0  0  0  0  0  0  0  0
    6.0529   -8.1540   16.7133 C   0  0  0  0  0  0  0  0  0  0  0  0
    1.7937   -9.6214   15.3644 F   0  0  0  0  0  0  0  0  0  0  0  0
    1.9821   -9.0193   16.9869 O   0  0  0  0  0  0  0  0  0  0  0  0
   10.2294   -3.1868   21.9576 C   0  0  0  0  0  0  0  0  0  0  0  0
   11.6084   -2.2804   23.0872 S   0  0  0  0  0  0  0  0  0  0  0  0
   -0.9740   -9.3842   17.3201 F   0  0  0  0  0  0  0  0  0  0  0  0
    3.3718   -9.0713   16.3313 F   0  0  0  0  0  0  0  0  0  0  0  0
    4.4019   -8.7597   17.0745 C   0  0  0  0  0  0  0  0  0  0  0  0
   11.6520   -4.6889   23.2936 Cl  0  0  0  0  0  0  0  0  0  0  0  0
   11.1148   -3.4124   18.1061 N   0  0  0  0  0  0  0  0  0  0  0  0
   10.7602   -5.1738   19.9803 C   0  0  0  0  0  0  0  0  0  0  0  0
   11.1451   -3.6624   24.0218 He  0  0  0  0  0  0  0  0  0  0  0  0
    8.8650   -6.1184   17.4884 He  0  0  0  0  0  0  0  0  0  0  0  0
    8.7319   -6.4911   18.0976 He  0  0  0  0  0  0  0  0  0  0  0  0
   11.7257   -4.6988   20.8493 He  0  0  0  0  0  0  0  0  0  0  0  0
   10.6367   -3.0927   15.4608 He  0  0  0  0  0  0  0  0  0  0  0  0
    7.8967   -7.3087   18.0638 He  0  0  0  0  0  0  0  0  0  0  0  0
   12.1591   -5.8405   23.7657 He  0  0  0  0  0  0  0  0  0  0  0  0
    2.5911   -8.8628   15.7827 He  0  0  0  0  0  0  0  0  0  0  0  0
    5.4984   -8.0318   15.8476 He  0  0  0  0  0  0  0  0  0  0  0  0
  1 10  4  0
  1 19  2  0
  1 20  4  0
  2  3  4  0
  2  4  3  0
  2  5  1  0
  2  8  3  0
  2 10  1  0
  2 13  3  0
  2 14  2  0
  2 16  2  0
  2 20  3  0
  3 14  1  0
  3 16  3  0
  3 17  4  0
  3 19  4  0
  4  5  4  0
  4  7  2  0
  4  9  1  0
  4 10  4  0
  4 16  3  0
  4 19  1  0
  4 20  1  0
  5  7  3  0
  5  8  1  0
  6 17  1  0
  6 18  3  0
  7  8  4  0
  7  9  1  0
  7 10  4  0
  7 11  3  0
  7 14  2  0
  7 17  1  0
  8 13  1  0
  8 14  2  0
  8 16  3  0
  8 19  4  0
  9 10  4  0
  9 12  1  0
  9 16  2  0
  9 17  3  0
 10 16  2  0
 10 19  2  0
 11 15  4  0
 11 18  1  0
 12 15  4  0
 12 16  1  0
 13 14  4  0
 13 16  1  0
 13 20  1  0
 14 15  3  0
 14 19  3  0
 16 20  2  0
 18 19  1  0
M  END
$$$$

 Created by Python create_sdf_string function

 29 87  0  0  0  0  0  0  0  0999 V2000
    6.9978   -8.0781   16.1098 O   0  0  0  0  0  0  0  0  0  0  0  0
    9.5802   -6.5081   18.1903 C   0  0  0  0  0  0  0  0  0  0  0  0
   10.0202   -6.1758   18.1707 C   0  0  0  0  0  0  0  0  0  0  0  0
    9.9649   -5.6214   21.2875 S   0  0  0  0  0  0  0  0  0  0  0  0
   10.9303   -3.7019   15.1847 C   0  0  0  0  0  0  0  0  0  0  0  0
   11.4450   -4.4862   19.5811 C   0  0  0  0  0  0  0  0  0  0  0  0
   11.8006   -4.0036   16.5587 P   0  0  0  0  0  0  0  0  0  0  0  0
    8.6970   -6.7625   15.3190 C   0  0  0  0  0  0  0  0  0  0  0  0
    8.0335   -8.2020   18.1075 C   0  0  0  0  0  0  0  0  0  0  0  0
   10.7378   -3.1037   17.7130 P   0  0  0  0  0  0  0  0  0  0  0  0
    3.2265   -7.9686   16.8973 P   0  0  0  0  0  0  0  0  0  0  0  0
   12.0477   -4.0241   25.0687 O   0  0  0  0  0  0  0  0  0  0  0  0
    5.9254   -8.1606   16.1258 Br  0  0  0  0  0  0  0  0  0  0  0  0
   11.7891   -4.7431   23.5255 F   0  0  0  0  0  0  0  0  0  0  0  0
    0.6249   -9.1767   16.0754 C   0  0  0  0  0  0  0  0  0  0  0  0
    2.6284   -8.6137   15.4932 Cl  0  0  0  0  0  0  0  0  0  0  0  0
    1.4749   -8.6525   17.0950 F   0  0  0  0  0  0  0  0  0  0  0  0
    9.4918   -3.9111   23.4504 C   0  0  0  0  0  0  0  0  0  0  0  0
    0.6376   -9.6917   16.8623 N   0  0  0  0  0  0  0  0  0  0  0  0
    4.3648   -8.3776   15.6131 C   0  0  0  0  0  0  0  0  0  0  0  0
    4.6579   -8.6276   17.5412 C   0  0  0  0  0  0  0  0  0  0  0  0
   12.1124   -5.0344   23.7625 C   0  0  0  0  0  0  0  0  0  0  0  0
   12.3935   -3.2349   19.1021 C   0  0  0  0  0  0  0  0  0  0  0  0
   10.4325   -4.8047   18.1086 He  0  0  0  0  0  0  0  0  0  0  0  0
   12.1155   -4.0319   23.4668 He  0  0  0  0  0  0  0  0  0  0  0  0
    7.6050   -7.5451   16.5062 He  0  0  0  0  0  0  0  0  0  0  0  0
   11.6136   -3.1315   23.2284 He  0  0  0  0  0  0  0  0  0  0  0  0
    5.3614   -7.4154   14.5606 He  0  0  0  0  0  0  0  0  0  0  0  0
   10.5306   -4.8366   19.6293 He  0  0  0  0  0  0  0  0  0  0  0  0
  1  2  1  0
  1  3  4  0
  1  5  4  0
  1  6  2  0
  1  8  1  0
  1  9  3  0
  1 11  2  0
  1 12  4  0
  1 13  1  0
  1 16  4  0
  1 20  1  0
  1 21  1  0
  1 23  1  0
  2  3  4  0
  2  5  1  0
  2  9  4  0
  2 11  4  0
  2 14  2  0
  2 15  4  0
  2 17  4  0
  2 18  4  0
  2 21  4  0
  2 22  4  0
  3  6  4  0
  3  7  2  0
  3 11  1  0
  3 12  2  0
  3 22  1  0
  3 23  1  0
  4  5  4  0
  4 21  4  0
  4 22  3  0
  5  7  1  0
  5  8  1  0
  5 10  2  0
  5 13  3  0
  5 15  2  0
  5 16  2  0
  5 17  3  0
  5 19  1  0
  5 21  2  0
  6 10  2  0
  6 13  3  0
  6 16  2  0
  6 17  1  0
  7  8  2  0
  7 18  3  0
  7 19  2  0
  7 21  3  0
  7 23  2  0
  8 13  2  0
  8 16  2  0
  8 20  4  0
  8 22  3  0
  9 18  4  0
  9 20  3  0
  9 23  4  0
 10 16  1  0
 10 17  1  0
 10 18  4  0
 10 20  3  0
 10 22  2  0
 11 12  1  0
 11 13  1  0
 11 20  4  0
 12 15  2  0
 12 17  1  0
 12 21  4  0
 12 23  1  0
 13 14  3  0
 13 17  3  0
 13 20  2  0
 13 21  2  0
 14 15  2  0
 14 19  1  0
 15 16  4  0
 15 17  2  0
 16 20  1  0
 16 23  4  0
 17 19  4  0
 17 20  1  0
 17 23  2  0
 18 20  2  0
 19 21  2  0
 20 21  1  0
 20 22  3  0
 21 22  4  0
M  END
$$$$

 Created by Python create_sdf_string function

 29 37  0  0  0  0  0  0  0  0999 V2000
   10.6580   -4.9350   18.8032 C   0  0  0  0  0  0  0  0  0  0  0  0
   10.5634   -5.5488   23.8311 S   0  0  0  0  0  0  0  0  0  0  0  0
    7.7160   -8.2889   16.8664 C   0  0  0  0  0  0  0  0  0  0  0  0
    9.1109   -6.8152   18.6735 I   0  0  0  0  0  0  0  0  0  0  0  0
    9.2523   -7.3694   18.0623 C   0  0  0  0  0  0  0  0  0  0  0  0
   10.8726   -4.1807   21.8753 Cl  0  0  0  0  0  0  0  0  0  0  0  0
   11.4969   -4.0919   16.6369 C   0  0  0  0  0  0  0  0  0  0  0  0
    5.6739   -7.8670   17.1842 C   0  0  0  0  0  0  0  0  0  0  0  0
   11.4955   -3.5787   22.4813 N   0  0  0  0  0  0  0  0  0  0  0  0
    1.6278   -9.5998   15.3899 N   0  0  0  0  0  0  0  0  0  0  0  0
    2.7228   -8.8689   15.8911 C   0  0  0  0  0  0  0  0  0  0  0  0
    2.3174   -8.6574   17.2677 C   0  0  0  0  0  0  0  0  0  0  0  0
   10.5206   -3.0624   22.9805 C   0  0  0  0  0  0  0  0  0  0  0  0
    9.8615   -4.2193   22.6347 S   0  0  0  0  0  0  0  0  0  0  0  0
    5.5731   -7.2978   14.6634 C   0  0  0  0  0  0  0  0  0  0  0  0
    5.5329   -8.7777   16.0666 C   0  0  0  0  0  0  0  0  0  0  0  0
    7.2580   -7.9286   17.1824 He  0  0  0  0  0  0  0  0  0  0  0  0
   10.1433   -5.7101   19.1448 He  0  0  0  0  0  0  0  0  0  0  0  0
   10.3938   -3.2716   15.9187 He  0  0  0  0  0  0  0  0  0  0  0  0
    8.5083   -6.9191   16.1140 He  0  0  0  0  0  0  0  0  0  0  0  0
    9.2938   -8.0603   17.8067 He  0  0  0  0  0  0  0  0  0  0  0  0
   10.8231   -3.8195   18.1230 He  0  0  0  0  0  0  0  0  0  0  0  0
    4.2298   -9.4553   17.3822 He  0  0  0  0  0  0  0  0  0  0  0  0
   12.4930   -2.4465   25.7209 He  0  0  0  0  0  0  0  0  0  0  0  0
    0.8393   -9.4090   16.0796 He  0  0  0  0  0  0  0  0  0  0  0  0
    3.4727   -7.5831   15.9953 He  0  0  0  0  0  0  0  0  0  0  0  0
   10.7854   -4.7222   25.3905 He  0  0  0  0  0  0  0  0  0  0  0  0
   11.5298   -3.8828   18.3496 He  0  0  0  0  0  0  0  0  0  0  0  0
   11.2439   -4.4326   19.2451 He  0  0  0  0  0  0  0  0  0  0  0  0
  1  3  1  0
  1  8  3  0
  1  9  2  0
  1 14  1  0
  1 15  2  0
  1 16  2  0
  2  9  3  0
  3  4  4  0
  3 10  4  0
  3 15  3  0
  4  5  4  0
  4  7  1  0
  4  8  3  0
  4 11  1  0
  4 12  3  0
  4 13  1  0
  5 10  2  0
  5 13  1  0
  5 14  3  0
  6 15  1  0
  7  9  4  0
  7 13  3  0
  7 14  1  0
  7 16  1  0
  8  9  2  0
  8 15  4  0
  8 16  4  0
  9 11  2  0
  9 14  2  0
  9 15  4  0
 10 11  4  0
 10 15  4  0
 10 16  2  0
 12 14  4  0
 12 16  4  0
 13 14  4  0
 13 15  1  0
M  END
$$$$

 Created by Python create_sdf_string function

 29 49  0  0  0  0  0  0  0  0999 V2000
   10.7734   -4.9508   22.7603 C   0  0  0  0  0  0  0  0  0  0  0  0
    8.0260   -7.5328   16.7014 P   0  0  0  0  0  0  0  0  0  0  0  0
    7.7761   -5.8337   18.2843 C   0  0  0  0  0  0  0  0  0  0  0  0
    9.2980   -7.3681   18.0950 C   0  0  0  0  0  0  0  0  0  0  0  0
   11.7521   -3.7674   21.6673 F   0  0  0  0  0  0  0  0  0  0  0  0
   11.3832   -3.5351   16.9795 C   0  0  0  0  0  0  0  0  0  0  0  0
    6.5732   -8.5210   16.2330 C   0  0  0  0  0  0  0  0  0  0  0  0
    9.7289   -6.4149   20.0483 C   0  0  0  0  0  0  0  0  0  0  0  0
    7.9440   -6.7864   15.3207 F   0  0  0  0  0  0  0  0  0  0  0  0
    9.0577   -8.0080   17.4025 I   0  0  0  0  0  0  0  0  0  0  0  0
    4.2055   -8.7799   17.9617 Se  0  0  0  0  0  0  0  0  0  0  0  0
   12.0635   -4.3415   22.2930 C   0  0  0  0  0  0  0  0  0  0  0  0
    1.1663   -8.7701   14.1466 N   0  0  0  0  0  0  0  0  0  0  0  0
    3.1950   -8.9436   17.1543 C   0  0  0  0  0  0  0  0  0  0  0  0
    2.2271  -10.2915   16.1351 C   0  0  0  0  0  0  0  0  0  0  0  0
   11.0272   -2.6812   23.2682 C   0  0  0  0  0  0  0  0  0  0  0  0
    1.0374   -9.6767   15.7680 O   0  0  0  0  0  0  0  0  0  0  0  0
    3.9309   -8.1023   16.3295 C   0  0  0  0  0  0  0  0  0  0  0  0
    4.7544   -8.1680   17.0751 C   0  0  0  0  0  0  0  0  0  0  0  0
   11.6438   -3.1957   19.0159 Cl  0  0  0  0  0  0  0  0  0  0  0  0
   11.0212   -4.5604   18.1721 He  0  0  0  0  0  0  0  0  0  0  0  0
   10.3001   -4.1679   15.7296 He  0  0  0  0  0  0  0  0  0  0  0  0
   10.9331   -3.3396   19.0921 He  0  0  0  0  0  0  0  0  0  0  0  0
    3.5860   -9.0762   17.5257 He  0  0  0  0  0  0  0  0  0  0  0  0
   11.0148   -3.4030   24.7674 He  0  0  0  0  0  0  0  0  0  0  0  0
   10.7544   -2.9130   24.1698 He  0  0  0  0  0  0  0  0  0  0  0  0
    6.3560   -8.6488   14.2990 He  0  0  0  0  0  0  0  0  0  0  0  0
   10.9992   -4.3338   25.5329 He  0  0  0  0  0  0  0  0  0  0  0  0
   11.0703   -5.0053   20.9533 He  0  0  0  0  0  0  0  0  0  0  0  0
  1  2  3  0
  1  3  2  0
  1  6  1  0
  1 10  1  0
  1 20  4  0
  2  5  2  0
  2  8  2  0
  2 11  4  0
  2 12  1  0
  2 15  4  0
  2 16  3  0
  2 18  3  0
  3  4  3  0
  3  7  4  0
  3  9  4  0
  3 10  4  0
  3 12  4  0
  3 17  4  0
  4 12  1  0
  4 13  3  0
  4 20  3  0
  5  6  3  0
  5 10  1  0
  5 12  4  0
  5 15  3  0
  5 16  3  0
  5 19  1  0
  6  8  2  0
  6 10  4  0
  6 13  3  0
  6 14  1  0
  6 15  3  0
  7  8  2  0
  7 14  2  0
  7 17  2  0
  8 10  3  0
  9 20  3  0
 10 11  2  0
 10 13  4  0
 11 12  4  0
 11 15  2  0
 11 19  3  0
 12 16  1  0
 12 19  4  0
 13 14  2  0
 13 20  2  0
 14 16  1  0
 14 19  3  0
 16 17  1  0
M  END
$$$$

 Created by Python create_sdf_string function

 29 72  0  0  0  0  0  0  0  0999 V2000
   11.0639   -5.7932   17.9518 C   0  0  0  0  0  0  0  0  0  0  0  0
   11.6367   -3.9305   23.1558 C   0  0  0  0  0  0  0  0  0  0  0  0
    9.5050   -7.5159   18.1494 F   0  0  0  0  0  0  0  0  0  0  0  0
   10.6107   -3.7091   21.6367 C   0  0  0  0  0  0  0  0  0  0  0  0
   12.1931   -3.3930   17.4964 C   0  0  0  0  0  0  0  0  0  0  0  0
    9.2975   -5.2170   19.9077 C   0  0  0  0  0  0  0  0  0  0  0  0
    9.3358   -4.1056   15.8539 C   0  0  0  0  0  0  0  0  0  0  0  0
    6.5814   -6.3308   15.7866 F   0  0  0  0  0  0  0  0  0  0  0  0
    8.7173   -8.4094   18.8761 C   0  0  0  0  0  0  0  0  0  0  0  0
    9.9512   -4.0959   20.2880 C   0  0  0  0  0  0  0  0  0  0  0  0
    3.8835   -9.6244   16.3629 C   0  0  0  0  0  0  0  0  0  0  0  0
    4.0757   -9.0444   17.8419 C   0  0  0  0  0  0  0  0  0  0  0  0
   12.4078   -4.3316   22.6104 C   0  0  0  0  0  0  0  0  0  0  0  0
    2.6514   -9.2478   16.4319 C   0  0  0  0  0  0  0  0  0  0  0  0
    2.5332   -8.7312   15.5008 F   0  0  0  0  0  0  0  0  0  0  0  0
   11.4527   -1.8818   25.0637 C   0  0  0  0  0  0  0  0  0  0  0  0
    1.6351  -10.4630   16.3007 C   0  0  0  0  0  0  0  0  0  0  0  0
    3.9215   -9.5803   15.5302 F   0  0  0  0  0  0  0  0  0  0  0  0
    5.8521   -7.7023   14.5444 S   0  0  0  0  0  0  0  0  0  0  0  0
    5.5354   -9.4358   16.5800 P   0  0  0  0  0  0  0  0  0  0  0  0
   10.9137   -3.4337   19.6538 N   0  0  0  0  0  0  0  0  0  0  0  0
   11.7929   -5.8501   20.8077 C   0  0  0  0  0  0  0  0  0  0  0  0
    7.8213   -6.9074   16.1587 He  0  0  0  0  0  0  0  0  0  0  0  0
    8.0936   -7.3328   17.6830 He  0  0  0  0  0  0  0  0  0  0  0  0
    7.1825   -7.9036   17.5139 He  0  0  0  0  0  0  0  0  0  0  0  0
    9.2832   -3.6650   25.6765 He  0  0  0  0  0  0  0  0  0  0  0  0
    2.1555   -8.8356   13.9371 He  0  0  0  0  0  0  0  0  0  0  0  0
   13.0935   -3.1009   24.2075 He  0  0  0  0  0  0  0  0  0  0  0  0
   10.9633   -4.7489   24.4208 He  0  0  0  0  0  0  0  0  0  0  0  0
  1  6  3  0
  1  8  2  0
  1  9  4  0
  1 10  3  0
  1 13  1  0
  1 20  4  0
  1 22  2  0
  2  5  1  0
  2 13  4  0
  3 10  4  0
  3 11  2  0
  3 12  3  0
  3 13  3  0
  3 17  4  0
  3 21  2  0
  4 13  4  0
  4 18  2  0
  4 20  1  0
  4 22  2  0
  5  6  4  0
  5  7  3  0
  5 14  3  0
  5 17  4  0
  5 20  3  0
  6  7  4  0
  6 11  3  0
  6 12  3  0
  6 14  4  0
  6 18  4  0
  7  9  1  0
  7 16  2  0
  8  9  1  0
  8 10  4  0
  8 15  3  0
  8 16  4  0
  8 18  2  0
  8 21  2  0
  9 10  4  0
  9 12  4  0
  9 13  1  0
  9 14  2  0
  9 20  4  0
  9 21  3  0
 10 11  4  0
 10 14  2  0
 10 15  4  0
 10 16  2  0
 10 18  3  0
 10 22  1  0
 11 12  3  0
 11 15  4  0
 11 17  1  0
 11 20  1  0
 12 14  4  0
 12 15  1  0
 12 16  3  0
 12 20  4  0
 12 22  4  0
 13 18  2  0
 13 20  2  0
 14 17  3  0
 14 18  4  0
 14 22  3  0
 15 19  3  0
 15 21  2  0
 16 19  4  0
 16 20  3  0
 17 18  4  0
 18 20  2  0
 18 21  1  0
 19 20  3  0
 19 21  4  0
M  END
$$$$

 Created by Python create_sdf_string function

 29 62  0  0  0  0  0  0  0  0999 V2000
   10.5646   -3.8431   24.1435 C   0  0  0  0  0  0  0  0  0  0  0  0
    8.4736   -5.7492   16.4541 S   0  0  0  0  0  0  0  0  0  0  0  0
    9.5117   -7.5963   17.5086 C   0  0  0  0  0  0  0  0  0  0  0  0
    9.8400   -4.5722   16.6435 C   0  0  0  0  0  0  0  0  0  0  0  0
    6.8302   -7.0274   16.6730 C   0  0  0  0  0  0  0  0  0  0  0  0
   10.4833   -5.5927   18.5900 C   0  0  0  0  0  0  0  0  0  0  0  0
    9.8623   -4.2366   17.0429 O   0  0  0  0  0  0  0  0  0  0  0  0
    7.0394   -6.5568   16.7306 C   0  0  0  0  0  0  0  0  0  0  0  0
    8.8581   -7.4365   17.2158 C   0  0  0  0  0  0  0  0  0  0  0  0
   11.0589   -3.9206   20.0686 C   0  0  0  0  0  0  0  0  0  0  0  0
    3.9859   -8.1012   17.3609 C   0  0  0  0  0  0  0  0  0  0  0  0
    3.7541   -8.5323   17.7809 S   0  0  0  0  0  0  0  0  0  0  0  0
   11.7122   -4.1873   23.1988 C   0  0  0  0  0  0  0  0  0  0  0  0
    3.2811   -8.7125   15.7671 O   0  0  0  0  0  0  0  0  0  0  0  0
   11.2216   -2.8313   25.9839 C   0  0  0  0  0  0  0  0  0  0  0  0
   10.5008   -1.4152   24.7265 N   0  0  0  0  0  0  0  0  0  0  0  0
    2.1923  -10.6806   16.7476 C   0  0  0  0  0  0  0  0  0  0  0  0
    3.0943   -8.7833   15.2750 C   0  0  0  0  0  0  0  0  0  0  0  0
   11.8059   -5.3439   23.8073 C   0  0  0  0  0  0  0  0  0  0  0  0
   11.1923   -4.5246   20.0680 N   0  0  0  0  0  0  0  0  0  0  0  0
   11.3507   -4.8961   20.4460 C   0  0  0  0  0  0  0  0  0  0  0  0
   10.2786   -5.0997   17.6104 He  0  0  0  0  0  0  0  0  0  0  0  0
    7.4452   -6.6687   16.5386 He  0  0  0  0  0  0  0  0  0  0  0  0
   10.7540   -3.1035   22.4099 He  0  0  0  0  0  0  0  0  0  0  0  0
    9.3035   -3.6749   24.7584 He  0  0  0  0  0  0  0  0  0  0  0  0
    2.4513   -9.2744   17.7514 He  0  0  0  0  0  0  0  0  0  0  0  0
    1.6981   -7.8354   15.4879 He  0  0  0  0  0  0  0  0  0  0  0  0
    6.0868   -7.6319   15.7005 He  0  0  0  0  0  0  0  0  0  0  0  0
    5.8286   -7.0567   17.0815 He  0  0  0  0  0  0  0  0  0  0  0  0
  1  4  3  0
  1 10  3  0
  1 12  2  0
  1 13  4  0
  1 14  2  0
  1 15  2  0
  1 19  1  0
  1 20  2  0
  1 21  3  0
  2  8  4  0
  2 13  3  0
  2 14  2  0
  2 18  1  0
  2 19  3  0
  2 20  1  0
  3 12  2  0
  3 15  1  0
  3 20  1  0
  3 21  2  0
  4 10  3  0
  4 13  4  0
  4 16  1  0
  4 17  2  0
  4 18  2  0
  4 21  1  0
  5 15  1  0
  5 16  2  0
  6  7  4  0
  6 11  2  0
  6 19  2  0
  7 11  3  0
  7 13  3  0
  7 18  1  0
  7 21  1  0
  8 11  1  0
  8 16  2  0
  8 17  4  0
  9 10  1  0
  9 11  4  0
  9 15  2  0
  9 16  3  0
  9 18  2  0
 10 14  4  0
 10 17  1  0
 10 20  4  0
 10 21  4  0
 11 14  4  0
 12 14  1  0
 12 17  2  0
 13 16  4  0
 13 19  1  0
 14 15  1  0
 15 16  4  0
 15 17  4  0
 15 19  4  0
 15 21  4  0
 16 19  1  0
 17 19  2  0
 17 20  1  0
 17 21  2  0
 18 19  4  0
 20 21  1  0
M  END
$$$$

 Created by Python create_sdf_string function

 29 40  0  0  0  0  0  0  0  0999 V2000
    9.6022   -6.4411   18.3322 N   0  0  0  0  0  0  0  0  0  0  0  0
   11.0918   -4.8396   24.5152 O   0  0  0  0  0  0  0  0  0  0  0  0
    7.9398   -6.6167   16.8095 C   0  0  0  0  0  0  0  0  0  0  0  0
    9.4837   -7.0965   16.9329 C   0  0  0  0  0  0  0  0  0  0  0  0
   12.0969   -3.3895   21.8789 C   0  0  0  0  0  0  0  0  0  0  0  0
    6.3022   -6.5920   16.5867 C   0  0  0  0  0  0  0  0  0  0  0  0
   10.0663   -5.4515   19.1345 C   0  0  0  0  0  0  0  0  0  0  0  0
    6.8345   -7.3734   15.8577 O   0  0  0  0  0  0  0  0  0  0  0  0
   10.2831   -4.4604   21.3311 Cl  0  0  0  0  0  0  0  0  0  0  0  0
   10.9471   -3.0929   24.9489 F   0  0  0  0  0  0  0  0  0  0  0  0
    2.3063   -9.8430   16.6562 C   0  0  0  0  0  0  0  0  0  0  0  0
   11.1589   -2.7376   23.7833 C   0  0  0  0  0  0  0  0  0  0  0  0
    2.1644   -9.9233   17.7545 F   0  0  0  0  0  0  0  0  0  0  0  0
    0.9767  -10.8401   16.6321 C   0  0  0  0  0  0  0  0  0  0  0  0
    6.2241   -7.4528   16.2984 C   0  0  0  0  0  0  0  0  0  0  0  0
    6.0716   -7.5736   17.7376 S   0  0  0  0  0  0  0  0  0  0  0  0
   10.5904   -6.3625   18.1710 C   0  0  0  0  0  0  0  0  0  0  0  0
   11.6912   -3.8259   20.2553 C   0  0  0  0  0  0  0  0  0  0  0  0
    8.7427   -5.8955   16.7811 He  0  0  0  0  0  0  0  0  0  0  0  0
    9.7315   -3.8349   15.9508 He  0  0  0  0  0  0  0  0  0  0  0  0
   11.1561   -3.7248   17.0652 He  0  0  0  0  0  0  0  0  0  0  0  0
    9.0672   -7.8532   18.6985 He  0  0  0  0  0  0  0  0  0  0  0  0
    3.7371   -7.5947   16.3445 He  0  0  0  0  0  0  0  0  0  0  0  0
    4.4848   -8.7416   17.1895 He  0  0  0  0  0  0  0  0  0  0  0  0
    1.7047   -8.7512   15.4443 He  0  0  0  0  0  0  0  0  0  0  0  0
   11.1123   -2.4532   25.9770 He  0  0  0  0  0  0  0  0  0  0  0  0
   10.0912   -2.4100   24.3224 He  0  0  0  0  0  0  0  0  0  0  0  0
    2.9618   -8.0557   14.7643 He  0  0  0  0  0  0  0  0  0  0  0  0
   11.8162   -4.0330   22.9260 He  0  0  0  0  0  0  0  0  0  0  0  0
  1  4  1  0
  1  9  2  0
  1 11  3  0
  1 14  3  0
  1 15  3  0
  2 10  4  0
  2 13  4  0
  3  7  4  0
  3 10  1  0
  3 13  1  0
  3 16  1  0
  4  5  4  0
  4 14  4  0
  4 15  4  0
  4 16  4  0
  5  6  3  0
  5  8  3  0
  5  9  4  0
  5 10  3  0
  5 12  4  0
  5 14  2  0
  5 18  4  0
  6 10  1  0
  7 14  3  0
  7 16  4  0
  8 12  4  0
  8 18  4  0
  9 13  2  0
  9 15  2  0
  9 17  4  0
  9 18  4  0
 10 17  2  0
 11 13  4  0
 11 14  4  0
 11 18  4  0
 12 16  2  0
 13 14  4  0
 13 16  3  0
 14 15  2  0
 14 18  3  0
M  END
$$$$

 Created by Python create_sdf_string function

 29 64  0  0  0  0  0  0  0  0999 V2000
   10.9467   -4.0136   25.0190 P   0  0  0  0  0  0  0  0  0  0  0  0
    7.7843   -6.2959   16.1153 O   0  0  0  0  0  0  0  0  0  0  0  0
    7.9549   -7.6579   16.9478 C   0  0  0  0  0  0  0  0  0  0  0  0
   10.1858   -7.1376   18.3393 C   0  0  0  0  0  0  0  0  0  0  0  0
   12.1714   -4.0333   22.5882 C   0  0  0  0  0  0  0  0  0  0  0  0
   10.0276   -3.2143   16.7117 S   0  0  0  0  0  0  0  0  0  0  0  0
    6.0648   -8.9706   16.0245 N   0  0  0  0  0  0  0  0  0  0  0  0
   10.4020   -5.2837   19.3333 C   0  0  0  0  0  0  0  0  0  0  0  0
    9.8289   -4.6452   17.2404 O   0  0  0  0  0  0  0  0  0  0  0  0
    8.8988   -7.8185   18.0849 C   0  0  0  0  0  0  0  0  0  0  0  0
    3.5777   -7.1359   16.1274 C   0  0  0  0  0  0  0  0  0  0  0  0
    2.7534   -9.6600   16.4668 C   0  0  0  0  0  0  0  0  0  0  0  0
   10.0124   -1.1307   23.4951 C   0  0  0  0  0  0  0  0  0  0  0  0
    4.7074   -7.9218   18.0508 Cl  0  0  0  0  0  0  0  0  0  0  0  0
    2.5118  -10.5631   17.8575 C   0  0  0  0  0  0  0  0  0  0  0  0
    2.4763   -8.7038   16.4520 C   0  0  0  0  0  0  0  0  0  0  0  0
   10.3399   -2.6184   26.6938 O   0  0  0  0  0  0  0  0  0  0  0  0
    0.6719  -11.0278   16.2100 O   0  0  0  0  0  0  0  0  0  0  0  0
    3.8086   -7.8564   16.1782 Se  0  0  0  0  0  0  0  0  0  0  0  0
    6.8375   -7.8983   16.5862 C   0  0  0  0  0  0  0  0  0  0  0  0
    5.6622   -6.8150   18.0240 Br  0  0  0  0  0  0  0  0  0  0  0  0
   12.0074   -3.6977   21.0233 F   0  0  0  0  0  0  0  0  0  0  0  0
   10.6428   -5.6936   17.6263 He  0  0  0  0  0  0  0  0  0  0  0  0
    5.9735   -8.5182   15.9036 He  0  0  0  0  0  0  0  0  0  0  0  0
   11.2682   -4.1132   21.6404 He  0  0  0  0  0  0  0  0  0  0  0  0
   10.5047   -3.5680   24.2765 He  0  0  0  0  0  0  0  0  0  0  0  0
   10.6505   -2.3020   24.3302 He  0  0  0  0  0  0  0  0  0  0  0  0
   11.4273   -4.2511   23.5171 He  0  0  0  0  0  0  0  0  0  0  0  0
   10.6524   -5.3840   18.5777 He  0  0  0  0  0  0  0  0  0  0  0  0
  1  2  4  0
  1  8  2  0
  1  9  1  0
  1 12  4  0
  1 13  4  0
  2  4  4  0
  2  5  4  0
  2  7  2  0
  2  9  3  0
  2 12  4  0
  2 22  2  0
  3  7  3  0
  3 10  2  0
  3 16  1  0
  3 22  3  0
  4  8  1  0
  4 10  1  0
  4 14  4  0
  4 17  2  0
  5  6  4  0
  5  7  2  0
  5  9  4  0
  5 10  4  0
  5 12  4  0
  5 15  2  0
  5 16  2  0
  5 22  4  0
  6  7  3  0
  6 15  2  0
  6 18  3  0
  6 20  2  0
  7  9  1  0
  7 14  4  0
  7 20  2  0
  7 22  2  0
  8  9  3  0
  8 17  3  0
  8 18  4  0
  8 21  3  0
  9 11  4  0
  9 12  1  0
  9 16  1  0
  9 21  3  0
  9 22  3  0
 10 13  3  0
 10 15  1  0
 10 16  4  0
 10 17  1  0
 11 12  3  0
 11 21  1  0
 12 18  2  0
 12 19  2  0
 12 21  2  0
 13 14  1  0
 13 15  2  0
 14 15  3  0
 14 18  3  0
 14 20  2  0
 14 21  2  0
 15 22  3  0
 16 19  4  0
 16 20  2  0
 17 18  3  0
 21 22  1  0
M  END
$$$$

 Created by Python create_sdf_string function

 29 49  0  0  0  0  0  0  0  0999 V2000
    9.9337   -5.1001   17.8138 Cl  0  0  0  0  0  0  0  0  0  0  0  0
   11.3798   -3.8610   25.4739 S   0  0  0  0  0  0  0  0  0  0  0  0
   10.7597   -7.0795   19.2910 C   0  0  0  0  0  0  0  0  0  0  0  0
   11.2976   -3.5994   22.7967 C   0  0  0  0  0  0  0  0  0  0  0  0
   10.2342   -5.4609   20.0672 C   0  0  0  0  0  0  0  0  0  0  0  0
    8.9159   -5.5236   16.8344 C   0  0  0  0  0  0  0  0  0  0  0  0
    6.0885   -8.7409   15.6489 C   0  0  0  0  0  0  0  0  0  0  0  0
   10.6182   -5.6119   21.1505 C   0  0  0  0  0  0  0  0  0  0  0  0
    9.6659   -3.4893   25.0943 C   0  0  0  0  0  0  0  0  0  0  0  0
    2.2775   -8.9846   16.5293 C   0  0  0  0  0  0  0  0  0  0  0  0
   10.3248   -1.4731   23.8901 Se  0  0  0  0  0  0  0  0  0  0  0  0
    2.1474  -10.6467   17.2224 F   0  0  0  0  0  0  0  0  0  0  0  0
    2.4548   -9.5296   15.8162 C   0  0  0  0  0  0  0  0  0  0  0  0
   10.0386   -2.1647   24.5037 C   0  0  0  0  0  0  0  0  0  0  0  0
    0.7927  -10.1992   17.1847 O   0  0  0  0  0  0  0  0  0  0  0  0
    3.7940   -8.5866   15.0897 C   0  0  0  0  0  0  0  0  0  0  0  0
    6.4555   -8.2999   16.9871 C   0  0  0  0  0  0  0  0  0  0  0  0
    5.8064   -7.3846   18.3900 C   0  0  0  0  0  0  0  0  0  0  0  0
   12.0580   -3.9517   24.0037 C   0  0  0  0  0  0  0  0  0  0  0  0
    9.6058   -5.0227   18.2245 C   0  0  0  0  0  0  0  0  0  0  0  0
   11.9978   -5.1368   21.3506 C   0  0  0  0  0  0  0  0  0  0  0  0
    9.0208   -4.8202   17.1017 He  0  0  0  0  0  0  0  0  0  0  0  0
    8.7482   -7.6423   17.7034 He  0  0  0  0  0  0  0  0  0  0  0  0
   11.3731   -3.0868   16.7361 He  0  0  0  0  0  0  0  0  0  0  0  0
    5.2319   -7.3921   16.7897 He  0  0  0  0  0  0  0  0  0  0  0  0
    8.0776   -8.2091   18.4841 He  0  0  0  0  0  0  0  0  0  0  0  0
    4.1831   -7.5967   15.5268 He  0  0  0  0  0  0  0  0  0  0  0  0
    4.8230   -8.3848   17.3601 He  0  0  0  0  0  0  0  0  0  0  0  0
    9.0076   -3.9073   25.6611 He  0  0  0  0  0  0  0  0  0  0  0  0
  1  2  1  0
  1  6  1  0
  1 11  3  0
  1 12  2  0
  1 16  2  0
  1 20  3  0
  2 13  2  0
  2 17  3  0
  2 18  1  0
  2 19  4  0
  2 21  4  0
  3  5  2  0
  3 20  4  0
  3 21  2  0
  4 14  3  0
  4 21  4  0
  5  7  2  0
  5 11  1  0
  5 12  1  0
  5 13  3  0
  5 15  2  0
  5 20  4  0
  6  7  3  0
  6  9  4  0
  6 12  2  0
  6 16  1  0
  7 10  2  0
  7 18  4  0
  7 20  4  0
  9 14  3  0
  9 21  4  0
 10 12  4  0
 10 13  4  0
 10 14  1  0
 10 15  2  0
 10 18  2  0
 11 14  4  0
 13 14  2  0
 13 17  1  0
 13 21  4  0
 14 16  2  0
 14 17  4  0
 14 21  1  0
 15 21  4  0
 16 20  2  0
 16 21  1  0
 17 18  1  0
 19 21  2  0
 20 21  4  0
M  END
$$$$

 Created by Python create_sdf_string function

 29 49  0  0  0  0  0  0  0  0999 V2000
   10.7416   -3.9616   18.1557 N   0  0  0  0  0  0  0  0  0  0  0  0
   10.4036   -4.6228   25.8150 N   0  0  0  0  0  0  0  0  0  0  0  0
    8.0160   -7.9124   18.6301 C   0  0  0  0  0  0  0  0  0  0  0  0
   10.8849   -4.6647   23.4938 O   0  0  0  0  0  0  0  0  0  0  0  0
   11.5870   -2.6983   16.6566 Cl  0  0  0  0  0  0  0  0  0  0  0  0
    5.4723   -8.1871   15.8781 C   0  0  0  0  0  0  0  0  0  0  0  0
   10.5983   -4.5090   20.0532 C   0  0  0  0  0  0  0  0  0  0  0  0
    8.9929   -7.0689   19.1080 C   0  0  0  0  0  0  0  0  0  0  0  0
   10.8281   -3.7312   25.2812 C   0  0  0  0  0  0  0  0  0  0  0  0
    2.5393   -9.8681   17.0191 C   0  0  0  0  0  0  0  0  0  0  0  0
    9.8524   -1.9549   23.7347 C   0  0  0  0  0  0  0  0  0  0  0  0
    5.7722   -8.6534   17.9158 C   0  0  0  0  0  0  0  0  0  0  0  0
    3.0350   -9.9723   14.9067 N   0  0  0  0  0  0  0  0  0  0  0  0
    8.5323   -3.3759   25.8742 O   0  0  0  0  0  0  0  0  0  0  0  0
   10.6866   -2.8607   23.7690 B   0  0  0  0  0  0  0  0  0  0  0  0
    0.9643   -9.8940   17.3009 C   0  0  0  0  0  0  0  0  0  0  0  0
    3.0757   -8.3871   14.9593 C   0  0  0  0  0  0  0  0  0  0  0  0
   10.8607   -4.8388   23.4072 O   0  0  0  0  0  0  0  0  0  0  0  0
   11.1836   -4.0955   21.2961 O   0  0  0  0  0  0  0  0  0  0  0  0
    8.2599   -5.4094   16.3693 He  0  0  0  0  0  0  0  0  0  0  0  0
   10.4446   -6.5032   19.1267 He  0  0  0  0  0  0  0  0  0  0  0  0
   10.0418   -4.9257   18.1713 He  0  0  0  0  0  0  0  0  0  0  0  0
    4.9180   -7.9283   16.4641 He  0  0  0  0  0  0  0  0  0  0  0  0
   11.4095   -5.4952   20.5598 He  0  0  0  0  0  0  0  0  0  0  0  0
    3.9596   -8.5045   15.7921 He  0  0  0  0  0  0  0  0  0  0  0  0
    2.6021  -10.1699   17.2773 He  0  0  0  0  0  0  0  0  0  0  0  0
    6.7505   -8.2209   17.7859 He  0  0  0  0  0  0  0  0  0  0  0  0
    6.2756   -7.3445   18.1495 He  0  0  0  0  0  0  0  0  0  0  0  0
   10.8244   -4.4899   19.7590 He  0  0  0  0  0  0  0  0  0  0  0  0
  1  3  3  0
  1  7  2  0
  1  8  3  0
  1 14  2  0
  1 15  4  0
  1 18  3  0
  2  3  2  0
  2  6  3  0
  2  8  2  0
  2 18  4  0
  3  4  3  0
  3  7  3  0
  3  9  4  0
  3 10  4  0
  3 11  3  0
  3 15  2  0
  3 18  2  0
  4 11  4  0
  4 16  3  0
  4 17  4  0
  4 18  2  0
  4 19  1  0
  5 14  3  0
  5 15  1  0
  5 19  2  0
  6 11  2  0
  6 14  1  0
  6 19  1  0
  7  8  1  0
  7 10  2  0
  7 12  1  0
  7 19  3  0
  8 11  3  0
  8 13  2  0
  9 13  4  0
  9 18  3  0
 10 16  2  0
 11 12  2  0
 11 15  4  0
 11 18  1  0
 12 16  2  0
 12 18  2  0
 12 19  4  0
 13 14  1  0
 13 16  3  0
 13 17  2  0
 13 19  3  0
 14 15  1  0
 15 18  2  0
M  END
$$$$

 Created by Python create_sdf_string function

 29 42  0  0  0  0  0  0  0  0999 V2000
   10.3509   -3.6916   18.5692 C   0  0  0  0  0  0  0  0  0  0  0  0
    8.5542   -5.9500   16.4268 C   0  0  0  0  0  0  0  0  0  0  0  0
   10.3299   -5.7520   19.0451 C   0  0  0  0  0  0  0  0  0  0  0  0
   11.4983   -3.4758   17.4518 F   0  0  0  0  0  0  0  0  0  0  0  0
    6.1395   -7.8537   16.2285 C   0  0  0  0  0  0  0  0  0  0  0  0
   11.3478   -4.1327   19.9838 C   0  0  0  0  0  0  0  0  0  0  0  0
    9.2105   -4.9011   16.0574 C   0  0  0  0  0  0  0  0  0  0  0  0
    5.0818   -9.1907   16.6269 C   0  0  0  0  0  0  0  0  0  0  0  0
    8.9941   -7.3104   18.2919 C   0  0  0  0  0  0  0  0  0  0  0  0
   10.9122   -4.1058   21.6516 O   0  0  0  0  0  0  0  0  0  0  0  0
    3.8469   -9.5539   16.1427 C   0  0  0  0  0  0  0  0  0  0  0  0
   10.9341   -3.8835   25.6510 C   0  0  0  0  0  0  0  0  0  0  0  0
    9.5192   -2.6295   23.7439 C   0  0  0  0  0  0  0  0  0  0  0  0
    6.1867   -8.1289   17.4234 C   0  0  0  0  0  0  0  0  0  0  0  0
    9.7630   -3.4432   25.9037 O   0  0  0  0  0  0  0  0  0  0  0  0
    9.2754   -2.7336   22.9161 N   0  0  0  0  0  0  0  0  0  0  0  0
    0.6357  -11.1175   17.1313 C   0  0  0  0  0  0  0  0  0  0  0  0
    6.3999   -7.6812   17.8011 C   0  0  0  0  0  0  0  0  0  0  0  0
   11.0814   -5.2096   24.3080 Br  0  0  0  0  0  0  0  0  0  0  0  0
   11.0705   -3.8850   20.8336 N   0  0  0  0  0  0  0  0  0  0  0  0
   11.2784   -3.2369   21.2221 N   0  0  0  0  0  0  0  0  0  0  0  0
   11.1291   -3.6091   25.4115 He  0  0  0  0  0  0  0  0  0  0  0  0
    7.8479   -7.1617   17.8937 He  0  0  0  0  0  0  0  0  0  0  0  0
   11.0672   -4.1476   22.9268 He  0  0  0  0  0  0  0  0  0  0  0  0
    2.1259   -9.8550   16.7754 He  0  0  0  0  0  0  0  0  0  0  0  0
    2.5101  -11.0597   17.5613 He  0  0  0  0  0  0  0  0  0  0  0  0
    1.7114  -10.0310   15.0727 He  0  0  0  0  0  0  0  0  0  0  0  0
    2.7775   -9.1651   15.7737 He  0  0  0  0  0  0  0  0  0  0  0  0
    6.4872   -7.3920   17.7740 He  0  0  0  0  0  0  0  0  0  0  0  0
  1  4  1  0
  1  8  2  0
  1  9  4  0
  1 20  4  0
  2  7  1  0
  2 13  1  0
  2 15  3  0
  2 21  3  0
  3  6  4  0
  3  8  3  0
  3 13  4  0
  4  6  3  0
  4  7  2  0
  4 19  2  0
  5  8  1  0
  5 11  4  0
  5 13  1  0
  6  7  4  0
  6  9  2  0
  6 10  3  0
  6 15  2  0
  6 19  3  0
  6 20  4  0
  6 21  2  0
  7  9  4  0
  7 17  3  0
  7 19  1  0
  8 16  2  0
  8 19  3  0
  9 18  2  0
 10 21  1  0
 12 19  4  0
 12 21  4  0
 13 16  4  0
 13 17  3  0
 13 18  1  0
 14 15  2  0
 15 19  1  0
 16 21  1  0
 17 19  2  0
 17 20  2  0
 17 21  2  0
M  END
$$$$

 Created by Python create_sdf_string function

 29 69  0  0  0  0  0  0  0  0999 V2000
   11.5226   -5.3038   26.3607 F   0  0  0  0  0  0  0  0  0  0  0  0
    8.7433   -4.1076   17.1557 F   0  0  0  0  0  0  0  0  0  0  0  0
    8.3453   -7.4279   17.1043 C   0  0  0  0  0  0  0  0  0  0  0  0
   10.3342   -5.0755   19.2642 S   0  0  0  0  0  0  0  0  0  0  0  0
   11.7637   -3.5395   22.3581 N   0  0  0  0  0  0  0  0  0  0  0  0
   10.6667   -3.1693   17.4736 C   0  0  0  0  0  0  0  0  0  0  0  0
    6.3946   -7.5636   15.8373 C   0  0  0  0  0  0  0  0  0  0  0  0
   10.4377   -5.4537   20.3432 C   0  0  0  0  0  0  0  0  0  0  0  0
    9.9467   -4.9383   16.1061 P   0  0  0  0  0  0  0  0  0  0  0  0
    4.6323   -8.2142   18.0209 C   0  0  0  0  0  0  0  0  0  0  0  0
    9.1158   -7.0175   17.6782 C   0  0  0  0  0  0  0  0  0  0  0  0
   11.4346   -3.7738   22.1470 Cl  0  0  0  0  0  0  0  0  0  0  0  0
   10.4033   -3.3881   25.8891 C   0  0  0  0  0  0  0  0  0  0  0  0
    1.6990  -10.3337   17.7848 N   0  0  0  0  0  0  0  0  0  0  0  0
    2.8842  -10.0250   17.6500 N   0  0  0  0  0  0  0  0  0  0  0  0
    2.3998   -8.9665   16.6930 C   0  0  0  0  0  0  0  0  0  0  0  0
    9.4079   -3.2842   26.5356 P   0  0  0  0  0  0  0  0  0  0  0  0
   10.6400   -2.1291   22.3353 C   0  0  0  0  0  0  0  0  0  0  0  0
    1.4381  -11.1580   17.4508 C   0  0  0  0  0  0  0  0  0  0  0  0
    2.4991   -9.0440   15.7868 C   0  0  0  0  0  0  0  0  0  0  0  0
    6.9004   -6.4970   16.4602 S   0  0  0  0  0  0  0  0  0  0  0  0
    6.8234   -8.0277   17.4239 C   0  0  0  0  0  0  0  0  0  0  0  0
   11.5788   -4.5282   24.1328 C   0  0  0  0  0  0  0  0  0  0  0  0
   11.5433   -3.1581   19.2809 N   0  0  0  0  0  0  0  0  0  0  0  0
   10.5184   -3.7165   21.4366 C   0  0  0  0  0  0  0  0  0  0  0  0
   10.7382   -3.7742   17.3589 He  0  0  0  0  0  0  0  0  0  0  0  0
    3.5848   -8.6891   16.4159 He  0  0  0  0  0  0  0  0  0  0  0  0
    9.1325   -3.3535   24.0042 He  0  0  0  0  0  0  0  0  0  0  0  0
    6.3371   -8.6620   19.1162 He  0  0  0  0  0  0  0  0  0  0  0  0
  1 11  2  0
  1 12  3  0
  1 13  2  0
  1 15  1  0
  1 18  4  0
  1 21  4  0
  1 23  4  0
  1 24  3  0
  2  9  2  0
  2 11  3  0
  2 17  4  0
  2 19  3  0
  2 25  3  0
  3 10  1  0
  3 11  3  0
  3 15  4  0
  4  8  4  0
  4 25  1  0
  5  7  2  0
  5 10  2  0
  5 16  4  0
  5 17  1  0
  5 18  4  0
  5 22  2  0
  6  7  1  0
  6 14  2  0
  6 15  4  0
  6 16  1  0
  6 18  4  0
  6 24  3  0
  7  9  1  0
  7 10  1  0
  7 11  2  0
  7 19  3  0
  7 23  4  0
  8 10  4  0
  8 16  3  0
  8 17  2  0
  8 22  2  0
  9 16  3  0
  9 24  3  0
 10 12  1  0
 10 17  4  0
 10 20  2  0
 11 15  2  0
 11 21  1  0
 12 19  4  0
 12 25  1  0
 13 14  3  0
 13 17  1  0
 14 15  4  0
 14 19  4  0
 14 20  2  0
 14 21  1  0
 14 25  4  0
 15 19  1  0
 15 24  1  0
 16 17  1  0
 16 19  4  0
 16 23  2  0
 16 24  4  0
 16 25  3  0
 17 22  1  0
 18 22  4  0
 19 22  3  0
 19 24  3  0
 19 25  4  0
 21 22  2  0
 22 24  3  0
M  END
$$$$

 Created by Python create_sdf_string function

 29 67  0  0  0  0  0  0  0  0999 V2000
   10.3878   -3.1851   18.9972 S   0  0  0  0  0  0  0  0  0  0  0  0
   12.0746   -5.1835   24.7298 C   0  0  0  0  0  0  0  0  0  0  0  0
    9.0627   -5.1914   17.4679 N   0  0  0  0  0  0  0  0  0  0  0  0
    8.2948   -7.3790   17.0270 C   0  0  0  0  0  0  0  0  0  0  0  0
   10.5786   -5.4658   18.6650 C   0  0  0  0  0  0  0  0  0  0  0  0
   11.8964   -3.4470   22.9602 C   0  0  0  0  0  0  0  0  0  0  0  0
   11.6216   -4.3419   18.3453 C   0  0  0  0  0  0  0  0  0  0  0  0
    8.5475   -4.7428   15.9155 O   0  0  0  0  0  0  0  0  0  0  0  0
    5.9291   -8.4948   16.9337 C   0  0  0  0  0  0  0  0  0  0  0  0
    8.7217   -6.3421   17.3214 C   0  0  0  0  0  0  0  0  0  0  0  0
   11.9738   -4.7881   21.5744 O   0  0  0  0  0  0  0  0  0  0  0  0
    4.1519   -8.8532   17.0194 C   0  0  0  0  0  0  0  0  0  0  0  0
    9.7648   -2.8107   26.9549 C   0  0  0  0  0  0  0  0  0  0  0  0
    1.6928  -10.8174   18.5181 N   0  0  0  0  0  0  0  0  0  0  0  0
    9.9352   -2.5386   24.2984 C   0  0  0  0  0  0  0  0  0  0  0  0
    5.3552   -8.2270   18.3636 C   0  0  0  0  0  0  0  0  0  0  0  0
    3.2845   -9.5628   17.7949 O   0  0  0  0  0  0  0  0  0  0  0  0
    1.1108   -9.5344   16.6635 C   0  0  0  0  0  0  0  0  0  0  0  0
   10.1296   -2.5780   23.7549 C   0  0  0  0  0  0  0  0  0  0  0  0
    0.8585  -10.2934   17.1784 C   0  0  0  0  0  0  0  0  0  0  0  0
    3.2040   -8.2587   16.6514 C   0  0  0  0  0  0  0  0  0  0  0  0
    7.5418   -6.4099   17.5432 N   0  0  0  0  0  0  0  0  0  0  0  0
    7.0557   -7.8605   17.9748 C   0  0  0  0  0  0  0  0  0  0  0  0
   10.9265   -4.9630   23.6484 P   0  0  0  0  0  0  0  0  0  0  0  0
   12.0088   -3.5405   18.8282 S   0  0  0  0  0  0  0  0  0  0  0  0
    5.6482   -7.9084   16.6552 He  0  0  0  0  0  0  0  0  0  0  0  0
   10.6531   -5.4420   17.9482 He  0  0  0  0  0  0  0  0  0  0  0  0
   10.0026   -3.5282   27.0515 He  0  0  0  0  0  0  0  0  0  0  0  0
   10.6601   -3.7281   21.2849 He  0  0  0  0  0  0  0  0  0  0  0  0
  1  5  3  0
  1  7  4  0
  1 11  2  0
  1 17  2  0
  1 21  3  0
  1 25  4  0
  2 10  2  0
  2 11  1  0
  2 16  1  0
  2 17  1  0
  2 23  4  0
  2 24  3  0
  3  4  4  0
  3 10  3  0
  3 15  3  0
  3 16  1  0
  3 19  1  0
  3 23  4  0
  4  6  4  0
  4  9  2  0
  4 15  2  0
  5 12  1  0
  5 24  4  0
  5 25  2  0
  6  7  1  0
  6  8  2  0
  6 11  1  0
  6 19  4  0
  6 23  1  0
  6 24  4  0
  7 22  4  0
  7 24  2  0
  7 25  2  0
  9 11  4  0
  9 12  4  0
  9 15  4  0
  9 16  4  0
 10 11  3  0
 10 25  4  0
 11 16  4  0
 11 24  4  0
 12 13  1  0
 12 20  4  0
 12 21  4  0
 12 23  4  0
 12 25  2  0
 13 15  1  0
 13 17  3  0
 13 23  2  0
 14 15  4  0
 14 18  2  0
 14 20  4  0
 14 24  1  0
 14 25  1  0
 15 18  4  0
 15 19  4  0
 15 25  1  0
 16 18  2  0
 16 24  2  0
 18 20  4  0
 18 21  4  0
 19 21  2  0
 20 23  2  0
 20 25  4  0
 21 24  2  0
 21 25  3  0
 24 25  1  0
M  END
$$$$

 Created by Python create_sdf_string function

 29 40  0  0  0  0  0  0  0  0999 V2000
   11.0095   -3.0589   18.8256 N   0  0  0  0  0  0  0  0  0  0  0  0
   10.9603   -4.3654   24.6588 C   0  0  0  0  0  0  0  0  0  0  0  0
    9.3355   -5.3488   18.0492 N   0  0  0  0  0  0  0  0  0  0  0  0
    7.9748   -7.2680   16.9088 C   0  0  0  0  0  0  0  0  0  0  0  0
   10.7031   -5.7371   19.1654 C   0  0  0  0  0  0  0  0  0  0  0  0
   11.8576   -3.3972   18.2703 C   0  0  0  0  0  0  0  0  0  0  0  0
    9.8244   -5.9864   18.8696 P   0  0  0  0  0  0  0  0  0  0  0  0
    8.4487   -5.7107   15.7771 O   0  0  0  0  0  0  0  0  0  0  0  0
    4.8289   -8.4249   17.0905 C   0  0  0  0  0  0  0  0  0  0  0  0
    8.2533   -6.8727   16.9411 C   0  0  0  0  0  0  0  0  0  0  0  0
   11.6818   -4.8680   21.3502 O   0  0  0  0  0  0  0  0  0  0  0  0
    3.2566   -9.6998   17.8379 C   0  0  0  0  0  0  0  0  0  0  0  0
    8.9879   -2.5188   24.8964 C   0  0  0  0  0  0  0  0  0  0  0  0
    5.3469   -8.6403   18.5208 C   0  0  0  0  0  0  0  0  0  0  0  0
    3.3238  -10.1800   17.6722 C   0  0  0  0  0  0  0  0  0  0  0  0
    9.9670   -3.5358   26.7005 C   0  0  0  0  0  0  0  0  0  0  0  0
    9.8515   -1.9643   24.3897 C   0  0  0  0  0  0  0  0  0  0  0  0
    1.7993   -9.4384   17.1373 C   0  0  0  0  0  0  0  0  0  0  0  0
    7.0358   -7.1027   16.3578 Cl  0  0  0  0  0  0  0  0  0  0  0  0
    7.6411   -7.9996   18.6372 N   0  0  0  0  0  0  0  0  0  0  0  0
   10.9488   -5.0679   24.4973 C   0  0  0  0  0  0  0  0  0  0  0  0
   10.4539   -4.8573   19.8938 O   0  0  0  0  0  0  0  0  0  0  0  0
   11.6274   -3.2455   23.7604 He  0  0  0  0  0  0  0  0  0  0  0  0
    4.4686   -7.5314   16.9972 He  0  0  0  0  0  0  0  0  0  0  0  0
    9.9149   -3.3898   26.1900 He  0  0  0  0  0  0  0  0  0  0  0  0
    2.1036  -10.1020   18.3153 He  0  0  0  0  0  0  0  0  0  0  0  0
    1.4299   -8.8446   16.3218 He  0  0  0  0  0  0  0  0  0  0  0  0
    2.8053   -8.3630   17.1693 He  0  0  0  0  0  0  0  0  0  0  0  0
   11.1237   -3.9173   19.5468 He  0  0  0  0  0  0  0  0  0  0  0  0
  1  5  3  0
  1 10  4  0
  1 11  2  0
  1 13  1  0
  2  8  3  0
  2 15  1  0
  2 17  4  0
  2 21  4  0
  4 10  1  0
  4 12  1  0
  4 15  1  0
  4 19  4  0
  4 21  1  0
  4 22  4  0
  5  6  4  0
  5 11  3  0
  5 17  3  0
  5 21  2  0
  6 13  3  0
  6 18  1  0
  7  9  2  0
  7 11  4  0
  7 12  4  0
  7 13  3  0
  8 15  4  0
  9 12  3  0
  9 19  1  0
 10 14  3  0
 10 19  3  0
 11 12  1  0
 11 16  2  0
 12 15  4  0
 14 20  4  0
 15 21  1  0
 16 17  4  0
 16 22  1  0
 17 18  1  0
 17 20  2  0
 18 21  3  0
 19 20  1  0
M  END
$$$$

 Created by Python create_sdf_string function

 29 81  0  0  0  0  0  0  0  0999 V2000
   11.9351   -2.9431   18.8924 N   0  0  0  0  0  0  0  0  0  0  0  0
   10.7609   -4.6638   25.5046 C   0  0  0  0  0  0  0  0  0  0  0  0
    9.2422   -5.5801   18.7370 N   0  0  0  0  0  0  0  0  0  0  0  0
    7.5869   -8.7198   16.9821 B   0  0  0  0  0  0  0  0  0  0  0  0
   10.9956   -5.7960   18.5438 N   0  0  0  0  0  0  0  0  0  0  0  0
   11.0989   -3.6370   18.4060 O   0  0  0  0  0  0  0  0  0  0  0  0
    6.2649   -7.6608   16.3190 C   0  0  0  0  0  0  0  0  0  0  0  0
   10.6990   -5.5274   19.5838 N   0  0  0  0  0  0  0  0  0  0  0  0
    9.3300   -5.0329   15.6225 C   0  0  0  0  0  0  0  0  0  0  0  0
    6.0813   -8.9780   17.6130 C   0  0  0  0  0  0  0  0  0  0  0  0
    8.3672   -5.6904   15.3917 C   0  0  0  0  0  0  0  0  0  0  0  0
   11.2014   -4.0137   21.7885 C   0  0  0  0  0  0  0  0  0  0  0  0
    3.2047   -9.0134   16.9652 S   0  0  0  0  0  0  0  0  0  0  0  0
   10.2936   -2.9087   26.2847 C   0  0  0  0  0  0  0  0  0  0  0  0
    1.3987  -10.7646   17.4960 Cl  0  0  0  0  0  0  0  0  0  0  0  0
    9.7335   -1.8322   25.0759 C   0  0  0  0  0  0  0  0  0  0  0  0
    6.3013   -9.1405   17.9946 C   0  0  0  0  0  0  0  0  0  0  0  0
    3.6703   -9.3128   18.4958 C   0  0  0  0  0  0  0  0  0  0  0  0
    1.4796   -9.3650   16.5473 C   0  0  0  0  0  0  0  0  0  0  0  0
   10.4756   -3.7694   27.4913 C   0  0  0  0  0  0  0  0  0  0  0  0
    9.2329   -1.8905   24.1661 C   0  0  0  0  0  0  0  0  0  0  0  0
    1.5067  -10.0664   17.5655 C   0  0  0  0  0  0  0  0  0  0  0  0
    6.1206   -8.5446   17.3639 N   0  0  0  0  0  0  0  0  0  0  0  0
   11.9215   -3.5591   20.4188 C   0  0  0  0  0  0  0  0  0  0  0  0
   11.1587   -5.3901   20.5951 C   0  0  0  0  0  0  0  0  0  0  0  0
   10.9219   -4.4457   22.7834 He  0  0  0  0  0  0  0  0  0  0  0  0
    2.7991   -8.8141   16.3868 He  0  0  0  0  0  0  0  0  0  0  0  0
    7.2195   -6.7728   15.4386 He  0  0  0  0  0  0  0  0  0  0  0  0
   11.5934   -3.9028   24.7221 He  0  0  0  0  0  0  0  0  0  0  0  0
  1 17  1  0
  1 24  4  0
  1 25  4  0
  2 10  4  0
  2 17  3  0
  2 20  3  0
  2 23  4  0
  3  4  2  0
  3  6  2  0
  3  7  4  0
  3  9  1  0
  3 12  3  0
  3 14  2  0
  3 17  1  0
  3 19  3  0
  3 21  2  0
  3 25  1  0
  4  6  1  0
  4  9  1  0
  4 11  2  0
  4 15  4  0
  4 16  4  0
  4 18  2  0
  4 20  3  0
  4 23  4  0
  4 24  4  0
  5  6  3  0
  5  8  1  0
  5 15  2  0
  5 17  2  0
  5 22  4  0
  6  7  3  0
  6  8  2  0
  6  9  1  0
  6 14  2  0
  6 24  4  0
  7 11  4  0
  7 22  1  0
  7 24  3  0
  8 14  2  0
  8 16  4  0
  8 21  4  0
  8 24  1  0
  9 10  3  0
  9 11  2  0
  9 12  4  0
  9 17  4  0
  9 19  3  0
  9 21  2  0
 10 13  2  0
 10 17  1  0
 10 25  2  0
 11 16  1  0
 11 21  1  0
 12 19  1  0
 12 21  4  0
 12 24  4  0
 13 14  2  0
 13 15  1  0
 13 18  4  0
 13 19  4  0
 13 21  2  0
 13 23  2  0
 14 16  4  0
 14 20  1  0
 14 23  2  0
 15 16  2  0
 15 20  3  0
 15 22  4  0
 15 23  3  0
 16 21  4  0
 16 24  2  0
 17 23  4  0
 18 21  3  0
 18 22  2  0
 18 24  2  0
 19 20  4  0
 19 22  4  0
 19 23  2  0
 21 23  1  0
 24 25  4  0
M  END
$$$$

 Created by Python create_sdf_string function

 29 33  0  0  0  0  0  0  0  0999 V2000
   11.4061   -3.3397   19.6412 N   0  0  0  0  0  0  0  0  0  0  0  0
   11.0252   -4.9939   24.4388 C   0  0  0  0  0  0  0  0  0  0  0  0
    9.5241   -5.9562   17.1857 S   0  0  0  0  0  0  0  0  0  0  0  0
   10.8726   -4.8894   23.6577 N   0  0  0  0  0  0  0  0  0  0  0  0
    5.3787   -7.1285   17.1343 O   0  0  0  0  0  0  0  0  0  0  0  0
    9.6516   -5.4434   18.4827 C   0  0  0  0  0  0  0  0  0  0  0  0
    9.4753   -5.4134   16.2686 O   0  0  0  0  0  0  0  0  0  0  0  0
    4.9660   -8.4946   17.5144 Br  0  0  0  0  0  0  0  0  0  0  0  0
    8.4588   -5.3314   16.7245 C   0  0  0  0  0  0  0  0  0  0  0  0
   11.0842   -3.2975   22.5438 C   0  0  0  0  0  0  0  0  0  0  0  0
    3.4271   -9.0403   15.9466 C   0  0  0  0  0  0  0  0  0  0  0  0
   10.0860   -2.7189   26.7612 C   0  0  0  0  0  0  0  0  0  0  0  0
    1.1857  -11.1774   18.6482 S   0  0  0  0  0  0  0  0  0  0  0  0
    9.4730   -2.2100   25.9548 S   0  0  0  0  0  0  0  0  0  0  0  0
    3.6384  -10.3201   17.2080 C   0  0  0  0  0  0  0  0  0  0  0  0
    2.8243   -9.5242   15.6912 C   0  0  0  0  0  0  0  0  0  0  0  0
    1.6439  -10.0786   17.3323 N   0  0  0  0  0  0  0  0  0  0  0  0
    3.5571   -9.3069   16.9020 I   0  0  0  0  0  0  0  0  0  0  0  0
    6.9706   -8.0066   17.9841 N   0  0  0  0  0  0  0  0  0  0  0  0
   10.9961   -2.9524   23.8994 P   0  0  0  0  0  0  0  0  0  0  0  0
   10.6799   -6.3072   19.7696 C   0  0  0  0  0  0  0  0  0  0  0  0
    7.1229   -6.8311   15.9106 He  0  0  0  0  0  0  0  0  0  0  0  0
   10.1804   -5.4845   18.8024 He  0  0  0  0  0  0  0  0  0  0  0  0
   10.5042   -4.1310   17.9521 He  0  0  0  0  0  0  0  0  0  0  0  0
    5.6657   -9.3687   17.4853 He  0  0  0  0  0  0  0  0  0  0  0  0
   10.4726   -3.4783   26.3773 He  0  0  0  0  0  0  0  0  0  0  0  0
    9.6993   -1.7359   24.2408 He  0  0  0  0  0  0  0  0  0  0  0  0
    7.6233   -6.5745   15.3076 He  0  0  0  0  0  0  0  0  0  0  0  0
   11.3276   -2.2418   20.5464 He  0  0  0  0  0  0  0  0  0  0  0  0
  1  2  4  0
  1  8  1  0
  2 12  2  0
  2 13  3  0
  2 17  4  0
  3  4  3  0
  4  9  1  0
  4 10  1  0
  4 17  2  0
  5  6  1  0
  5  7  2  0
  5 18  1  0
  6  9  2  0
  6 17  3  0
  6 21  4  0
  7 11  1  0
  7 12  3  0
  7 15  4  0
  8 18  1  0
  9 11  1  0
 10 12  2  0
 10 21  1  0
 11 13  4  0
 11 16  4  0
 11 17  4  0
 12 13  2  0
 12 14  4  0
 12 16  1  0
 12 17  1  0
 12 19  1  0
 13 15  2  0
 13 17  4  0
 15 18  4  0
M  END
$$$$

 Created by Python create_sdf_string function

 29 63  0  0  0  0  0  0  0  0999 V2000
   11.0815   -4.3174   18.9924 C   0  0  0  0  0  0  0  0  0  0  0  0
   11.1272   -4.5111   25.3850 F   0  0  0  0  0  0  0  0  0  0  0  0
   10.5110   -5.5518   17.3599 N   0  0  0  0  0  0  0  0  0  0  0  0
    6.3022   -8.0413   16.0979 S   0  0  0  0  0  0  0  0  0  0  0  0
   11.3619   -4.3047   22.3691 N   0  0  0  0  0  0  0  0  0  0  0  0
   11.1419   -3.1088   18.4434 C   0  0  0  0  0  0  0  0  0  0  0  0
    5.7896   -7.4530   16.1859 F   0  0  0  0  0  0  0  0  0  0  0  0
   10.7438   -6.0839   18.7918 C   0  0  0  0  0  0  0  0  0  0  0  0
   10.3621   -5.1274   15.8893 O   0  0  0  0  0  0  0  0  0  0  0  0
    4.9344   -8.9264   17.8569 C   0  0  0  0  0  0  0  0  0  0  0  0
   11.4201   -3.7221   21.7701 C   0  0  0  0  0  0  0  0  0  0  0  0
    2.9612   -8.8161   15.9043 C   0  0  0  0  0  0  0  0  0  0  0  0
    2.1908  -10.1701   17.5510 C   0  0  0  0  0  0  0  0  0  0  0  0
    9.2168   -1.8347   24.9008 C   0  0  0  0  0  0  0  0  0  0  0  0
    6.7063   -9.6890   17.9952 C   0  0  0  0  0  0  0  0  0  0  0  0
    3.0914   -8.8275   16.5793 C   0  0  0  0  0  0  0  0  0  0  0  0
   10.0303   -4.5253   26.8216 C   0  0  0  0  0  0  0  0  0  0  0  0
    9.6935   -2.5914   24.7715 F   0  0  0  0  0  0  0  0  0  0  0  0
    1.6455  -10.2776   16.9294 Cl  0  0  0  0  0  0  0  0  0  0  0  0
    4.5105   -9.4796   17.0849 C   0  0  0  0  0  0  0  0  0  0  0  0
    8.1298   -6.2853   16.5258 C   0  0  0  0  0  0  0  0  0  0  0  0
    6.4000   -9.1146   17.6064 N   0  0  0  0  0  0  0  0  0  0  0  0
   10.0179   -3.6391   24.7321 Cl  0  0  0  0  0  0  0  0  0  0  0  0
   10.6540   -3.2535   21.0614 C   0  0  0  0  0  0  0  0  0  0  0  0
   10.4431   -5.4656   18.7878 He  0  0  0  0  0  0  0  0  0  0  0  0
    8.3947   -6.3900   16.2335 He  0  0  0  0  0  0  0  0  0  0  0  0
   10.5282   -3.0785   26.3439 He  0  0  0  0  0  0  0  0  0  0  0  0
    2.8116  -10.0310   17.8554 He  0  0  0  0  0  0  0  0  0  0  0  0
   10.3552   -5.6388   19.9326 He  0  0  0  0  0  0  0  0  0  0  0  0
  1  3  3  0
  1  7  1  0
  1 15  1  0
  1 17  4  0
  1 22  3  0
  1 24  4  0
  2  7  3  0
  2 15  2  0
  2 18  1  0
  2 21  4  0
  2 23  4  0
  2 24  2  0
  3  9  1  0
  3 22  2  0
  4  7  4  0
  4  9  2  0
  4 21  1  0
  4 22  4  0
  5 23  1  0
  6  7  2  0
  6  9  1  0
  6 15  1  0
  6 20  2  0
  6 23  2  0
  7  8  1  0
  7 13  3  0
  7 14  1  0
  7 15  4  0
  7 16  1  0
  7 18  2  0
  7 21  4  0
  8 12  1  0
  8 15  1  0
  8 18  1  0
  8 20  1  0
  8 22  1  0
  8 24  4  0
  9 10  3  0
  9 11  3  0
  9 18  3  0
 10 19  4  0
 11 15  4  0
 11 21  1  0
 11 23  4  0
 11 24  2  0
 12 15  3  0
 12 16  4  0
 12 17  1  0
 12 19  4  0
 13 19  4  0
 13 20  2  0
 14 18  4  0
 14 23  1  0
 15 22  4  0
 16 20  4  0
 17 19  2  0
 18 19  3  0
 18 23  2  0
 19 20  3  0
 20 22  4  0
 20 24  3  0
 21 23  1  0
 23 24  1  0
M  END
$$$$

 Created by Python create_sdf_string function

 29 55  0  0  0  0  0  0  0  0999 V2000
   10.4223   -4.0263   18.3813 C   0  0  0  0  0  0  0  0  0  0  0  0
   10.4481   -4.7886   17.8952 N   0  0  0  0  0  0  0  0  0  0  0  0
    6.6674   -7.1012   16.6382 C   0  0  0  0  0  0  0  0  0  0  0  0
   11.0244   -4.6018   22.9376 C   0  0  0  0  0  0  0  0  0  0  0  0
   10.4481   -3.3589   18.6687 C   0  0  0  0  0  0  0  0  0  0  0  0
    6.2199   -8.3242   16.3873 O   0  0  0  0  0  0  0  0  0  0  0  0
    9.9481   -6.7090   18.7415 C   0  0  0  0  0  0  0  0  0  0  0  0
    5.0891   -9.4730   17.5007 C   0  0  0  0  0  0  0  0  0  0  0  0
    9.1367   -6.5339   16.1907 C   0  0  0  0  0  0  0  0  0  0  0  0
    9.7647   -3.1128   26.3009 C   0  0  0  0  0  0  0  0  0  0  0  0
    2.3860  -10.0511   17.4796 C   0  0  0  0  0  0  0  0  0  0  0  0
    8.9469   -1.4371   25.0736 C   0  0  0  0  0  0  0  0  0  0  0  0
    7.2828   -8.7152   17.8775 C   0  0  0  0  0  0  0  0  0  0  0  0
    2.5729   -9.5705   17.9636 C   0  0  0  0  0  0  0  0  0  0  0  0
   10.2806   -3.9404   26.5434 C   0  0  0  0  0  0  0  0  0  0  0  0
   10.3308   -2.1777   24.4416 C   0  0  0  0  0  0  0  0  0  0  0  0
    3.6193   -9.2938   18.0984 C   0  0  0  0  0  0  0  0  0  0  0  0
    8.2906   -7.3881   15.9240 C   0  0  0  0  0  0  0  0  0  0  0  0
    6.6429   -9.1510   17.6792 N   0  0  0  0  0  0  0  0  0  0  0  0
   10.5762   -4.2788   24.3441 C   0  0  0  0  0  0  0  0  0  0  0  0
   11.2020   -3.9949   20.4396 N   0  0  0  0  0  0  0  0  0  0  0  0
   11.2141   -5.6162   20.4049 C   0  0  0  0  0  0  0  0  0  0  0  0
   10.9055   -4.1744   24.5441 He  0  0  0  0  0  0  0  0  0  0  0  0
    9.8126   -6.3669   18.1131 He  0  0  0  0  0  0  0  0  0  0  0  0
    8.8291   -5.2536   15.6428 He  0  0  0  0  0  0  0  0  0  0  0  0
   11.1691   -3.8190   21.8562 He  0  0  0  0  0  0  0  0  0  0  0  0
    1.8531   -8.4398   15.4329 He  0  0  0  0  0  0  0  0  0  0  0  0
    2.1031   -8.1559   16.0517 He  0  0  0  0  0  0  0  0  0  0  0  0
    1.2813   -9.9210   17.1206 He  0  0  0  0  0  0  0  0  0  0  0  0
  1  2  3  0
  1 13  2  0
  1 15  2  0
  1 16  1  0
  1 18  4  0
  1 21  4  0
  2  7  4  0
  2  9  4  0
  2 14  3  0
  2 18  4  0
  3  4  4  0
  3  5  3  0
  3  6  4  0
  3 12  2  0
  3 15  3  0
  3 18  1  0
  3 21  4  0
  4  5  1  0
  4  9  1  0
  4 11  1  0
  4 16  1  0
  4 17  1  0
  4 20  2  0
  5  8  4  0
  5  9  3  0
  5 13  4  0
  5 15  2  0
  5 22  1  0
  6 12  4  0
  6 18  4  0
  7  9  3  0
  7 10  1  0
  7 22  4  0
  8 17  1  0
  8 19  4  0
  9 18  1  0
  9 21  4  0
  9 22  1  0
 10 12  4  0
 10 20  1  0
 11 19  2  0
 12 15  3  0
 12 16  4  0
 12 19  4  0
 12 21  3  0
 13 15  4  0
 13 19  4  0
 13 20  1  0
 13 21  4  0
 14 17  4  0
 16 20  4  0
 16 22  4  0
 17 22  2  0
 20 21  1  0
 21 22  3  0
M  END
$$$$

 Created by Python create_sdf_string function

 29 65  0  0  0  0  0  0  0  0999 V2000
   10.0811   -3.8153   18.2572 C   0  0  0  0  0  0  0  0  0  0  0  0
    9.9652   -4.6015   17.1681 N   0  0  0  0  0  0  0  0  0  0  0  0
    6.8261   -6.8777   16.1080 C   0  0  0  0  0  0  0  0  0  0  0  0
   10.4346   -6.7061   17.7804 C   0  0  0  0  0  0  0  0  0  0  0  0
   10.4768   -3.3977   22.5596 C   0  0  0  0  0  0  0  0  0  0  0  0
   11.6359   -3.1481   18.6330 C   0  0  0  0  0  0  0  0  0  0  0  0
    5.9382   -6.8979   17.0043 O   0  0  0  0  0  0  0  0  0  0  0  0
   10.4659   -6.4132   18.1908 C   0  0  0  0  0  0  0  0  0  0  0  0
    9.5529   -5.2405   16.8524 N   0  0  0  0  0  0  0  0  0  0  0  0
    4.9711   -8.3191   17.7405 C   0  0  0  0  0  0  0  0  0  0  0  0
    9.8746   -6.1231   17.0736 C   0  0  0  0  0  0  0  0  0  0  0  0
   11.0950   -3.4880   22.0904 C   0  0  0  0  0  0  0  0  0  0  0  0
    1.7839   -8.3387   16.1235 C   0  0  0  0  0  0  0  0  0  0  0  0
    9.1118   -2.5094   26.4103 C   0  0  0  0  0  0  0  0  0  0  0  0
    1.2349  -10.6743   17.4578 C   0  0  0  0  0  0  0  0  0  0  0  0
    9.7571   -1.9786   25.3987 C   0  0  0  0  0  0  0  0  0  0  0  0
    4.1915   -9.7019   17.9886 C   0  0  0  0  0  0  0  0  0  0  0  0
    2.6118   -8.3348   15.8889 C   0  0  0  0  0  0  0  0  0  0  0  0
    9.9459   -2.5992   23.8271 C   0  0  0  0  0  0  0  0  0  0  0  0
    0.5957  -10.2158   16.6642 C   0  0  0  0  0  0  0  0  0  0  0  0
    3.4593   -9.4089   17.5470 Cl  0  0  0  0  0  0  0  0  0  0  0  0
    7.4740   -6.7562   15.9785 C   0  0  0  0  0  0  0  0  0  0  0  0
    6.1295   -8.7459   17.1475 N   0  0  0  0  0  0  0  0  0  0  0  0
   11.6760   -4.1263   20.0898 C   0  0  0  0  0  0  0  0  0  0  0  0
   10.7544   -6.2116   20.3508 C   0  0  0  0  0  0  0  0  0  0  0  0
   10.4566   -4.2960   25.4143 He  0  0  0  0  0  0  0  0  0  0  0  0
    6.7763   -8.0878   17.7157 He  0  0  0  0  0  0  0  0  0  0  0  0
   10.3215   -3.9622   26.7182 He  0  0  0  0  0  0  0  0  0  0  0  0
   10.4226   -4.4121   23.5752 He  0  0  0  0  0  0  0  0  0  0  0  0
  1  2  4  0
  1  6  4  0
  1 12  1  0
  1 20  1  0
  2  4  1  0
  2  6  4  0
  2  8  4  0
  2  9  4  0
  2 11  3  0
  2 13  1  0
  2 21  1  0
  3  5  1  0
  3  7  4  0
  3 20  2  0
  3 22  1  0
  4  8  3  0
  4  9  1  0
  4 10  3  0
  4 11  4  0
  4 17  4  0
  4 19  3  0
  4 22  2  0
  4 23  2  0
  4 24  4  0
  5  7  3  0
  5 11  2  0
  5 14  1  0
  6 11  2  0
  6 14  1  0
  6 17  4  0
  7 10  4  0
  7 13  3  0
  7 23  4  0
  8 18  3  0
  8 25  4  0
  9 11  4  0
  9 22  2  0
 10 18  2  0
 10 21  1  0
 10 23  2  0
 10 24  3  0
 11 14  2  0
 11 15  4  0
 11 22  3  0
 12 21  2  0
 12 24  1  0
 13 17  2  0
 13 19  3  0
 14 16  4  0
 15 17  4  0
 15 19  4  0
 15 20  1  0
 16 19  4  0
 16 23  3  0
 17 21  4  0
 17 23  3  0
 17 24  1  0
 18 20  3  0
 18 21  4  0
 18 23  1  0
 19 24  3  0
 19 25  4  0
 21 23  3  0
 23 24  4  0
 24 25  4  0
M  END
$$$$

 Created by Python create_sdf_string function

 29 23  0  0  0  0  0  0  0  0999 V2000
   10.7824   -4.0216   17.4226 C   0  0  0  0  0  0  0  0  0  0  0  0
   10.4036   -4.2662   25.3887 C   0  0  0  0  0  0  0  0  0  0  0  0
    9.4481   -7.9072   19.0274 C   0  0  0  0  0  0  0  0  0  0  0  0
   11.1752   -3.5865   18.6273 C   0  0  0  0  0  0  0  0  0  0  0  0
    5.4361   -7.3967   16.1050 O   0  0  0  0  0  0  0  0  0  0  0  0
   10.2377   -5.6083   18.7841 C   0  0  0  0  0  0  0  0  0  0  0  0
    8.6603   -6.1392   17.1115 C   0  0  0  0  0  0  0  0  0  0  0  0
    2.4815  -10.4711   17.3562 F   0  0  0  0  0  0  0  0  0  0  0  0
    2.9122   -9.8907   18.3009 C   0  0  0  0  0  0  0  0  0  0  0  0
    2.4782   -8.2499   15.3688 C   0  0  0  0  0  0  0  0  0  0  0  0
   10.1465   -4.2527   25.9772 C   0  0  0  0  0  0  0  0  0  0  0  0
    9.8493   -1.9280   23.5340 C   0  0  0  0  0  0  0  0  0  0  0  0
    1.0783   -9.8987   17.3926 C   0  0  0  0  0  0  0  0  0  0  0  0
    3.6322   -9.2790   16.7191 C   0  0  0  0  0  0  0  0  0  0  0  0
    5.6900   -9.0817   17.9749 N   0  0  0  0  0  0  0  0  0  0  0  0
   10.5304   -3.6165   23.6414 F   0  0  0  0  0  0  0  0  0  0  0  0
   10.8877   -4.4105   20.3868 C   0  0  0  0  0  0  0  0  0  0  0  0
   10.6679   -4.7712   19.2861 C   0  0  0  0  0  0  0  0  0  0  0  0
   10.7656   -4.9217   18.0914 He  0  0  0  0  0  0  0  0  0  0  0  0
    6.9735   -7.5156   16.6266 He  0  0  0  0  0  0  0  0  0  0  0  0
   10.6854   -3.9212   21.9608 He  0  0  0  0  0  0  0  0  0  0  0  0
    9.1296   -5.1601   16.4561 He  0  0  0  0  0  0  0  0  0  0  0  0
    5.2387   -8.6343   18.1599 He  0  0  0  0  0  0  0  0  0  0  0  0
   11.0316   -4.3528   21.1608 He  0  0  0  0  0  0  0  0  0  0  0  0
    1.6030   -8.3506   15.9811 He  0  0  0  0  0  0  0  0  0  0  0  0
    8.8792   -2.2558   26.0786 He  0  0  0  0  0  0  0  0  0  0  0  0
    8.8229   -2.0219   25.4341 He  0  0  0  0  0  0  0  0  0  0  0  0
    7.0728   -8.4598   17.6533 He  0  0  0  0  0  0  0  0  0  0  0  0
    8.6781   -7.2894   16.5007 He  0  0  0  0  0  0  0  0  0  0  0  0
  1  4  4  0
  2  7  1  0
  2 11  4  0
  3 14  4  0
  3 15  1  0
  4 15  1  0
  4 17  4  0
  6 17  4  0
  6 18  4  0
  8  9  1  0
  8 10  1  0
  8 11  4  0
  8 13  4  0
  9 10  3  0
  9 14  1  0
 11 12  1  0
 11 14  1  0
 11 17  4  0
 12 16  4  0
 13 15  3  0
 14 17  3  0
 16 17  2  0
 17 18  4  0
M  END
$$$$

 Created by Python create_sdf_string function

 29 54  0  0  0  0  0  0  0  0999 V2000
   10.5023   -4.1420   17.8762 C   0  0  0  0  0  0  0  0  0  0  0  0
   10.1266   -3.4036   25.0274 N   0  0  0  0  0  0  0  0  0  0  0  0
   10.1398   -5.1125   17.9646 C   0  0  0  0  0  0  0  0  0  0  0  0
    7.5065   -7.9796   16.6002 N   0  0  0  0  0  0  0  0  0  0  0  0
    8.8006   -7.2465   18.6418 S   0  0  0  0  0  0  0  0  0  0  0  0
   10.4168   -3.9630   21.9681 C   0  0  0  0  0  0  0  0  0  0  0  0
   11.4691   -3.4301   19.2327 C   0  0  0  0  0  0  0  0  0  0  0  0
    5.1408   -7.4008   16.9116 O   0  0  0  0  0  0  0  0  0  0  0  0
   10.2890   -5.7318   18.9684 C   0  0  0  0  0  0  0  0  0  0  0  0
    9.1381   -5.1740   16.8124 N   0  0  0  0  0  0  0  0  0  0  0  0
    5.3915   -8.7962   16.5857 N   0  0  0  0  0  0  0  0  0  0  0  0
    8.2090   -6.7108   16.9023 C   0  0  0  0  0  0  0  0  0  0  0  0
   11.4146   -3.7791   20.6813 C   0  0  0  0  0  0  0  0  0  0  0  0
    1.3398   -8.6465   15.4845 C   0  0  0  0  0  0  0  0  0  0  0  0
    8.9780   -2.6822   26.0804 C   0  0  0  0  0  0  0  0  0  0  0  0
    1.6296  -10.6954   17.2443 C   0  0  0  0  0  0  0  0  0  0  0  0
    6.9581   -8.4614   17.7162 N   0  0  0  0  0  0  0  0  0  0  0  0
    2.9074   -8.0429   16.1809 C   0  0  0  0  0  0  0  0  0  0  0  0
    9.3716   -4.3253   26.2053 C   0  0  0  0  0  0  0  0  0  0  0  0
    9.9170   -2.3122   23.4295 C   0  0  0  0  0  0  0  0  0  0  0  0
    8.3083   -6.7146   16.1542 C   0  0  0  0  0  0  0  0  0  0  0  0
    5.6505   -9.4032   17.8724 Cl  0  0  0  0  0  0  0  0  0  0  0  0
   10.5763   -3.6208   24.2746 Br  0  0  0  0  0  0  0  0  0  0  0  0
   11.4479   -3.8406   19.6177 C   0  0  0  0  0  0  0  0  0  0  0  0
    9.5454   -5.4376   20.0296 N   0  0  0  0  0  0  0  0  0  0  0  0
    8.9697   -2.3157   24.7898 He  0  0  0  0  0  0  0  0  0  0  0  0
    3.7801   -9.6542   17.7818 He  0  0  0  0  0  0  0  0  0  0  0  0
    0.7910   -9.7429   17.0603 He  0  0  0  0  0  0  0  0  0  0  0  0
    3.5587   -8.4492   17.0590 He  0  0  0  0  0  0  0  0  0  0  0  0
  1  3  4  0
  1  5  1  0
  1  7  4  0
  1 10  3  0
  1 14  4  0
  1 15  4  0
  1 22  4  0
  2  3  3  0
  2 10  2  0
  2 19  4  0
  2 23  1  0
  3  7  4  0
  3  9  4  0
  3 13  1  0
  4  7  2  0
  4  8  4  0
  4 17  4  0
  4 21  2  0
  5  9  3  0
  5 11  3  0
  5 12  4  0
  6 11  4  0
  6 13  1  0
  6 14  3  0
  6 16  4  0
  6 17  4  0
  6 23  1  0
  7 15  2  0
  7 18  4  0
  8 13  1  0
  8 15  3  0
  8 20  1  0
  9 15  3  0
  9 25  4  0
 10 12  4  0
 10 15  2  0
 10 22  1  0
 10 23  3  0
 11 18  1  0
 12 17  3  0
 12 20  1  0
 13 16  3  0
 13 24  2  0
 14 18  4  0
 15 19  4  0
 16 19  4  0
 17 23  4  0
 17 25  1  0
 18 20  4  0
 18 23  4  0
 20 23  4  0
 21 23  2  0
 23 25  3  0
 24 25  4  0
M  END
$$$$

 Created by Python create_sdf_string function

 29 61  0  0  0  0  0  0  0  0999 V2000
   11.0443   -3.6600   17.8780 C   0  0  0  0  0  0  0  0  0  0  0  0
   10.5763   -4.7418   25.5382 N   0  0  0  0  0  0  0  0  0  0  0  0
   10.0349   -5.1000   17.4291 C   0  0  0  0  0  0  0  0  0  0  0  0
    7.6442   -7.0976   17.1525 C   0  0  0  0  0  0  0  0  0  0  0  0
    8.9366   -6.8688   19.1679 S   0  0  0  0  0  0  0  0  0  0  0  0
   11.8009   -4.4934   23.3579 C   0  0  0  0  0  0  0  0  0  0  0  0
   11.5798   -3.6284   19.3456 C   0  0  0  0  0  0  0  0  0  0  0  0
    5.3894   -7.5496   15.8967 C   0  0  0  0  0  0  0  0  0  0  0  0
   10.5313   -5.9455   18.6533 C   0  0  0  0  0  0  0  0  0  0  0  0
    9.3091   -5.0312   16.9960 N   0  0  0  0  0  0  0  0  0  0  0  0
    4.8117   -8.7133   16.7786 O   0  0  0  0  0  0  0  0  0  0  0  0
    9.1583   -6.8404   16.4775 C   0  0  0  0  0  0  0  0  0  0  0  0
   11.2113   -3.4243   22.3956 C   0  0  0  0  0  0  0  0  0  0  0  0
    1.5769   -9.8762   17.4625 C   0  0  0  0  0  0  0  0  0  0  0  0
    8.8386   -1.5497   24.7843 C   0  0  0  0  0  0  0  0  0  0  0  0
    7.4918   -8.9884   17.1969 O   0  0  0  0  0  0  0  0  0  0  0  0
    2.8092   -9.9558   17.7170 C   0  0  0  0  0  0  0  0  0  0  0  0
    9.8849   -4.1741   25.6025 F   0  0  0  0  0  0  0  0  0  0  0  0
    9.9597   -2.1585   23.6575 C   0  0  0  0  0  0  0  0  0  0  0  0
    0.5662   -9.5020   16.2258 C   0  0  0  0  0  0  0  0  0  0  0  0
    2.9541   -9.1235   18.0131 C   0  0  0  0  0  0  0  0  0  0  0  0
    6.1277   -8.4710   18.1017 N   0  0  0  0  0  0  0  0  0  0  0  0
   10.4730   -3.3863   24.2512 C   0  0  0  0  0  0  0  0  0  0  0  0
   11.3698   -3.5823   20.4187 C   0  0  0  0  0  0  0  0  0  0  0  0
   10.7874   -4.9541   19.4251 C   0  0  0  0  0  0  0  0  0  0  0  0
    0.9875   -8.4810   16.3807 He  0  0  0  0  0  0  0  0  0  0  0  0
    9.5846   -2.1596   25.7443 He  0  0  0  0  0  0  0  0  0  0  0  0
    2.7630   -7.7042   15.8513 He  0  0  0  0  0  0  0  0  0  0  0  0
    8.3930   -7.1722   15.3445 He  0  0  0  0  0  0  0  0  0  0  0  0
  1  3  4  0
  1  7  4  0
  1 14  4  0
  1 16  2  0
  2 18  3  0
  2 19  4  0
  2 20  3  0
  2 23  4  0
  3  7  1  0
  3  9  4  0
  3 10  4  0
  3 12  2  0
  3 18  2  0
  3 25  2  0
  4 16  4  0
  4 18  3  0
  4 22  2  0
  5  6  4  0
  5  7  2  0
  5  9  2  0
  5 12  4  0
  5 19  1  0
  6 13  1  0
  6 15  4  0
  6 17  1  0
  6 19  3  0
  7 11  3  0
  7 19  1  0
  7 22  1  0
  7 24  4  0
  8 10  2  0
  8 14  1  0
  8 19  4  0
  9 10  3  0
  9 16  2  0
  9 19  2  0
 10 12  4  0
 10 15  2  0
 10 17  4  0
 11 21  2  0
 11 22  4  0
 11 23  2  0
 11 24  1  0
 11 25  1  0
 12 13  2  0
 12 20  4  0
 13 20  2  0
 13 21  4  0
 14 17  4  0
 14 18  4  0
 14 20  4  0
 15 18  1  0
 15 25  2  0
 16 18  4  0
 16 19  4  0
 16 22  4  0
 18 25  4  0
 19 23  4  0
 20 21  1  0
 21 25  2  0
 24 25  4  0
M  END
$$$$

 Created by Python create_sdf_string function

 29 40  0  0  0  0  0  0  0  0999 V2000
   10.7582   -2.6897   17.7791 C   0  0  0  0  0  0  0  0  0  0  0  0
   10.5318   -4.9439   17.7409 C   0  0  0  0  0  0  0  0  0  0  0  0
    9.3656   -6.8658   18.9356 S   0  0  0  0  0  0  0  0  0  0  0  0
   10.8713   -3.5201   19.0809 C   0  0  0  0  0  0  0  0  0  0  0  0
    5.0179   -7.4751   16.5794 C   0  0  0  0  0  0  0  0  0  0  0  0
    9.4913   -5.0917   16.6137 N   0  0  0  0  0  0  0  0  0  0  0  0
    5.0734   -8.2223   16.8469 C   0  0  0  0  0  0  0  0  0  0  0  0
    9.2873   -6.7161   16.8806 C   0  0  0  0  0  0  0  0  0  0  0  0
   11.2334   -3.0742   21.6381 C   0  0  0  0  0  0  0  0  0  0  0  0
    9.4292   -2.0737   25.8139 C   0  0  0  0  0  0  0  0  0  0  0  0
    6.4715   -8.4752   17.0180 O   0  0  0  0  0  0  0  0  0  0  0  0
    2.6102   -9.8243   17.6095 C   0  0  0  0  0  0  0  0  0  0  0  0
    2.8776   -8.2749   15.8427 C   0  0  0  0  0  0  0  0  0  0  0  0
    9.8831   -3.8222   25.6252 F   0  0  0  0  0  0  0  0  0  0  0  0
    9.8911   -2.5660   23.8734 C   0  0  0  0  0  0  0  0  0  0  0  0
    1.0305   -9.6029   17.2066 C   0  0  0  0  0  0  0  0  0  0  0  0
    3.3719   -8.8224   16.5865 O   0  0  0  0  0  0  0  0  0  0  0  0
    8.9936   -7.6455   15.5985 C   0  0  0  0  0  0  0  0  0  0  0  0
    6.5027   -9.0831   17.5444 B   0  0  0  0  0  0  0  0  0  0  0  0
   10.1650   -3.8836   23.3311 C   0  0  0  0  0  0  0  0  0  0  0  0
   11.4505   -3.5424   19.9487 C   0  0  0  0  0  0  0  0  0  0  0  0
   10.7143   -5.3209   20.0073 C   0  0  0  0  0  0  0  0  0  0  0  0
   10.6687   -3.8390   25.5509 He  0  0  0  0  0  0  0  0  0  0  0  0
    7.4697   -8.0725   16.7140 He  0  0  0  0  0  0  0  0  0  0  0  0
   11.2455   -4.7063   22.2558 He  0  0  0  0  0  0  0  0  0  0  0  0
   10.1781   -5.4623   18.6625 He  0  0  0  0  0  0  0  0  0  0  0  0
    0.8579   -8.3439   16.5578 He  0  0  0  0  0  0  0  0  0  0  0  0
    1.5985  -10.2069   17.3385 He  0  0  0  0  0  0  0  0  0  0  0  0
    9.6558   -1.4843   24.7468 He  0  0  0  0  0  0  0  0  0  0  0  0
  1  2  4  0
  2  6  4  0
  2  8  1  0
  2 21  1  0
  2 22  3  0
  3  5  2  0
  3 19  2  0
  4 19  1  0
  4 21  4  0
  4 22  1  0
  5  7  4  0
  5  8  2  0
  5 15  3  0
  6  8  4  0
  7 11  4  0
  7 13  4  0
  7 17  2  0
  7 18  3  0
  7 19  1  0
  7 20  1  0
  8 13  2  0
  8 18  1  0
  8 21  3  0
  9 16  4  0
  9 21  3  0
 10 14  4  0
 10 17  2  0
 11 19  4  0
 11 22  2  0
 12 14  1  0
 12 17  4  0
 12 20  4  0
 13 17  4  0
 14 15  1  0
 14 16  2  0
 14 17  2  0
 16 17  1  0
 17 20  3  0
 18 21  4  0
 21 22  3  0
M  END
$$$$

 Created by Python create_sdf_string function

 29 59  0  0  0  0  0  0  0  0999 V2000
   10.8920   -3.5055   18.2491 C   0  0  0  0  0  0  0  0  0  0  0  0
   10.4448   -4.3601   25.3470 C   0  0  0  0  0  0  0  0  0  0  0  0
   10.2208   -4.8178   17.7235 P   0  0  0  0  0  0  0  0  0  0  0  0
    9.4300   -7.3843   19.1559 S   0  0  0  0  0  0  0  0  0  0  0  0
   11.2305   -4.1808   22.6600 C   0  0  0  0  0  0  0  0  0  0  0  0
   10.5996   -3.4598   19.1761 C   0  0  0  0  0  0  0  0  0  0  0  0
    5.6046   -7.3981   16.3563 C   0  0  0  0  0  0  0  0  0  0  0  0
    9.4278   -5.1520   15.9855 C   0  0  0  0  0  0  0  0  0  0  0  0
    4.6087   -8.9007   17.5255 C   0  0  0  0  0  0  0  0  0  0  0  0
    9.0036   -7.0455   16.7327 C   0  0  0  0  0  0  0  0  0  0  0  0
   11.5567   -3.3568   20.9275 C   0  0  0  0  0  0  0  0  0  0  0  0
    0.9749   -8.5993   15.8040 C   0  0  0  0  0  0  0  0  0  0  0  0
    1.5564  -10.7160   17.4057 C   0  0  0  0  0  0  0  0  0  0  0  0
   10.2766   -1.8773   24.6328 Se  0  0  0  0  0  0  0  0  0  0  0  0
    6.9945   -9.3694   16.7465 N   0  0  0  0  0  0  0  0  0  0  0  0
    2.8836   -9.6173   17.6005 C   0  0  0  0  0  0  0  0  0  0  0  0
    2.0707   -7.3973   15.9126 C   0  0  0  0  0  0  0  0  0  0  0  0
    9.9813   -4.0579   26.0708 C   0  0  0  0  0  0  0  0  0  0  0  0
   10.1502   -2.3779   23.8260 C   0  0  0  0  0  0  0  0  0  0  0  0
    0.7831   -9.0013   17.1301 C   0  0  0  0  0  0  0  0  0  0  0  0
    3.1077   -8.6645   16.6343 Br  0  0  0  0  0  0  0  0  0  0  0  0
    8.5172   -7.4923   15.8899 C   0  0  0  0  0  0  0  0  0  0  0  0
    5.4637   -8.8061   17.7010 N   0  0  0  0  0  0  0  0  0  0  0  0
   10.3091   -3.2911   23.6916 O   0  0  0  0  0  0  0  0  0  0  0  0
   11.3821   -3.7787   19.9922 C   0  0  0  0  0  0  0  0  0  0  0  0
   10.8055   -5.5290   20.6835 C   0  0  0  0  0  0  0  0  0  0  0  0
    6.9467   -7.4880   16.2842 He  0  0  0  0  0  0  0  0  0  0  0  0
    9.9888   -5.3158   18.6799 He  0  0  0  0  0  0  0  0  0  0  0  0
    9.2366   -2.8610   26.1037 He  0  0  0  0  0  0  0  0  0  0  0  0
  1  3  4  0
  1  6  4  0
  1 22  1  0
  2  6  3  0
  2  8  1  0
  2 15  1  0
  2 24  4  0
  3  5  3  0
  3  7  3  0
  3  8  4  0
  3 18  3  0
  3 23  4  0
  3 26  3  0
  4  5  4  0
  4  8  3  0
  4 13  1  0
  4 15  4  0
  4 25  2  0
  5 17  2  0
  5 24  1  0
  6  9  2  0
  6 16  4  0
  6 17  3  0
  6 25  4  0
  7  9  4  0
  7 17  4  0
  7 22  2  0
  7 24  2  0
  8  9  1  0
  8 10  4  0
  8 15  3  0
  8 16  2  0
  9 20  4  0
  9 21  1  0
  9 23  4  0
 10 15  2  0
 10 17  2  0
 10 22  1  0
 11 25  1  0
 12 15  4  0
 12 16  3  0
 12 17  4  0
 12 20  4  0
 12 24  2  0
 13 16  2  0
 13 17  3  0
 13 19  1  0
 13 20  4  0
 14 20  3  0
 14 26  3  0
 15 23  4  0
 16 21  1  0
 17 21  4  0
 17 24  2  0
 18 25  3  0
 19 24  2  0
 21 25  1  0
 22 25  2  0
 25 26  4  0
M  END
$$$$

 Created by Python create_sdf_string function

 29 46  0  0  0  0  0  0  0  0999 V2000
   10.1341   -4.1081   17.7739 C   0  0  0  0  0  0  0  0  0  0  0  0
    6.8757   -7.7018   16.7816 C   0  0  0  0  0  0  0  0  0  0  0  0
    8.7605   -7.3097   17.7737 S   0  0  0  0  0  0  0  0  0  0  0  0
   11.0575   -4.2695   22.9698 C   0  0  0  0  0  0  0  0  0  0  0  0
    5.1946   -7.2071   16.1227 C   0  0  0  0  0  0  0  0  0  0  0  0
   10.0020   -6.3100   18.8916 C   0  0  0  0  0  0  0  0  0  0  0  0
    9.8546   -5.5374   16.2407 N   0  0  0  0  0  0  0  0  0  0  0  0
    4.4589   -8.5336   16.7337 C   0  0  0  0  0  0  0  0  0  0  0  0
    9.1065   -6.2582   16.6377 C   0  0  0  0  0  0  0  0  0  0  0  0
   11.2176   -3.1917   21.0659 C   0  0  0  0  0  0  0  0  0  0  0  0
    1.5168   -8.4410   15.9217 C   0  0  0  0  0  0  0  0  0  0  0  0
    9.8672   -2.2842   25.8243 C   0  0  0  0  0  0  0  0  0  0  0  0
    9.0224   -1.2933   24.4206 C   0  0  0  0  0  0  0  0  0  0  0  0
    2.7215  -10.0077   17.4827 C   0  0  0  0  0  0  0  0  0  0  0  0
    2.5253   -7.5970   15.7905 C   0  0  0  0  0  0  0  0  0  0  0  0
    9.9684   -3.9188   25.8294 C   0  0  0  0  0  0  0  0  0  0  0  0
   10.2320   -2.1234   23.7420 C   0  0  0  0  0  0  0  0  0  0  0  0
    1.0671   -9.1078   16.3491 I   0  0  0  0  0  0  0  0  0  0  0  0
    3.1176   -9.2548   17.2385 O   0  0  0  0  0  0  0  0  0  0  0  0
    6.2308   -9.2220   16.6693 N   0  0  0  0  0  0  0  0  0  0  0  0
   10.7498   -3.1260   24.1586 C   0  0  0  0  0  0  0  0  0  0  0  0
   11.0524   -4.1759   20.4071 C   0  0  0  0  0  0  0  0  0  0  0  0
   10.4211   -5.2035   20.2561 C   0  0  0  0  0  0  0  0  0  0  0  0
   11.0072   -4.2694   24.5862 He  0  0  0  0  0  0  0  0  0  0  0  0
   10.7791   -4.3934   17.9991 He  0  0  0  0  0  0  0  0  0  0  0  0
   10.8368   -3.2493   19.3556 He  0  0  0  0  0  0  0  0  0  0  0  0
    1.1752  -10.3945   17.6814 He  0  0  0  0  0  0  0  0  0  0  0  0
    6.8081   -8.8705   17.1447 He  0  0  0  0  0  0  0  0  0  0  0  0
    8.0759   -7.1115   15.6128 He  0  0  0  0  0  0  0  0  0  0  0  0
  1  9  2  0
  1 11  3  0
  1 15  3  0
  1 16  1  0
  2  5  4  0
  2 12  2  0
  2 17  2  0
  2 18  2  0
  3  5  4  0
  3  6  4  0
  3  9  4  0
  3 16  1  0
  4  8  3  0
  4 12  3  0
  4 17  3  0
  4 20  1  0
  4 22  4  0
  6 23  4  0
  7  9  4  0
  7 11  3  0
  8 12  3  0
  8 14  2  0
  8 20  4  0
  8 23  4  0
 10 15  2  0
 10 16  1  0
 10 22  1  0
 11 18  4  0
 12 13  4  0
 12 16  2  0
 12 21  1  0
 13 18  3  0
 14 19  4  0
 14 22  3  0
 15 19  4  0
 15 22  1  0
 16 19  1  0
 16 20  1  0
 17 21  4  0
 17 23  2  0
 18 20  4  0
 18 21  2  0
 19 20  1  0
 19 22  2  0
 21 22  1  0
 22 23  4  0
M  END
$$$$

 Created by Python create_sdf_string function

 29 41  0  0  0  0  0  0  0  0999 V2000
   10.5705   -3.5535   17.4942 C   0  0  0  0  0  0  0  0  0  0  0  0
   10.5096   -4.0028   25.2006 O   0  0  0  0  0  0  0  0  0  0  0  0
   10.2355   -4.6043   17.8748 C   0  0  0  0  0  0  0  0  0  0  0  0
    9.3906   -7.0476   17.6971 C   0  0  0  0  0  0  0  0  0  0  0  0
    5.5692   -7.3614   15.7791 C   0  0  0  0  0  0  0  0  0  0  0  0
    9.6738   -5.8664   18.5438 C   0  0  0  0  0  0  0  0  0  0  0  0
    9.5626   -4.9759   16.3313 N   0  0  0  0  0  0  0  0  0  0  0  0
    4.7120   -8.4243   16.5871 C   0  0  0  0  0  0  0  0  0  0  0  0
    8.6494   -6.4498   16.6865 C   0  0  0  0  0  0  0  0  0  0  0  0
    1.3963   -8.5341   15.7570 Cl  0  0  0  0  0  0  0  0  0  0  0  0
    9.0473   -2.5642   25.6365 F   0  0  0  0  0  0  0  0  0  0  0  0
    2.0664  -10.0498   17.0438 C   0  0  0  0  0  0  0  0  0  0  0  0
    8.7823   -1.5727   25.0929 C   0  0  0  0  0  0  0  0  0  0  0  0
    7.0736   -8.6431   16.4157 N   0  0  0  0  0  0  0  0  0  0  0  0
    3.0952   -9.8653   17.7771 C   0  0  0  0  0  0  0  0  0  0  0  0
    2.4075   -8.1530   16.0442 C   0  0  0  0  0  0  0  0  0  0  0  0
    9.7178   -3.6937   26.5969 C   0  0  0  0  0  0  0  0  0  0  0  0
    9.6560   -1.9379   23.6975 C   0  0  0  0  0  0  0  0  0  0  0  0
    0.8208   -8.8732   16.6396 C   0  0  0  0  0  0  0  0  0  0  0  0
    3.8709   -8.8861   17.1406 C   0  0  0  0  0  0  0  0  0  0  0  0
   10.3996   -2.9395   23.2595 C   0  0  0  0  0  0  0  0  0  0  0  0
   11.1872   -4.4984   20.1544 C   0  0  0  0  0  0  0  0  0  0  0  0
    6.8373   -8.1617   16.1903 He  0  0  0  0  0  0  0  0  0  0  0  0
   11.0628   -4.7582   22.7293 He  0  0  0  0  0  0  0  0  0  0  0  0
   11.1177   -3.0920   19.3846 He  0  0  0  0  0  0  0  0  0  0  0  0
   11.3805   -3.7374   21.3295 He  0  0  0  0  0  0  0  0  0  0  0  0
    7.7148   -7.1788   15.5804 He  0  0  0  0  0  0  0  0  0  0  0  0
    5.8172   -9.6096   17.5631 He  0  0  0  0  0  0  0  0  0  0  0  0
    9.9599   -5.4246   19.9853 He  0  0  0  0  0  0  0  0  0  0  0  0
  1  3  4  0
  1 11  2  0
  1 19  3  0
  2  8  4  0
  2  9  3  0
  2 17  2  0
  2 21  3  0
  2 22  4  0
  3  6  4  0
  3  7  4  0
  3 19  4  0
  4  6  4  0
  4  7  3  0
  4  9  4  0
  4 11  1  0
  4 20  4  0
  4 21  1  0
  5 15  2  0
  5 18  1  0
  6 19  2  0
  7  9  4  0
  7 21  3  0
  8 20  1  0
  9 16  3  0
  9 19  3  0
  9 22  1  0
 10 11  4  0
 10 16  4  0
 10 19  4  0
 10 22  1  0
 11 13  4  0
 11 20  4  0
 12 15  4  0
 12 19  3  0
 13 15  1  0
 14 22  3  0
 15 19  2  0
 15 21  3  0
 16 20  4  0
 17 19  4  0
 18 21  1  0
M  END
$$$$

 Created by Python create_sdf_string function

 29 48  0  0  0  0  0  0  0  0999 V2000
   10.2202   -3.8629   18.2450 C   0  0  0  0  0  0  0  0  0  0  0  0
   10.4160   -4.0311   25.6418 C   0  0  0  0  0  0  0  0  0  0  0  0
    6.3692   -7.4091   15.9515 N   0  0  0  0  0  0  0  0  0  0  0  0
    8.6821   -6.8320   17.3938 C   0  0  0  0  0  0  0  0  0  0  0  0
   11.2556   -4.0381   22.2979 C   0  0  0  0  0  0  0  0  0  0  0  0
    5.5898   -7.4937   15.8726 C   0  0  0  0  0  0  0  0  0  0  0  0
    9.6897   -5.4246   18.7363 C   0  0  0  0  0  0  0  0  0  0  0  0
    9.0315   -5.2673   16.9499 N   0  0  0  0  0  0  0  0  0  0  0  0
    4.7094   -8.4471   16.7873 C   0  0  0  0  0  0  0  0  0  0  0  0
   11.2770   -3.9750   21.7301 C   0  0  0  0  0  0  0  0  0  0  0  0
    1.7913   -8.1328   15.5766 O   0  0  0  0  0  0  0  0  0  0  0  0
    9.0555   -2.3886   25.5120 Cl  0  0  0  0  0  0  0  0  0  0  0  0
    1.6279  -10.1963   17.4144 C   0  0  0  0  0  0  0  0  0  0  0  0
    6.8602   -8.9493   17.1175 Br  0  0  0  0  0  0  0  0  0  0  0  0
    3.2386   -9.7408   17.9953 C   0  0  0  0  0  0  0  0  0  0  0  0
    2.2066   -7.6910   15.9786 N   0  0  0  0  0  0  0  0  0  0  0  0
    9.9669   -3.1935   26.4721 C   0  0  0  0  0  0  0  0  0  0  0  0
   10.0453   -2.2425   23.9167 C   0  0  0  0  0  0  0  0  0  0  0  0
    0.9343   -9.5337   16.5633 C   0  0  0  0  0  0  0  0  0  0  0  0
    3.9488   -8.7006   17.2724 C   0  0  0  0  0  0  0  0  0  0  0  0
    8.3382   -6.5859   15.2534 C   0  0  0  0  0  0  0  0  0  0  0  0
    5.6021   -9.1230   17.5154 N   0  0  0  0  0  0  0  0  0  0  0  0
   10.0578   -3.5990   23.9089 C   0  0  0  0  0  0  0  0  0  0  0  0
   10.8253   -4.3211   19.8326 C   0  0  0  0  0  0  0  0  0  0  0  0
   11.2730   -5.5310   19.7054 Se  0  0  0  0  0  0  0  0  0  0  0  0
    9.9406   -4.5796   17.7616 He  0  0  0  0  0  0  0  0  0  0  0  0
   11.0738   -2.9921   19.1257 He  0  0  0  0  0  0  0  0  0  0  0  0
    9.0194   -6.2580   15.8033 He  0  0  0  0  0  0  0  0  0  0  0  0
    9.0971   -2.0083   24.8371 He  0  0  0  0  0  0  0  0  0  0  0  0
  1  8  1  0
  1 13  3  0
  2  6  3  0
  2 10  2  0
  2 11  1  0
  2 17  4  0
  2 19  4  0
  2 23  4  0
  3  6  4  0
  3 14  4  0
  4  6  2  0
  4  7  4  0
  4  9  2  0
  4 14  2  0
  4 25  2  0
  5 10  1  0
  5 23  1  0
  6  9  4  0
  7 10  4  0
  7 17  2  0
  7 18  1  0
  7 25  4  0
  8 19  3  0
  8 24  4  0
  9 22  4  0
 10 24  1  0
 11 13  1  0
 11 16  4  0
 11 19  4  0
 11 22  4  0
 12 13  3  0
 12 14  3  0
 12 16  4  0
 12 17  4  0
 13 15  4  0
 13 16  3  0
 13 19  2  0
 14 15  4  0
 14 22  3  0
 15 20  4  0
 15 25  4  0
 16 18  3  0
 16 19  1  0
 16 20  4  0
 18 23  4  0
 18 25  3  0
 19 23  1  0
 22 24  2  0
M  END
$$$$

 Created by Python create_sdf_string function

 29 56  0  0  0  0  0  0  0  0999 V2000
   10.3867   -3.5801   18.3102 C   0  0  0  0  0  0  0  0  0  0  0  0
   10.7221   -4.3065   25.0732 S   0  0  0  0  0  0  0  0  0  0  0  0
    9.9196   -4.8863   17.5703 C   0  0  0  0  0  0  0  0  0  0  0  0
    6.8510   -7.3840   16.4075 C   0  0  0  0  0  0  0  0  0  0  0  0
    9.4326   -6.3857   17.4031 S   0  0  0  0  0  0  0  0  0  0  0  0
   10.9316   -4.1474   22.7216 C   0  0  0  0  0  0  0  0  0  0  0  0
   11.1061   -3.4292   19.3796 C   0  0  0  0  0  0  0  0  0  0  0  0
    5.2679   -7.3771   15.9254 C   0  0  0  0  0  0  0  0  0  0  0  0
   10.0154   -5.6803   18.8758 C   0  0  0  0  0  0  0  0  0  0  0  0
    8.9734   -4.9842   16.1150 N   0  0  0  0  0  0  0  0  0  0  0  0
    5.4031   -8.7348   16.4948 C   0  0  0  0  0  0  0  0  0  0  0  0
    8.3792   -5.5593   16.4996 C   0  0  0  0  0  0  0  0  0  0  0  0
   11.1594   -4.1092   21.1893 C   0  0  0  0  0  0  0  0  0  0  0  0
    1.4801   -8.6383   15.7370 C   0  0  0  0  0  0  0  0  0  0  0  0
    9.4472   -2.5782   26.2018 F   0  0  0  0  0  0  0  0  0  0  0  0
    8.9040   -1.9671   24.8000 C   0  0  0  0  0  0  0  0  0  0  0  0
    6.7467   -9.1432   16.6729 I   0  0  0  0  0  0  0  0  0  0  0  0
    3.0024   -9.6593   17.8253 O   0  0  0  0  0  0  0  0  0  0  0  0
    2.7019   -7.7302   15.8718 N   0  0  0  0  0  0  0  0  0  0  0  0
   10.2904   -3.2707   26.0735 C   0  0  0  0  0  0  0  0  0  0  0  0
    0.8354   -9.5747   16.6807 C   0  0  0  0  0  0  0  0  0  0  0  0
    3.7460   -9.0335   16.8704 C   0  0  0  0  0  0  0  0  0  0  0  0
    7.7626   -6.2759   14.9836 C   0  0  0  0  0  0  0  0  0  0  0  0
   11.2458   -4.3740   20.6049 C   0  0  0  0  0  0  0  0  0  0  0  0
   10.1817   -5.1456   19.4368 C   0  0  0  0  0  0  0  0  0  0  0  0
    2.0059  -10.1889   17.3549 He  0  0  0  0  0  0  0  0  0  0  0  0
   10.2344   -2.3757   23.7634 He  0  0  0  0  0  0  0  0  0  0  0  0
    6.3266   -9.1915   17.3379 He  0  0  0  0  0  0  0  0  0  0  0  0
   10.5464   -3.6441   23.7096 He  0  0  0  0  0  0  0  0  0  0  0  0
  1  3  4  0
  1  7  4  0
  1 17  4  0
  2 20  4  0
  2 25  2  0
  3  6  3  0
  3  9  4  0
  3 10  4  0
  3 18  4  0
  3 21  2  0
  4  8  4  0
  4 12  2  0
  4 17  4  0
  4 18  3  0
  4 20  1  0
  4 22  1  0
  4 23  1  0
  4 24  4  0
  5  9  2  0
  5 10  3  0
  5 12  4  0
  6  9  4  0
  6 13  1  0
  6 17  2  0
  7  8  3  0
  7 11  2  0
  7 17  3  0
  7 24  4  0
  7 25  2  0
  8 11  4  0
  8 21  3  0
  9 12  3  0
  9 22  3  0
  9 24  3  0
  9 25  4  0
 10 12  4  0
 10 13  2  0
 10 14  1  0
 10 17  3  0
 11 15  2  0
 11 17  2  0
 11 21  3  0
 11 22  1  0
 12 13  4  0
 12 23  1  0
 14 16  3  0
 14 19  4  0
 14 21  4  0
 15 16  4  0
 15 20  4  0
 15 25  2  0
 16 21  1  0
 18 21  2  0
 19 22  4  0
 22 24  3  0
 24 25  3  0
M  END
$$$$

 Created by Python create_sdf_string function

 29 38  0  0  0  0  0  0  0  0999 V2000
   10.8604   -2.8708   17.7823 C   0  0  0  0  0  0  0  0  0  0  0  0
   11.3412   -4.4106   25.1600 C   0  0  0  0  0  0  0  0  0  0  0  0
    9.6984   -4.6086   17.6885 F   0  0  0  0  0  0  0  0  0  0  0  0
    9.5663   -6.3827   18.1247 C   0  0  0  0  0  0  0  0  0  0  0  0
    9.6396   -6.1373   18.0314 C   0  0  0  0  0  0  0  0  0  0  0  0
    9.0560   -4.6747   16.3739 N   0  0  0  0  0  0  0  0  0  0  0  0
    4.6448   -8.6208   16.7968 C   0  0  0  0  0  0  0  0  0  0  0  0
    9.3487   -6.2639   16.3228 C   0  0  0  0  0  0  0  0  0  0  0  0
   11.2783   -3.8126   21.8751 C   0  0  0  0  0  0  0  0  0  0  0  0
    1.5741   -8.3511   16.1811 C   0  0  0  0  0  0  0  0  0  0  0  0
    9.3658   -2.3522   26.0141 S   0  0  0  0  0  0  0  0  0  0  0  0
    2.2906  -10.1916   18.0030 C   0  0  0  0  0  0  0  0  0  0  0  0
    3.3391   -9.8836   17.5778 C   0  0  0  0  0  0  0  0  0  0  0  0
    2.6162   -7.9228   15.6624 N   0  0  0  0  0  0  0  0  0  0  0  0
   10.4196   -3.1288   25.9640 C   0  0  0  0  0  0  0  0  0  0  0  0
    9.7248   -2.7112   23.4496 N   0  0  0  0  0  0  0  0  0  0  0  0
    1.3221   -9.6607   16.7512 C   0  0  0  0  0  0  0  0  0  0  0  0
    3.9985   -8.6374   16.8628 C   0  0  0  0  0  0  0  0  0  0  0  0
    7.8072   -6.2567   15.7648 C   0  0  0  0  0  0  0  0  0  0  0  0
   10.6144   -3.8765   23.7895 C   0  0  0  0  0  0  0  0  0  0  0  0
   10.7623   -4.2989   19.4949 C   0  0  0  0  0  0  0  0  0  0  0  0
   10.6067   -5.0387   19.4071 C   0  0  0  0  0  0  0  0  0  0  0  0
    6.8473   -7.8833   16.4656 He  0  0  0  0  0  0  0  0  0  0  0  0
   11.0756   -4.4515   22.6748 He  0  0  0  0  0  0  0  0  0  0  0  0
   10.9452   -2.8598   19.3448 He  0  0  0  0  0  0  0  0  0  0  0  0
    5.4875   -7.4668   15.9825 He  0  0  0  0  0  0  0  0  0  0  0  0
    9.3206   -1.4366   24.7183 He  0  0  0  0  0  0  0  0  0  0  0  0
    7.1810   -8.7083   16.9564 He  0  0  0  0  0  0  0  0  0  0  0  0
    5.9428   -8.6942   16.9305 He  0  0  0  0  0  0  0  0  0  0  0  0
  1  3  4  0
  1  5  4  0
  1 11  3  0
  1 17  3  0
  2 13  4  0
  2 15  4  0
  2 20  4  0
  2 22  1  0
  3  5  4  0
  3  6  3  0
  4  5  4  0
  4  8  4  0
  4 20  1  0
  5 11  1  0
  5 18  1  0
  5 22  4  0
  6  8  4  0
  7 18  1  0
  8 19  1  0
  8 21  1  0
  9 16  2  0
  9 21  1  0
 10 12  4  0
 10 14  1  0
 10 17  4  0
 11 13  2  0
 11 15  4  0
 11 17  2  0
 11 20  4  0
 12 13  2  0
 12 17  4  0
 13 18  4  0
 14 18  4  0
 16 17  3  0
 16 20  4  0
 16 21  2  0
 18 22  3  0
 21 22  4  0
M  END
$$$$

 Created by Python create_sdf_string function

 29 39  0  0  0  0  0  0  0  0999 V2000
   10.0882   -3.3005   18.1777 C   0  0  0  0  0  0  0  0  0  0  0  0
   10.9461   -3.9300   25.0635 C   0  0  0  0  0  0  0  0  0  0  0  0
   10.1884   -4.1787   17.4202 C   0  0  0  0  0  0  0  0  0  0  0  0
    6.8762   -8.3769   16.5123 C   0  0  0  0  0  0  0  0  0  0  0  0
    9.4252   -6.5461   17.7858 C   0  0  0  0  0  0  0  0  0  0  0  0
    9.9234   -5.7395   17.9613 C   0  0  0  0  0  0  0  0  0  0  0  0
    8.9421   -4.9779   16.3548 N   0  0  0  0  0  0  0  0  0  0  0  0
    4.8157   -8.4568   16.7042 C   0  0  0  0  0  0  0  0  0  0  0  0
    8.8200   -6.7371   16.8427 F   0  0  0  0  0  0  0  0  0  0  0  0
   11.1394   -3.3721   21.2607 C   0  0  0  0  0  0  0  0  0  0  0  0
    1.1091   -8.7465   15.7911 N   0  0  0  0  0  0  0  0  0  0  0  0
    9.7086   -2.0107   25.1909 C   0  0  0  0  0  0  0  0  0  0  0  0
    1.9902  -10.2312   17.5401 C   0  0  0  0  0  0  0  0  0  0  0  0
    6.9920   -8.8388   16.9349 N   0  0  0  0  0  0  0  0  0  0  0  0
    2.9655   -9.7129   17.3423 C   0  0  0  0  0  0  0  0  0  0  0  0
    2.7261   -8.6025   16.4013 N   0  0  0  0  0  0  0  0  0  0  0  0
   10.3315   -3.4792   25.8116 C   0  0  0  0  0  0  0  0  0  0  0  0
    9.9074   -2.2426   23.5172 N   0  0  0  0  0  0  0  0  0  0  0  0
    0.9933   -9.1449   17.1223 C   0  0  0  0  0  0  0  0  0  0  0  0
    3.7854   -9.3093   16.6587 C   0  0  0  0  0  0  0  0  0  0  0  0
    6.1792   -9.0172   17.1880 C   0  0  0  0  0  0  0  0  0  0  0  0
   10.6777   -4.0353   20.0161 C   0  0  0  0  0  0  0  0  0  0  0  0
   10.0158   -5.2056   19.8099 C   0  0  0  0  0  0  0  0  0  0  0  0
   10.4874   -4.8076   22.2810 He  0  0  0  0  0  0  0  0  0  0  0  0
   10.7926   -3.1975   19.4005 He  0  0  0  0  0  0  0  0  0  0  0  0
    5.3951   -7.4391   15.8332 He  0  0  0  0  0  0  0  0  0  0  0  0
    9.4588   -1.6900   24.8629 He  0  0  0  0  0  0  0  0  0  0  0  0
    7.6468   -6.8574   15.4097 He  0  0  0  0  0  0  0  0  0  0  0  0
   10.5065   -3.5592   23.9590 He  0  0  0  0  0  0  0  0  0  0  0  0
  1  3  4  0
  2 17  4  0
  2 19  4  0
  2 22  1  0
  3  6  4  0
  3  7  4  0
  3  8  4  0
  3  9  4  0
  4  9  4  0
  4 14  4  0
  5  6  4  0
  5  9  4  0
  6  7  1  0
  6 10  1  0
  6 14  1  0
  6 23  4  0
  7  9  4  0
  7 20  4  0
  8 20  1  0
  8 21  4  0
  9 11  3  0
  9 12  1  0
  9 13  4  0
  9 15  1  0
 10 15  2  0
 10 22  1  0
 11 15  2  0
 11 16  4  0
 12 13  2  0
 12 17  4  0
 12 18  4  0
 13 19  4  0
 13 21  1  0
 14 21  3  0
 15 20  1  0
 16 20  1  0
 18 20  2  0
 21 22  4  0
 22 23  4  0
M  END
$$$$

 Created by Python create_sdf_string function

 29 52  0  0  0  0  0  0  0  0999 V2000
   10.5000   -3.2349   17.6748 C   0  0  0  0  0  0  0  0  0  0  0  0
   10.9327   -3.5969   24.6996 C   0  0  0  0  0  0  0  0  0  0  0  0
    7.4196   -7.4782   16.3535 C   0  0  0  0  0  0  0  0  0  0  0  0
    9.1392   -6.5290   17.6474 Se  0  0  0  0  0  0  0  0  0  0  0  0
   10.7413   -4.4979   22.1790 C   0  0  0  0  0  0  0  0  0  0  0  0
   10.1053   -3.3058   18.9301 C   0  0  0  0  0  0  0  0  0  0  0  0
    5.7953   -7.6870   16.0925 C   0  0  0  0  0  0  0  0  0  0  0  0
   10.0488   -5.8457   18.4606 C   0  0  0  0  0  0  0  0  0  0  0  0
    9.0221   -4.7861   15.9894 N   0  0  0  0  0  0  0  0  0  0  0  0
    4.8524   -8.7346   16.4817 C   0  0  0  0  0  0  0  0  0  0  0  0
    9.0445   -5.9363   16.6493 C   0  0  0  0  0  0  0  0  0  0  0  0
   11.7158   -3.5493   21.3291 C   0  0  0  0  0  0  0  0  0  0  0  0
    1.5418   -8.3147   16.2959 C   0  0  0  0  0  0  0  0  0  0  0  0
    9.8202   -2.1693   25.8637 C   0  0  0  0  0  0  0  0  0  0  0  0
    2.0543  -10.6774   17.6706 C   0  0  0  0  0  0  0  0  0  0  0  0
    9.5884   -1.2269   24.6869 C   0  0  0  0  0  0  0  0  0  0  0  0
    6.8864   -9.0248   17.0028 N   0  0  0  0  0  0  0  0  0  0  0  0
    2.8963   -9.6630   17.3220 C   0  0  0  0  0  0  0  0  0  0  0  0
    2.6626   -8.7063   16.1079 N   0  0  0  0  0  0  0  0  0  0  0  0
   10.6697   -3.0649   25.9751 C   0  0  0  0  0  0  0  0  0  0  0  0
   10.2512   -1.8725   23.8441 N   0  0  0  0  0  0  0  0  0  0  0  0
    0.8001   -9.6803   17.0424 C   0  0  0  0  0  0  0  0  0  0  0  0
    3.4692   -9.0835   16.6946 C   0  0  0  0  0  0  0  0  0  0  0  0
    8.0417   -7.4352   15.0757 C   0  0  0  0  0  0  0  0  0  0  0  0
    9.6543   -3.6226   23.4710 C   0  0  0  0  0  0  0  0  0  0  0  0
   10.5996   -4.5516   20.3447 C   0  0  0  0  0  0  0  0  0  0  0  0
   10.0555   -4.9256   17.4471 He  0  0  0  0  0  0  0  0  0  0  0  0
    5.5967   -9.4329   17.4692 He  0  0  0  0  0  0  0  0  0  0  0  0
   10.4809   -5.6383   19.6565 He  0  0  0  0  0  0  0  0  0  0  0  0
  1  6  4  0
  1 17  2  0
  1 20  4  0
  2 20  4  0
  2 25  4  0
  3  7  4  0
  3  8  1  0
  3 17  4  0
  3 19  3  0
  3 24  1  0
  4  7  4  0
  4  8  4  0
  4 11  4  0
  4 17  4  0
  5 10  2  0
  5 11  2  0
  5 12  1  0
  5 18  1  0
  5 25  3  0
  6  7  3  0
  6 25  4  0
  6 26  1  0
  7 10  4  0
  7 22  3  0
  8 16  4  0
  8 19  4  0
  9 11  4  0
  9 17  4  0
  9 22  1  0
 10 23  1  0
 11 13  2  0
 11 15  2  0
 11 23  2  0
 11 24  1  0
 12 14  2  0
 12 26  3  0
 13 22  3  0
 14 16  4  0
 14 20  4  0
 14 21  3  0
 15 18  4  0
 15 22  4  0
 15 23  4  0
 16 21  4  0
 17 19  3  0
 17 20  3  0
 17 23  4  0
 18 19  4  0
 18 23  4  0
 18 26  3  0
 19 23  4  0
 25 26  2  0
M  END
$$$$

 Created by Python create_sdf_string function

 29 49  0  0  0  0  0  0  0  0999 V2000
   10.4770   -3.3604   17.7846 P   0  0  0  0  0  0  0  0  0  0  0  0
   10.6007   -3.7383   24.3643 C   0  0  0  0  0  0  0  0  0  0  0  0
    9.6974   -4.4935   17.6300 C   0  0  0  0  0  0  0  0  0  0  0  0
    6.8220   -7.8834   15.9252 C   0  0  0  0  0  0  0  0  0  0  0  0
   10.1274   -4.2899   22.8148 C   0  0  0  0  0  0  0  0  0  0  0  0
   10.9651   -3.4694   19.3538 C   0  0  0  0  0  0  0  0  0  0  0  0
    5.6988   -7.7975   15.9205 C   0  0  0  0  0  0  0  0  0  0  0  0
   10.0214   -5.7599   18.1470 C   0  0  0  0  0  0  0  0  0  0  0  0
    9.5630   -5.0574   16.6718 N   0  0  0  0  0  0  0  0  0  0  0  0
    5.0340   -8.6962   16.3240 C   0  0  0  0  0  0  0  0  0  0  0  0
    8.7680   -6.4668   16.4531 C   0  0  0  0  0  0  0  0  0  0  0  0
   11.3873   -3.8114   21.0322 O   0  0  0  0  0  0  0  0  0  0  0  0
    9.8760   -2.2070   25.9039 C   0  0  0  0  0  0  0  0  0  0  0  0
    1.7161  -10.1321   17.6182 C   0  0  0  0  0  0  0  0  0  0  0  0
    9.3578   -1.5159   23.9144 C   0  0  0  0  0  0  0  0  0  0  0  0
    7.2179   -8.9581   16.9821 N   0  0  0  0  0  0  0  0  0  0  0  0
    3.1921  -10.0364   17.1952 C   0  0  0  0  0  0  0  0  0  0  0  0
   10.5846   -2.9323   25.8992 C   0  0  0  0  0  0  0  0  0  0  0  0
    9.8622   -2.4702   23.5212 N   0  0  0  0  0  0  0  0  0  0  0  0
    1.0183   -9.4183   17.1685 C   0  0  0  0  0  0  0  0  0  0  0  0
    3.6130   -9.5356   17.0575 C   0  0  0  0  0  0  0  0  0  0  0  0
    7.7494   -7.1383   15.2479 C   0  0  0  0  0  0  0  0  0  0  0  0
    5.9069   -9.0227   17.3662 N   0  0  0  0  0  0  0  0  0  0  0  0
   10.6001   -3.1877   23.4903 C   0  0  0  0  0  0  0  0  0  0  0  0
   10.5572   -4.4742   19.2207 N   0  0  0  0  0  0  0  0  0  0  0  0
   10.6728   -5.7223   19.5725 C   0  0  0  0  0  0  0  0  0  0  0  0
    8.9562   -6.8888   17.5414 He  0  0  0  0  0  0  0  0  0  0  0  0
    1.4968   -8.5533   16.4407 He  0  0  0  0  0  0  0  0  0  0  0  0
    2.6165   -7.7945   15.9532 He  0  0  0  0  0  0  0  0  0  0  0  0
  1  3  4  0
  1 14  4  0
  2 11  2  0
  2 18  4  0
  2 20  2  0
  2 24  4  0
  3  4  1  0
  3  8  4  0
  3  9  4  0
  3 17  2  0
  3 19  1  0
  4  7  3  0
  4 16  4  0
  4 22  1  0
  5 12  1  0
  5 21  4  0
  5 24  1  0
  6 22  4  0
  6 25  4  0
  7 10  4  0
  7 12  4  0
  7 21  4  0
  8 13  3  0
  8 21  4  0
  8 26  4  0
  9 18  1  0
 10 21  1  0
 11 13  3  0
 11 22  1  0
 11 26  3  0
 12 14  1  0
 12 16  1  0
 12 25  1  0
 13 15  4  0
 13 18  4  0
 13 19  4  0
 14 17  4  0
 14 20  3  0
 15 19  3  0
 15 24  3  0
 16 23  4  0
 16 25  4  0
 17 21  4  0
 17 23  3  0
 18 22  2  0
 19 24  4  0
 20 24  3  0
 21 22  3  0
 22 24  4  0
M  END
$$$$

 Created by Python create_sdf_string function

 29 57  0  0  0  0  0  0  0  0999 V2000
   10.5339   -3.4086   17.8648 C   0  0  0  0  0  0  0  0  0  0  0  0
   10.9150   -3.7124   24.5663 C   0  0  0  0  0  0  0  0  0  0  0  0
   10.0175   -4.8965   17.0800 C   0  0  0  0  0  0  0  0  0  0  0  0
    7.1472   -8.1181   15.7657 C   0  0  0  0  0  0  0  0  0  0  0  0
    9.4142   -6.7743   17.6161 N   0  0  0  0  0  0  0  0  0  0  0  0
    9.9980   -4.4112   22.2858 C   0  0  0  0  0  0  0  0  0  0  0  0
   10.9234   -3.0585   18.7300 C   0  0  0  0  0  0  0  0  0  0  0  0
    5.6826   -7.6311   15.7286 C   0  0  0  0  0  0  0  0  0  0  0  0
    9.3489   -5.9028   18.2757 O   0  0  0  0  0  0  0  0  0  0  0  0
    8.7682   -5.2015   16.1069 N   0  0  0  0  0  0  0  0  0  0  0  0
    5.3590   -8.5155   16.7220 C   0  0  0  0  0  0  0  0  0  0  0  0
    9.3169   -6.1174   16.4513 C   0  0  0  0  0  0  0  0  0  0  0  0
   11.1733   -3.7616   21.0150 O   0  0  0  0  0  0  0  0  0  0  0  0
    9.5156   -1.8618   25.4114 C   0  0  0  0  0  0  0  0  0  0  0  0
    1.8135  -10.0726   17.3029 C   0  0  0  0  0  0  0  0  0  0  0  0
    9.5500   -1.5736   24.3854 C   0  0  0  0  0  0  0  0  0  0  0  0
    7.1312   -8.4974   16.8814 N   0  0  0  0  0  0  0  0  0  0  0  0
    3.3055  -10.5367   17.3874 C   0  0  0  0  0  0  0  0  0  0  0  0
    2.6896   -8.1710   16.3072 N   0  0  0  0  0  0  0  0  0  0  0  0
   10.4510   -2.9185   25.5317 O   0  0  0  0  0  0  0  0  0  0  0  0
    9.7187   -2.2711   23.5115 N   0  0  0  0  0  0  0  0  0  0  0  0
    0.7575   -9.8592   16.7534 C   0  0  0  0  0  0  0  0  0  0  0  0
    3.7227   -9.1158   16.6452 C   0  0  0  0  0  0  0  0  0  0  0  0
    7.8400   -7.1422   15.3271 C   0  0  0  0  0  0  0  0  0  0  0  0
    6.2290   -9.0797   17.2057 S   0  0  0  0  0  0  0  0  0  0  0  0
   10.7865   -4.4742   19.8715 O   0  0  0  0  0  0  0  0  0  0  0  0
   10.6957   -5.1737   19.4740 C   0  0  0  0  0  0  0  0  0  0  0  0
    1.1334   -8.3953   16.3544 He  0  0  0  0  0  0  0  0  0  0  0  0
   10.3768   -3.1568   23.3896 He  0  0  0  0  0  0  0  0  0  0  0  0
  1  3  4  0
  1  7  4  0
  2  6  2  0
  2  8  4  0
  2 15  3  0
  2 20  4  0
  3  5  3  0
  3 10  4  0
  3 11  4  0
  3 14  3  0
  4  6  1  0
  4  8  4  0
  4 21  3  0
  4 24  1  0
  4 27  3  0
  5 21  1  0
  6 13  1  0
  7 13  3  0
  7 14  4  0
  7 17  2  0
  7 19  3  0
  7 26  3  0
  8 11  4  0
  9 24  3  0
  9 27  4  0
 10 12  4  0
 10 17  3  0
 10 23  2  0
 11 23  1  0
 11 27  4  0
 12 19  4  0
 13 15  1  0
 13 17  2  0
 13 18  4  0
 13 22  3  0
 13 23  3  0
 13 26  1  0
 14 16  4  0
 14 20  4  0
 14 24  4  0
 15 18  4  0
 15 21  1  0
 15 22  4  0
 15 25  2  0
 16 19  3  0
 16 21  4  0
 17 25  4  0
 17 26  1  0
 18 20  3  0
 18 23  3  0
 18 25  2  0
 19 20  1  0
 19 23  4  0
 19 24  1  0
 21 24  2  0
 22 25  2  0
 26 27  2  0
M  END
$$$$

 Created by Python create_sdf_string function

 29 42  0  0  0  0  0  0  0  0999 V2000
   10.8935   -3.6793   24.7148 C   0  0  0  0  0  0  0  0  0  0  0  0
    9.7080   -4.6456   16.9880 C   0  0  0  0  0  0  0  0  0  0  0  0
    9.6973   -6.8129   17.6402 N   0  0  0  0  0  0  0  0  0  0  0  0
   10.7960   -3.9063   22.3459 C   0  0  0  0  0  0  0  0  0  0  0  0
   11.3260   -3.2990   18.6649 C   0  0  0  0  0  0  0  0  0  0  0  0
    5.6550   -7.5269   15.9362 C   0  0  0  0  0  0  0  0  0  0  0  0
   10.2296   -5.5385   18.1891 C   0  0  0  0  0  0  0  0  0  0  0  0
    8.9370   -4.6366   16.0958 N   0  0  0  0  0  0  0  0  0  0  0  0
    4.9112   -8.5842   16.9378 C   0  0  0  0  0  0  0  0  0  0  0  0
    8.8954   -6.4526   16.2989 C   0  0  0  0  0  0  0  0  0  0  0  0
   11.4982   -3.6807   21.1084 O   0  0  0  0  0  0  0  0  0  0  0  0
    1.7086   -8.3736   16.4632 C   0  0  0  0  0  0  0  0  0  0  0  0
    9.8816   -1.8709   25.4308 C   0  0  0  0  0  0  0  0  0  0  0  0
    1.8735  -10.4727   17.8970 C   0  0  0  0  0  0  0  0  0  0  0  0
    9.1572   -1.0149   24.4809 C   0  0  0  0  0  0  0  0  0  0  0  0
    6.9812   -8.8788   16.7890 N   0  0  0  0  0  0  0  0  0  0  0  0
    3.0523  -10.2287   17.0937 C   0  0  0  0  0  0  0  0  0  0  0  0
    2.7181   -8.3256   15.7143 N   0  0  0  0  0  0  0  0  0  0  0  0
   10.0076   -2.9951   25.6613 C   0  0  0  0  0  0  0  0  0  0  0  0
    9.9496   -1.8854   23.0988 N   0  0  0  0  0  0  0  0  0  0  0  0
    1.2599   -9.8624   16.7662 C   0  0  0  0  0  0  0  0  0  0  0  0
   10.1799   -3.3629   23.3184 C   0  0  0  0  0  0  0  0  0  0  0  0
   10.9275   -4.3174   19.8828 C   0  0  0  0  0  0  0  0  0  0  0  0
   10.2809   -5.6368   19.2463 C   0  0  0  0  0  0  0  0  0  0  0  0
   10.4610   -3.3763   17.6846 He  0  0  0  0  0  0  0  0  0  0  0  0
    6.9307   -7.6856   15.9054 He  0  0  0  0  0  0  0  0  0  0  0  0
    3.7766   -8.6499   17.0520 He  0  0  0  0  0  0  0  0  0  0  0  0
    8.2431   -6.7253   15.0481 He  0  0  0  0  0  0  0  0  0  0  0  0
    6.0329   -9.4554   17.1352 He  0  0  0  0  0  0  0  0  0  0  0  0
  1  9  3  0
  1 19  4  0
  1 22  4  0
  2  7  3  0
  2  8  4  0
  2  9  2  0
  2 14  3  0
  2 16  4  0
  3  5  1  0
  3 10  4  0
  3 14  3  0
  3 23  3  0
  4 11  1  0
  4 16  2  0
  4 22  1  0
  5  7  1  0
  5 13  1  0
  5 23  4  0
  6  7  2  0
  6  9  4  0
  7 24  4  0
  8 10  4  0
  9 14  4  0
  9 20  1  0
 10 22  1  0
 11 18  3  0
 11 23  1  0
 11 24  2  0
 12 18  4  0
 12 19  1  0
 12 21  4  0
 12 23  1  0
 13 15  4  0
 13 19  4  0
 14 21  4  0
 15 18  3  0
 15 20  4  0
 16 17  1  0
 16 19  2  0
 17 24  3  0
 22 23  4  0
 23 24  4  0
M  END
$$$$

 Created by Python create_sdf_string function

 29 53  0  0  0  0  0  0  0  0999 V2000
   10.7856   -3.5095   17.8278 C   0  0  0  0  0  0  0  0  0  0  0  0
   10.8556   -3.7236   24.6096 C   0  0  0  0  0  0  0  0  0  0  0  0
    7.1261   -8.2954   16.1353 C   0  0  0  0  0  0  0  0  0  0  0  0
    9.5197   -6.5578   17.5641 N   0  0  0  0  0  0  0  0  0  0  0  0
   10.5464   -3.9336   22.2068 C   0  0  0  0  0  0  0  0  0  0  0  0
   10.9901   -3.4096   19.0518 F   0  0  0  0  0  0  0  0  0  0  0  0
    5.9264   -7.5866   16.1638 O   0  0  0  0  0  0  0  0  0  0  0  0
    9.9577   -5.9008   18.0632 C   0  0  0  0  0  0  0  0  0  0  0  0
    9.0273   -4.9687   16.2761 N   0  0  0  0  0  0  0  0  0  0  0  0
    5.1208   -8.4443   16.4796 C   0  0  0  0  0  0  0  0  0  0  0  0
    8.5655   -5.9967   16.2459 C   0  0  0  0  0  0  0  0  0  0  0  0
   11.1901   -3.9059   20.9160 O   0  0  0  0  0  0  0  0  0  0  0  0
    1.0328   -8.5955   16.1022 C   0  0  0  0  0  0  0  0  0  0  0  0
    9.5957   -2.0682   25.4500 C   0  0  0  0  0  0  0  0  0  0  0  0
    1.8525  -10.3325   17.5398 C   0  0  0  0  0  0  0  0  0  0  0  0
    9.4185   -0.7762   23.9064 C   0  0  0  0  0  0  0  0  0  0  0  0
    7.4795   -8.4975   16.6851 N   0  0  0  0  0  0  0  0  0  0  0  0
    3.5130  -10.0750   18.0494 C   0  0  0  0  0  0  0  0  0  0  0  0
    3.1859   -8.0746   15.9430 N   0  0  0  0  0  0  0  0  0  0  0  0
   10.3711   -2.8279   25.8560 C   0  0  0  0  0  0  0  0  0  0  0  0
    9.7684   -2.0690   23.3148 O   0  0  0  0  0  0  0  0  0  0  0  0
    1.0702   -9.7685   16.9325 C   0  0  0  0  0  0  0  0  0  0  0  0
    3.8837   -8.9160   16.7792 C   0  0  0  0  0  0  0  0  0  0  0  0
    5.7995   -9.4077   16.9283 N   0  0  0  0  0  0  0  0  0  0  0  0
   10.3300   -3.4731   23.6116 C   0  0  0  0  0  0  0  0  0  0  0  0
   11.4052   -4.1961   19.6871 C   0  0  0  0  0  0  0  0  0  0  0  0
   10.3648   -5.6886   19.5339 F   0  0  0  0  0  0  0  0  0  0  0  0
    9.8602   -4.5100   17.0676 He  0  0  0  0  0  0  0  0  0  0  0  0
    8.1284   -7.0108   15.3920 He  0  0  0  0  0  0  0  0  0  0  0  0
  1  6  4  0
  1 22  3  0
  2  3  1  0
  2 20  4  0
  2 25  4  0
  2 27  1  0
  3  7  4  0
  3 20  3  0
  3 22  1  0
  4  9  2  0
  4 11  4  0
  4 15  4  0
  4 20  1  0
  4 27  1  0
  5 10  1  0
  5 12  1  0
  6 18  4  0
  6 26  4  0
  7 10  4  0
  7 21  4  0
  7 27  1  0
  8 16  1  0
  8 18  1  0
  8 19  1  0
  8 27  4  0
  9 11  4  0
  9 15  4  0
 10 14  4  0
 10 23  1  0
 10 24  4  0
 11 22  1  0
 12 26  1  0
 13 20  2  0
 13 22  4  0
 13 26  2  0
 13 27  2  0
 14 16  4  0
 14 18  1  0
 14 20  4  0
 15 18  4  0
 15 19  3  0
 15 22  4  0
 16 21  4  0
 17 21  2  0
 17 24  4  0
 17 26  4  0
 18 23  4  0
 19 23  4  0
 19 24  3  0
 20 27  1  0
 21 25  4  0
 22 26  1  0
 26 27  4  0
M  END
$$$$

 Created by Python create_sdf_string function

 29 46  0  0  0  0  0  0  0  0999 V2000
   10.7536   -3.4994   17.5086 C   0  0  0  0  0  0  0  0  0  0  0  0
   10.2746   -3.6071   24.4731 Br  0  0  0  0  0  0  0  0  0  0  0  0
   10.0735   -4.4994   17.3587 C   0  0  0  0  0  0  0  0  0  0  0  0
    6.7264   -7.6140   15.9655 C   0  0  0  0  0  0  0  0  0  0  0  0
    9.4434   -6.8009   17.2602 N   0  0  0  0  0  0  0  0  0  0  0  0
   10.5574   -4.1055   22.3275 C   0  0  0  0  0  0  0  0  0  0  0  0
   10.8392   -2.9699   19.0233 C   0  0  0  0  0  0  0  0  0  0  0  0
    5.8153   -7.6199   16.1008 O   0  0  0  0  0  0  0  0  0  0  0  0
    9.9514   -5.4000   18.0141 C   0  0  0  0  0  0  0  0  0  0  0  0
    9.2391   -4.7328   16.0973 N   0  0  0  0  0  0  0  0  0  0  0  0
    4.9392   -8.5902   16.5532 C   0  0  0  0  0  0  0  0  0  0  0  0
    8.9944   -6.4828   16.1984 C   0  0  0  0  0  0  0  0  0  0  0  0
    1.2389   -8.6716   16.4948 C   0  0  0  0  0  0  0  0  0  0  0  0
    9.3647   -1.8433   25.6016 C   0  0  0  0  0  0  0  0  0  0  0  0
    2.1838  -10.4327   17.6013 C   0  0  0  0  0  0  0  0  0  0  0  0
    9.4899   -1.1809   24.2701 C   0  0  0  0  0  0  0  0  0  0  0  0
    7.0826   -8.7062   16.4161 N   0  0  0  0  0  0  0  0  0  0  0  0
    3.3337  -10.1111   17.4465 C   0  0  0  0  0  0  0  0  0  0  0  0
    2.3979   -7.8652   15.9501 N   0  0  0  0  0  0  0  0  0  0  0  0
    9.9591   -3.0504   25.9379 C   0  0  0  0  0  0  0  0  0  0  0  0
    9.5156   -2.3463   23.3676 C   0  0  0  0  0  0  0  0  0  0  0  0
    1.0691   -9.3464   16.9715 C   0  0  0  0  0  0  0  0  0  0  0  0
    4.1025   -9.0322   17.0800 C   0  0  0  0  0  0  0  0  0  0  0  0
    8.1926   -6.8337   14.8387 C   0  0  0  0  0  0  0  0  0  0  0  0
    6.1422   -9.6297   17.1197 N   0  0  0  0  0  0  0  0  0  0  0  0
   10.4649   -3.1824   23.5325 C   0  0  0  0  0  0  0  0  0  0  0  0
   10.8012   -4.2574   19.9440 F   0  0  0  0  0  0  0  0  0  0  0  0
   11.2462   -4.0523   21.0554 He  0  0  0  0  0  0  0  0  0  0  0  0
   10.3072   -5.6586   19.7365 He  0  0  0  0  0  0  0  0  0  0  0  0
  1  3  4  0
  1  7  4  0
  1 11  4  0
  1 16  2  0
  1 20  3  0
  2 20  4  0
  2 26  4  0
  3  9  4  0
  3 10  4  0
  4  8  4  0
  4 17  4  0
  4 24  1  0
  5  8  4  0
  5  9  4  0
  5 12  4  0
  6 13  1  0
  6 19  1  0
  6 20  1  0
  6 26  1  0
  6 27  1  0
  7 22  4  0
  7 27  4  0
  8 11  4  0
  8 15  2  0
  8 20  3  0
 10 12  4  0
 11 23  1  0
 11 25  4  0
 12 24  1  0
 13 19  4  0
 13 23  4  0
 13 27  4  0
 14 20  4  0
 15 18  3  0
 15 21  4  0
 15 22  4  0
 15 24  2  0
 16 21  4  0
 17 25  4  0
 18 20  4  0
 18 23  4  0
 18 26  2  0
 19 23  4  0
 19 25  1  0
 21 26  4  0
 25 26  4  0
M  END
$$$$

 Created by Python create_sdf_string function

 29 39  0  0  0  0  0  0  0  0999 V2000
   10.7225   -3.2033   17.7584 C   0  0  0  0  0  0  0  0  0  0  0  0
   10.4523   -3.9830   24.6020 C   0  0  0  0  0  0  0  0  0  0  0  0
   10.1548   -4.6615   17.2938 C   0  0  0  0  0  0  0  0  0  0  0  0
    6.7682   -7.7128   15.9393 C   0  0  0  0  0  0  0  0  0  0  0  0
    9.2416   -6.4944   17.5386 N   0  0  0  0  0  0  0  0  0  0  0  0
    5.8386   -7.5347   15.7499 O   0  0  0  0  0  0  0  0  0  0  0  0
   10.1230   -5.6162   18.2091 C   0  0  0  0  0  0  0  0  0  0  0  0
    9.3645   -4.8370   15.9804 N   0  0  0  0  0  0  0  0  0  0  0  0
    5.0346   -8.6397   16.0999 C   0  0  0  0  0  0  0  0  0  0  0  0
   11.1940   -3.9728   21.3311 O   0  0  0  0  0  0  0  0  0  0  0  0
    1.5227   -8.2783   16.6122 C   0  0  0  0  0  0  0  0  0  0  0  0
    9.4178   -1.8040   25.6735 C   0  0  0  0  0  0  0  0  0  0  0  0
    1.9800  -10.3930   17.5569 C   0  0  0  0  0  0  0  0  0  0  0  0
    9.3113   -1.2137   23.8760 C   0  0  0  0  0  0  0  0  0  0  0  0
    7.2770   -8.9402   16.6949 N   0  0  0  0  0  0  0  0  0  0  0  0
    2.8097   -7.8776   16.2433 N   0  0  0  0  0  0  0  0  0  0  0  0
    9.8968   -2.9434   25.8109 C   0  0  0  0  0  0  0  0  0  0  0  0
    9.6102   -1.7727   23.0135 C   0  0  0  0  0  0  0  0  0  0  0  0
    1.3064   -9.5023   16.8252 C   0  0  0  0  0  0  0  0  0  0  0  0
    3.6063   -9.0085   16.7949 C   0  0  0  0  0  0  0  0  0  0  0  0
    7.8478   -6.9893   15.4017 C   0  0  0  0  0  0  0  0  0  0  0  0
    6.1277   -9.3215   17.0741 N   0  0  0  0  0  0  0  0  0  0  0  0
   10.2361   -3.3408   23.6073 C   0  0  0  0  0  0  0  0  0  0  0  0
   10.8417   -4.1340   19.5909 C   0  0  0  0  0  0  0  0  0  0  0  0
   10.0937   -5.6786   19.5071 C   0  0  0  0  0  0  0  0  0  0  0  0
   10.6645   -3.9653   22.2230 He  0  0  0  0  0  0  0  0  0  0  0  0
   11.2704   -3.4055   19.3290 He  0  0  0  0  0  0  0  0  0  0  0  0
    8.5017   -6.0591   16.1964 He  0  0  0  0  0  0  0  0  0  0  0  0
    3.3897   -9.8923   17.8412 He  0  0  0  0  0  0  0  0  0  0  0  0
  1  3  4  0
  1  5  4  0
  2 23  4  0
  3  6  2  0
  3  7  4  0
  3  8  4  0
  3 15  4  0
  3 22  2  0
  4  5  1  0
  4  6  4  0
  4 15  4  0
  4 21  1  0
  5  7  4  0
  5 16  2  0
  5 25  3  0
  6  9  4  0
  7 25  4  0
  8 14  1  0
  8 19  1  0
  8 22  1  0
  9 10  4  0
  9 13  4  0
  9 20  1  0
  9 22  4  0
 10 24  1  0
 11 16  4  0
 11 19  4  0
 12 14  4  0
 12 17  4  0
 12 19  4  0
 12 22  4  0
 13 20  2  0
 13 23  1  0
 14 18  4  0
 15 22  4  0
 16 20  4  0
 16 21  4  0
 19 20  2  0
 24 25  4  0
M  END
$$$$

 Created by Python create_sdf_string function

 29 48  0  0  0  0  0  0  0  0999 V2000
   10.7646   -3.5652   17.4938 C   0  0  0  0  0  0  0  0  0  0  0  0
   10.2197   -3.8885   24.8335 C   0  0  0  0  0  0  0  0  0  0  0  0
    9.9284   -4.5544   17.2984 C   0  0  0  0  0  0  0  0  0  0  0  0
    7.2985   -7.4331   16.0031 C   0  0  0  0  0  0  0  0  0  0  0  0
    9.1842   -6.9469   17.4373 N   0  0  0  0  0  0  0  0  0  0  0  0
   10.5805   -4.1892   22.4552 C   0  0  0  0  0  0  0  0  0  0  0  0
    5.7166   -7.4958   15.6639 O   0  0  0  0  0  0  0  0  0  0  0  0
    9.7457   -5.5222   18.1047 C   0  0  0  0  0  0  0  0  0  0  0  0
    9.4338   -4.9968   15.9891 N   0  0  0  0  0  0  0  0  0  0  0  0
    4.8910   -8.7699   16.2675 C   0  0  0  0  0  0  0  0  0  0  0  0
    8.9924   -6.1720   16.0542 C   0  0  0  0  0  0  0  0  0  0  0  0
   11.0184   -3.9909   21.4845 O   0  0  0  0  0  0  0  0  0  0  0  0
    1.2693   -8.3868   16.1946 C   0  0  0  0  0  0  0  0  0  0  0  0
    9.4397   -1.7241   25.6539 C   0  0  0  0  0  0  0  0  0  0  0  0
    2.4248  -10.5622   17.5149 C   0  0  0  0  0  0  0  0  0  0  0  0
    9.5380   -1.3663   24.2039 C   0  0  0  0  0  0  0  0  0  0  0  0
    7.1493   -8.7278   16.6170 N   0  0  0  0  0  0  0  0  0  0  0  0
    3.3525   -9.9770   17.8122 O   0  0  0  0  0  0  0  0  0  0  0  0
    2.8907   -7.8997   16.0125 N   0  0  0  0  0  0  0  0  0  0  0  0
    9.8887   -3.5155   25.5614 P   0  0  0  0  0  0  0  0  0  0  0  0
    9.7404   -1.8264   23.0594 C   0  0  0  0  0  0  0  0  0  0  0  0
    1.2083   -9.7176   16.7448 C   0  0  0  0  0  0  0  0  0  0  0  0
    3.6789   -9.1387   16.8297 C   0  0  0  0  0  0  0  0  0  0  0  0
    7.8238   -6.8927   15.3598 C   0  0  0  0  0  0  0  0  0  0  0  0
    6.2018   -9.2534   17.0671 N   0  0  0  0  0  0  0  0  0  0  0  0
   10.2590   -3.0928   23.3579 C   0  0  0  0  0  0  0  0  0  0  0  0
   10.7906   -4.4421   20.1460 C   0  0  0  0  0  0  0  0  0  0  0  0
   10.1635   -5.4670   19.5643 C   0  0  0  0  0  0  0  0  0  0  0  0
   10.8135   -3.4159   18.9893 He  0  0  0  0  0  0  0  0  0  0  0  0
  1  3  4  0
  2 20  4  0
  2 21  1  0
  2 26  4  0
  3  7  2  0
  3  9  4  0
  4  7  4  0
  4 17  4  0
  4 22  2  0
  4 24  1  0
  5  8  4  0
  5 11  4  0
  6 12  1  0
  6 21  3  0
  6 26  1  0
  7 10  4  0
  7 15  2  0
  7 26  2  0
  8 11  1  0
  8 25  2  0
  8 28  4  0
  9 11  4  0
  9 14  4  0
 10 23  1  0
 10 25  4  0
 11 19  2  0
 11 22  3  0
 11 24  1  0
 12 27  1  0
 13 22  4  0
 14 16  4  0
 14 20  4  0
 15 18  4  0
 15 22  4  0
 15 27  2  0
 16 21  4  0
 16 28  1  0
 17 21  2  0
 17 25  4  0
 18 23  4  0
 19 23  4  0
 20 25  1  0
 21 22  3  0
 21 26  4  0
 23 24  4  0
 23 28  2  0
 25 28  2  0
 27 28  4  0
M  END
$$$$

 Created by Python create_sdf_string function

 29 44  0  0  0  0  0  0  0  0999 V2000
   10.5672   -3.8918   17.6986 C   0  0  0  0  0  0  0  0  0  0  0  0
   10.2752   -3.9784   24.9730 C   0  0  0  0  0  0  0  0  0  0  0  0
    9.8108   -4.7680   17.6516 C   0  0  0  0  0  0  0  0  0  0  0  0
    7.0592   -7.6990   15.9464 C   0  0  0  0  0  0  0  0  0  0  0  0
    9.2697   -6.7383   17.4688 N   0  0  0  0  0  0  0  0  0  0  0  0
   10.8625   -4.0756   22.1982 C   0  0  0  0  0  0  0  0  0  0  0  0
   11.2638   -3.4614   18.7645 C   0  0  0  0  0  0  0  0  0  0  0  0
    5.7402   -7.5688   15.6246 O   0  0  0  0  0  0  0  0  0  0  0  0
    9.7451   -5.8954   18.1432 C   0  0  0  0  0  0  0  0  0  0  0  0
    9.4889   -4.9744   15.9323 N   0  0  0  0  0  0  0  0  0  0  0  0
    4.7351   -8.9931   16.7253 O   0  0  0  0  0  0  0  0  0  0  0  0
    8.7789   -6.1778   16.3501 C   0  0  0  0  0  0  0  0  0  0  0  0
   10.8379   -3.9655   21.3101 O   0  0  0  0  0  0  0  0  0  0  0  0
    1.5785   -8.6281   16.2442 C   0  0  0  0  0  0  0  0  0  0  0  0
    9.2772   -1.7607   25.5688 C   0  0  0  0  0  0  0  0  0  0  0  0
    1.9916  -10.4750   17.6496 C   0  0  0  0  0  0  0  0  0  0  0  0
    9.3446   -1.2618   24.2140 C   0  0  0  0  0  0  0  0  0  0  0  0
    7.0248   -8.9367   16.6609 N   0  0  0  0  0  0  0  0  0  0  0  0
    3.6299   -9.9498   17.4905 C   0  0  0  0  0  0  0  0  0  0  0  0
    2.7516   -8.2523   16.1968 Se  0  0  0  0  0  0  0  0  0  0  0  0
    9.6966   -3.0692   25.4573 C   0  0  0  0  0  0  0  0  0  0  0  0
    9.9230   -1.7975   23.2879 C   0  0  0  0  0  0  0  0  0  0  0  0
    1.1942   -9.5360   16.6530 C   0  0  0  0  0  0  0  0  0  0  0  0
    3.7465   -9.2136   16.7304 C   0  0  0  0  0  0  0  0  0  0  0  0
    6.2900   -9.5402   17.2105 N   0  0  0  0  0  0  0  0  0  0  0  0
   10.2826   -2.9951   23.4221 C   0  0  0  0  0  0  0  0  0  0  0  0
   10.8343   -4.2229   20.0949 C   0  0  0  0  0  0  0  0  0  0  0  0
   10.2752   -5.5605   19.3405 C   0  0  0  0  0  0  0  0  0  0  0  0
    7.8952   -6.8750   15.3652 He  0  0  0  0  0  0  0  0  0  0  0  0
  1  3  4  0
  1  7  4  0
  1 22  4  0
  2  6  4  0
  2 21  4  0
  2 26  4  0
  3  9  4  0
  3 10  4  0
  3 20  2  0
  4  8  4  0
  4 10  4  0
  4 11  2  0
  4 18  4  0
  5  6  1  0
  5 12  4  0
  6 13  1  0
  6 26  1  0
  7 10  2  0
  7 27  4  0
  8 11  4  0
  8 28  1  0
  9 13  3  0
  9 28  4  0
 10 12  4  0
 11 16  4  0
 11 18  4  0
 11 24  1  0
 11 25  4  0
 12 13  4  0
 12 17  2  0
 12 28  4  0
 14 20  4  0
 15 18  1  0
 15 21  4  0
 16 19  4  0
 16 23  4  0
 17 22  4  0
 18 25  4  0
 18 26  2  0
 19 24  4  0
 20 24  4  0
 21 22  1  0
 22 26  4  0
 27 28  4  0
M  END
$$$$

 Created by Python create_sdf_string function

 29 52  0  0  0  0  0  0  0  0999 V2000
   10.6099   -3.6438   17.4932 C   0  0  0  0  0  0  0  0  0  0  0  0
   10.3069   -3.6395   24.6428 C   0  0  0  0  0  0  0  0  0  0  0  0
    9.8335   -4.8986   17.2937 C   0  0  0  0  0  0  0  0  0  0  0  0
    6.9389   -8.0678   15.9379 C   0  0  0  0  0  0  0  0  0  0  0  0
    9.4682   -6.6049   17.6424 N   0  0  0  0  0  0  0  0  0  0  0  0
   10.8337   -4.0674   22.3977 C   0  0  0  0  0  0  0  0  0  0  0  0
   10.8780   -3.1879   19.0985 C   0  0  0  0  0  0  0  0  0  0  0  0
    5.6238   -7.7517   15.9180 O   0  0  0  0  0  0  0  0  0  0  0  0
    9.8670   -5.7872   18.0467 C   0  0  0  0  0  0  0  0  0  0  0  0
    9.5530   -4.9081   16.3399 N   0  0  0  0  0  0  0  0  0  0  0  0
    5.0663   -8.6177   16.6717 C   0  0  0  0  0  0  0  0  0  0  0  0
    8.8302   -6.2013   16.3127 C   0  0  0  0  0  0  0  0  0  0  0  0
   10.6904   -4.0113   21.0734 O   0  0  0  0  0  0  0  0  0  0  0  0
    1.6899   -8.3558   16.1392 C   0  0  0  0  0  0  0  0  0  0  0  0
    9.0854   -1.7075   25.5451 C   0  0  0  0  0  0  0  0  0  0  0  0
    2.4227  -10.4220   17.5262 C   0  0  0  0  0  0  0  0  0  0  0  0
    9.3900   -0.9613   24.2658 C   0  0  0  0  0  0  0  0  0  0  0  0
    7.1480   -9.0361   16.7734 N   0  0  0  0  0  0  0  0  0  0  0  0
    3.0823   -9.9412   17.4721 C   0  0  0  0  0  0  0  0  0  0  0  0
    2.7905   -8.2138   16.2529 C   0  0  0  0  0  0  0  0  0  0  0  0
    9.6182   -2.8129   25.7474 C   0  0  0  0  0  0  0  0  0  0  0  0
    1.0670   -9.7473   17.0108 C   0  0  0  0  0  0  0  0  0  0  0  0
    3.8537   -9.1982   16.7577 C   0  0  0  0  0  0  0  0  0  0  0  0
    7.8651   -6.9181   15.3767 C   0  0  0  0  0  0  0  0  0  0  0  0
    6.2960   -9.2376   16.9758 N   0  0  0  0  0  0  0  0  0  0  0  0
   10.3752   -3.0791   23.5271 C   0  0  0  0  0  0  0  0  0  0  0  0
   10.8936   -4.1084   19.8048 C   0  0  0  0  0  0  0  0  0  0  0  0
   10.3986   -5.4275   19.5147 C   0  0  0  0  0  0  0  0  0  0  0  0
   10.1411   -1.9825   23.2548 He  0  0  0  0  0  0  0  0  0  0  0  0
  1  3  4  0
  1  7  1  0
  2 13  4  0
  2 21  4  0
  2 26  4  0
  3  9  4  0
  3 10  4  0
  3 12  3  0
  3 24  1  0
  4  5  1  0
  4  8  4  0
  4 18  4  0
  4 23  4  0
  4 24  3  0
  4 25  1  0
  4 26  2  0
  5  9  4  0
  5 12  4  0
  5 19  4  0
  6 13  1  0
  6 26  1  0
  7 27  4  0
  8 11  1  0
  8 23  2  0
  8 25  2  0
  9 10  2  0
  9 17  2  0
 10 12  4  0
 11 23  1  0
 11 25  4  0
 12 24  1  0
 13 17  2  0
 13 18  3  0
 13 21  1  0
 13 27  1  0
 14 18  1  0
 14 20  4  0
 14 22  4  0
 15 17  2  0
 15 21  4  0
 15 25  3  0
 16 19  4  0
 16 22  4  0
 17 24  3  0
 18 25  4  0
 19 23  2  0
 20 23  4  0
 22 26  3  0
 23 24  2  0
 24 27  1  0
 26 28  2  0
 27 28  4  0
M  END
$$$$

 Created by Python create_sdf_string function

 29 42  0  0  0  0  0  0  0  0999 V2000
   10.4584   -3.2859   17.7820 C   0  0  0  0  0  0  0  0  0  0  0  0
   10.1441   -3.5016   24.6579 C   0  0  0  0  0  0  0  0  0  0  0  0
    9.9761   -4.7327   17.5627 C   0  0  0  0  0  0  0  0  0  0  0  0
    7.0223   -7.7019   16.0818 C   0  0  0  0  0  0  0  0  0  0  0  0
    9.1919   -6.7202   17.6010 N   0  0  0  0  0  0  0  0  0  0  0  0
   10.8555   -4.0600   22.3871 C   0  0  0  0  0  0  0  0  0  0  0  0
   11.0388   -3.4508   18.9274 C   0  0  0  0  0  0  0  0  0  0  0  0
   10.0130   -5.9171   17.9753 C   0  0  0  0  0  0  0  0  0  0  0  0
    9.3261   -4.9727   16.1565 N   0  0  0  0  0  0  0  0  0  0  0  0
    4.9858   -8.6742   16.5426 C   0  0  0  0  0  0  0  0  0  0  0  0
   10.9542   -4.0389   21.1237 O   0  0  0  0  0  0  0  0  0  0  0  0
    1.5653   -8.5077   16.0442 C   0  0  0  0  0  0  0  0  0  0  0  0
    9.0631   -1.7787   25.7450 C   0  0  0  0  0  0  0  0  0  0  0  0
    2.1330  -10.4218   17.6411 C   0  0  0  0  0  0  0  0  0  0  0  0
    9.2683   -1.0033   24.0949 C   0  0  0  0  0  0  0  0  0  0  0  0
    7.2057   -8.9681   16.8338 N   0  0  0  0  0  0  0  0  0  0  0  0
    3.4103  -10.0437   17.5719 C   0  0  0  0  0  0  0  0  0  0  0  0
    2.7383   -8.0458   15.9551 P   0  0  0  0  0  0  0  0  0  0  0  0
    9.9834   -1.7371   23.2604 C   0  0  0  0  0  0  0  0  0  0  0  0
    1.2516   -9.8193   16.8488 C   0  0  0  0  0  0  0  0  0  0  0  0
    3.7204   -8.8908   16.8471 C   0  0  0  0  0  0  0  0  0  0  0  0
    7.6912   -6.7542   15.2650 C   0  0  0  0  0  0  0  0  0  0  0  0
    6.3068   -9.5279   17.2052 N   0  0  0  0  0  0  0  0  0  0  0  0
   10.4338   -3.2008   23.3378 C   0  0  0  0  0  0  0  0  0  0  0  0
   10.7316   -4.0998   20.0876 C   0  0  0  0  0  0  0  0  0  0  0  0
   10.2191   -5.2905   19.6087 C   0  0  0  0  0  0  0  0  0  0  0  0
    5.8147   -7.8462   15.7986 He  0  0  0  0  0  0  0  0  0  0  0  0
    8.5514   -6.2038   16.4363 He  0  0  0  0  0  0  0  0  0  0  0  0
    9.4107   -3.1162   25.9450 He  0  0  0  0  0  0  0  0  0  0  0  0
  1  5  2  0
  1  9  1  0
  2  6  3  0
  2 24  4  0
  3  6  4  0
  3  8  4  0
  3 23  1  0
  4 16  4  0
  6 11  1  0
  6 17  4  0
  6 24  1  0
  7 16  4  0
  7 25  4  0
  8 17  2  0
  8 18  4  0
  8 26  4  0
  9 12  2  0
 10 12  3  0
 10 21  1  0
 10 23  4  0
 11 14  3  0
 11 16  2  0
 11 20  3  0
 11 25  1  0
 12 18  4  0
 12 20  4  0
 13 15  1  0
 14 17  4  0
 14 20  4  0
 14 23  4  0
 15 19  4  0
 16 21  1  0
 16 23  4  0
 17 20  1  0
 17 21  4  0
 18 19  4  0
 18 21  4  0
 18 26  4  0
 19 20  2  0
 19 24  4  0
 21 25  3  0
 25 26  4  0
M  END
$$$$

 Created by Python create_sdf_string function

 29 52  0  0  0  0  0  0  0  0999 V2000
   10.7197   -3.3850   17.8154 C   0  0  0  0  0  0  0  0  0  0  0  0
   10.2378   -3.7965   24.8084 C   0  0  0  0  0  0  0  0  0  0  0  0
   10.1878   -4.6749   17.5372 C   0  0  0  0  0  0  0  0  0  0  0  0
    6.8757   -7.8078   16.0481 C   0  0  0  0  0  0  0  0  0  0  0  0
    9.0758   -6.8083   17.4885 N   0  0  0  0  0  0  0  0  0  0  0  0
   11.0103   -4.2407   22.5234 C   0  0  0  0  0  0  0  0  0  0  0  0
   10.8263   -3.2500   18.9898 C   0  0  0  0  0  0  0  0  0  0  0  0
    9.9552   -5.5792   18.2990 C   0  0  0  0  0  0  0  0  0  0  0  0
    9.1705   -4.9646   16.2395 N   0  0  0  0  0  0  0  0  0  0  0  0
    5.1694   -8.8130   16.7836 C   0  0  0  0  0  0  0  0  0  0  0  0
    8.7231   -5.9749   16.5078 C   0  0  0  0  0  0  0  0  0  0  0  0
   11.0187   -4.0111   21.2160 O   0  0  0  0  0  0  0  0  0  0  0  0
    1.4944   -8.4186   16.0888 C   0  0  0  0  0  0  0  0  0  0  0  0
    9.0812   -1.6052   25.4834 C   0  0  0  0  0  0  0  0  0  0  0  0
    1.9705  -10.3297   17.7898 C   0  0  0  0  0  0  0  0  0  0  0  0
    9.4255   -0.8533   24.3950 O   0  0  0  0  0  0  0  0  0  0  0  0
    7.1130   -8.8766   16.8744 N   0  0  0  0  0  0  0  0  0  0  0  0
    3.3197  -10.1523   17.5095 C   0  0  0  0  0  0  0  0  0  0  0  0
    2.6498   -8.1061   16.2469 C   0  0  0  0  0  0  0  0  0  0  0  0
    9.4478   -3.0212   25.8523 C   0  0  0  0  0  0  0  0  0  0  0  0
   10.1624   -1.8809   23.3077 C   0  0  0  0  0  0  0  0  0  0  0  0
    1.0484   -9.5691   17.0034 C   0  0  0  0  0  0  0  0  0  0  0  0
    3.6176   -9.0069   16.6458 C   0  0  0  0  0  0  0  0  0  0  0  0
    7.6135   -6.9046   15.3797 C   0  0  0  0  0  0  0  0  0  0  0  0
    6.0801   -9.3868   17.2163 N   0  0  0  0  0  0  0  0  0  0  0  0
   10.4219   -3.3902   23.6867 C   0  0  0  0  0  0  0  0  0  0  0  0
   10.8235   -4.1953   20.0413 C   0  0  0  0  0  0  0  0  0  0  0  0
   10.1737   -5.4264   19.5143 C   0  0  0  0  0  0  0  0  0  0  0  0
    5.6299   -7.7589   15.9560 He  0  0  0  0  0  0  0  0  0  0  0  0
  1  3  4  0
  1  7  4  0
  1  8  2  0
  2 20  4  0
  2 25  4  0
  2 27  2  0
  3  8  4  0
  3  9  4  0
  3 20  2  0
  3 24  4  0
  4 17  4  0
  4 18  2  0
  4 24  1  0
  5  8  4  0
  5 11  4  0
  5 28  3  0
  6  7  1  0
  6 11  3  0
  6 12  1  0
  6 26  3  0
  7 27  4  0
  8 16  2  0
  8 28  4  0
  9 11  4  0
 10 17  2  0
 10 25  3  0
 11 13  3  0
 11 16  3  0
 11 24  1  0
 12 23  1  0
 12 27  1  0
 13 19  4  0
 13 20  1  0
 13 22  4  0
 13 28  2  0
 14 16  4  0
 14 20  4  0
 15 16  1  0
 15 18  4  0
 15 22  4  0
 16 20  1  0
 16 21  4  0
 17 25  4  0
 18 22  1  0
 18 23  4  0
 19 22  3  0
 19 23  4  0
 21 23  2  0
 21 26  2  0
 22 28  1  0
 25 26  3  0
 27 28  4  0
M  END
$$$$

 Created by Python create_sdf_string function

 29 41  0  0  0  0  0  0  0  0999 V2000
   10.4907   -3.4526   17.6283 C   0  0  0  0  0  0  0  0  0  0  0  0
   10.1404   -3.6972   24.8473 C   0  0  0  0  0  0  0  0  0  0  0  0
    6.6999   -8.0595   16.1485 C   0  0  0  0  0  0  0  0  0  0  0  0
    9.0055   -6.7865   17.6283 F   0  0  0  0  0  0  0  0  0  0  0  0
   10.8283   -4.3514   22.6007 C   0  0  0  0  0  0  0  0  0  0  0  0
   10.8689   -3.2626   19.0696 C   0  0  0  0  0  0  0  0  0  0  0  0
    5.4065   -7.6579   15.7838 O   0  0  0  0  0  0  0  0  0  0  0  0
    9.7452   -5.4020   18.3776 C   0  0  0  0  0  0  0  0  0  0  0  0
    9.3894   -4.9325   16.2857 N   0  0  0  0  0  0  0  0  0  0  0  0
    5.1359   -8.6895   16.8110 C   0  0  0  0  0  0  0  0  0  0  0  0
    8.7507   -6.2096   16.2141 C   0  0  0  0  0  0  0  0  0  0  0  0
   10.9445   -3.8846   21.3057 B   0  0  0  0  0  0  0  0  0  0  0  0
    1.4406   -8.5943   16.2305 C   0  0  0  0  0  0  0  0  0  0  0  0
    8.9924   -1.6054   25.7408 C   0  0  0  0  0  0  0  0  0  0  0  0
    1.7248  -10.2765   17.5736 N   0  0  0  0  0  0  0  0  0  0  0  0
    9.5105   -1.0013   24.1571 C   0  0  0  0  0  0  0  0  0  0  0  0
    7.1113   -8.8431   16.8961 F   0  0  0  0  0  0  0  0  0  0  0  0
    3.1230  -10.0382   17.4519 C   0  0  0  0  0  0  0  0  0  0  0  0
    2.8858   -8.2551   15.9500 C   0  0  0  0  0  0  0  0  0  0  0  0
    9.3192   -2.9394   25.7595 C   0  0  0  0  0  0  0  0  0  0  0  0
    9.9484   -1.8675   23.2344 C   0  0  0  0  0  0  0  0  0  0  0  0
    1.0921   -9.4875   17.2064 C   0  0  0  0  0  0  0  0  0  0  0  0
    3.5050   -8.8700   16.8657 C   0  0  0  0  0  0  0  0  0  0  0  0
    7.9167   -6.6789   15.4721 C   0  0  0  0  0  0  0  0  0  0  0  0
    6.1773   -9.3220   17.3513 N   0  0  0  0  0  0  0  0  0  0  0  0
   10.5202   -3.2317   23.5965 C   0  0  0  0  0  0  0  0  0  0  0  0
   10.9091   -4.3233   20.1916 C   0  0  0  0  0  0  0  0  0  0  0  0
   10.5582   -5.4545   19.4933 C   0  0  0  0  0  0  0  0  0  0  0  0
   10.0012   -4.5628   17.5603 He  0  0  0  0  0  0  0  0  0  0  0  0
  1  6  4  0
  2 20  4  0
  2 25  1  0
  2 26  4  0
  3  7  3  0
  3 17  4  0
  3 20  4  0
  3 24  1  0
  4 11  4  0
  5 12  1  0
  5 26  1  0
  6 27  4  0
  7 10  4  0
  7 17  3  0
  7 18  4  0
  8 19  3  0
  8 28  4  0
  9 11  4  0
 10 23  1  0
 10 25  4  0
 11 24  1  0
 12 27  1  0
 13 19  4  0
 13 22  4  0
 13 28  3  0
 14 16  4  0
 14 20  4  0
 14 24  2  0
 15 18  4  0
 15 19  2  0
 15 22  4  0
 15 26  4  0
 15 27  3  0
 17 25  4  0
 18 23  4  0
 19 23  4  0
 21 26  4  0
 22 23  2  0
 25 27  1  0
 25 28  3  0
 26 28  3  0
M  END
$$$$

 Created by Python create_sdf_string function

 29 33  0  0  0  0  0  0  0  0999 V2000
   10.3676   -3.5563   17.8397 C   0  0  0  0  0  0  0  0  0  0  0  0
   10.0787   -3.6951   24.5817 N   0  0  0  0  0  0  0  0  0  0  0  0
    9.8671   -4.5999   17.4689 C   0  0  0  0  0  0  0  0  0  0  0  0
    6.7856   -7.9111   16.1658 C   0  0  0  0  0  0  0  0  0  0  0  0
   10.8132   -4.0559   22.5161 C   0  0  0  0  0  0  0  0  0  0  0  0
   10.8296   -3.4237   19.0132 C   0  0  0  0  0  0  0  0  0  0  0  0
    5.6270   -7.7960   15.8240 O   0  0  0  0  0  0  0  0  0  0  0  0
    9.9203   -5.6200   18.2439 C   0  0  0  0  0  0  0  0  0  0  0  0
    5.1275   -8.6990   16.7623 C   0  0  0  0  0  0  0  0  0  0  0  0
    8.7664   -6.1111   16.5090 C   0  0  0  0  0  0  0  0  0  0  0  0
   11.2299   -3.8202   21.3561 O   0  0  0  0  0  0  0  0  0  0  0  0
    9.1189   -1.6634   25.4840 C   0  0  0  0  0  0  0  0  0  0  0  0
    1.8393  -10.4369   17.7019 N   0  0  0  0  0  0  0  0  0  0  0  0
    7.1381   -8.7970   16.8356 C   0  0  0  0  0  0  0  0  0  0  0  0
    3.2260  -10.0601   17.6076 C   0  0  0  0  0  0  0  0  0  0  0  0
    2.5918   -8.4641   16.0085 C   0  0  0  0  0  0  0  0  0  0  0  0
    9.3844   -3.0801   25.8404 C   0  0  0  0  0  0  0  0  0  0  0  0
    9.9951   -1.7515   23.2181 C   0  0  0  0  0  0  0  0  0  0  0  0
    0.9863   -9.3825   16.8131 C   0  0  0  0  0  0  0  0  0  0  0  0
    3.5210   -8.9556   16.8299 C   0  0  0  0  0  0  0  0  0  0  0  0
    7.9321   -6.9555   15.5010 C   0  0  0  0  0  0  0  0  0  0  0  0
    6.1025   -9.4192   17.3640 N   0  0  0  0  0  0  0  0  0  0  0  0
   10.2186   -3.2066   23.5920 C   0  0  0  0  0  0  0  0  0  0  0  0
   10.6428   -4.2354   20.1250 C   0  0  0  0  0  0  0  0  0  0  0  0
   10.3243   -5.3898   19.5666 C   0  0  0  0  0  0  0  0  0  0  0  0
    8.8883   -6.6407   17.6142 He  0  0  0  0  0  0  0  0  0  0  0  0
    9.5033   -5.0896   16.1801 He  0  0  0  0  0  0  0  0  0  0  0  0
    1.4262   -8.4127   16.2622 He  0  0  0  0  0  0  0  0  0  0  0  0
    9.4920   -0.9798   24.0523 He  0  0  0  0  0  0  0  0  0  0  0  0
  1  3  4  0
  1  6  4  0
  1 21  2  0
  2  7  4  0
  2 17  4  0
  2 23  4  0
  3  8  4  0
  4  7  4  0
  4 14  4  0
  4 21  1  0
  5 11  1  0
  5 19  1  0
  5 23  1  0
  6 22  1  0
  6 24  4  0
  7  9  4  0
  7 19  2  0
  8 25  4  0
  9 20  1  0
  9 22  4  0
 10 21  1  0
 11 13  4  0
 11 21  1  0
 11 24  1  0
 12 17  4  0
 13 14  3  0
 13 15  4  0
 13 16  2  0
 13 19  4  0
 14 22  4  0
 15 20  4  0
 16 20  4  0
 18 23  4  0
M  END
$$$$

 Created by Python create_sdf_string function

 29 40  0  0  0  0  0  0  0  0999 V2000
   10.3522   -3.4996   17.6701 C   0  0  0  0  0  0  0  0  0  0  0  0
   10.1064   -3.7516   24.7786 N   0  0  0  0  0  0  0  0  0  0  0  0
    9.8807   -4.6800   17.3232 C   0  0  0  0  0  0  0  0  0  0  0  0
    6.8973   -7.8632   16.1140 C   0  0  0  0  0  0  0  0  0  0  0  0
    8.9234   -6.4396   17.8501 N   0  0  0  0  0  0  0  0  0  0  0  0
   10.8083   -4.0563   22.5537 C   0  0  0  0  0  0  0  0  0  0  0  0
   10.8204   -3.1376   19.1160 C   0  0  0  0  0  0  0  0  0  0  0  0
    5.6595   -7.7924   15.8126 O   0  0  0  0  0  0  0  0  0  0  0  0
    9.6802   -5.7532   18.5573 C   0  0  0  0  0  0  0  0  0  0  0  0
    9.4727   -5.0811   16.1141 Br  0  0  0  0  0  0  0  0  0  0  0  0
    5.0154   -8.6493   16.5398 C   0  0  0  0  0  0  0  0  0  0  0  0
    8.7966   -6.1073   16.5373 C   0  0  0  0  0  0  0  0  0  0  0  0
   11.0743   -3.7243   21.1157 O   0  0  0  0  0  0  0  0  0  0  0  0
    1.3643   -8.4713   16.2104 C   0  0  0  0  0  0  0  0  0  0  0  0
    9.2125   -1.5199   25.5665 C   0  0  0  0  0  0  0  0  0  0  0  0
    1.8367  -10.3165   17.5846 N   0  0  0  0  0  0  0  0  0  0  0  0
    9.5115   -0.9497   24.1749 C   0  0  0  0  0  0  0  0  0  0  0  0
    7.1353   -8.8528   16.8820 C   0  0  0  0  0  0  0  0  0  0  0  0
    3.1648  -10.0156   17.5620 C   0  0  0  0  0  0  0  0  0  0  0  0
    2.8889   -8.0976   16.3121 C   0  0  0  0  0  0  0  0  0  0  0  0
    9.5971   -2.8584   25.7207 C   0  0  0  0  0  0  0  0  0  0  0  0
   10.1090   -1.7862   23.2051 C   0  0  0  0  0  0  0  0  0  0  0  0
    0.9919   -9.4249   16.9742 C   0  0  0  0  0  0  0  0  0  0  0  0
    3.5947   -9.1009   16.6820 C   0  0  0  0  0  0  0  0  0  0  0  0
    7.8152   -6.9238   15.4627 C   0  0  0  0  0  0  0  0  0  0  0  0
    5.8633   -9.4240   17.4319 N   0  0  0  0  0  0  0  0  0  0  0  0
   10.3919   -3.3015   23.6934 C   0  0  0  0  0  0  0  0  0  0  0  0
   10.8136   -4.2984   19.9887 C   0  0  0  0  0  0  0  0  0  0  0  0
   10.3893   -5.3852   19.5921 C   0  0  0  0  0  0  0  0  0  0  0  0
  1  3  4  0
  1  7  4  0
  2 21  4  0
  2 27  4  0
  3  7  1  0
  3  9  4  0
  3 10  4  0
  3 13  1  0
  3 17  4  0
  3 23  3  0
  4  8  4  0
  5  9  4  0
  5 12  4  0
  6 13  1  0
  6 27  1  0
  7 12  2  0
  8 11  4  0
  8 12  3  0
  9 29  4  0
 10 12  4  0
 11 13  1  0
 11 24  1  0
 12 22  4  0
 12 25  2  0
 13 24  1  0
 13 28  1  0
 14 20  4  0
 14 23  4  0
 15 17  4  0
 15 21  4  0
 16 19  4  0
 16 23  4  0
 16 26  2  0
 17 22  4  0
 18 21  2  0
 18 26  4  0
 19 24  4  0
 20 24  4  0
 22 27  4  0
 28 29  2  0
M  END
$$$$

 Created by Python create_sdf_string function

 29 39  0  0  0  0  0  0  0  0999 V2000
   10.5812   -3.4112   17.5873 C   0  0  0  0  0  0  0  0  0  0  0  0
   10.2239   -3.6765   24.7526 N   0  0  0  0  0  0  0  0  0  0  0  0
    9.8973   -4.6257   17.3691 C   0  0  0  0  0  0  0  0  0  0  0  0
    6.7371   -7.9079   16.1664 C   0  0  0  0  0  0  0  0  0  0  0  0
    8.9378   -6.4885   17.8156 N   0  0  0  0  0  0  0  0  0  0  0  0
   10.7378   -3.9036   22.4618 C   0  0  0  0  0  0  0  0  0  0  0  0
   10.9283   -3.1676   19.0816 C   0  0  0  0  0  0  0  0  0  0  0  0
    5.6515   -7.7841   15.7462 O   0  0  0  0  0  0  0  0  0  0  0  0
    9.5236   -5.6724   18.4182 C   0  0  0  0  0  0  0  0  0  0  0  0
    9.3591   -5.0118   16.3212 N   0  0  0  0  0  0  0  0  0  0  0  0
    4.9809   -8.7218   16.4534 C   0  0  0  0  0  0  0  0  0  0  0  0
    8.6732   -6.2964   16.5286 C   0  0  0  0  0  0  0  0  0  0  0  0
   11.0992   -3.6469   21.3621 O   0  0  0  0  0  0  0  0  0  0  0  0
    1.4389   -8.2899   16.1435 C   0  0  0  0  0  0  0  0  0  0  0  0
    9.3778   -1.4062   25.4329 C   0  0  0  0  0  0  0  0  0  0  0  0
    1.7630  -10.4471   17.6471 N   0  0  0  0  0  0  0  0  0  0  0  0
    9.5587   -1.0267   24.2623 C   0  0  0  0  0  0  0  0  0  0  0  0
    7.2524   -9.0187   17.1041 C   0  0  0  0  0  0  0  0  0  0  0  0
    2.8007   -8.2171   16.1717 C   0  0  0  0  0  0  0  0  0  0  0  0
    9.6281   -2.9228   25.5344 C   0  0  0  0  0  0  0  0  0  0  0  0
   10.1195   -1.7590   23.3330 C   0  0  0  0  0  0  0  0  0  0  0  0
    0.9723   -9.5018   17.0310 C   0  0  0  0  0  0  0  0  0  0  0  0
    3.6925   -8.8680   16.6777 C   0  0  0  0  0  0  0  0  0  0  0  0
    7.7185   -6.9709   15.5061 C   0  0  0  0  0  0  0  0  0  0  0  0
    6.0564   -9.2212   17.3186 N   0  0  0  0  0  0  0  0  0  0  0  0
   10.3345   -3.1103   23.5104 C   0  0  0  0  0  0  0  0  0  0  0  0
   10.7585   -3.9440   19.9289 C   0  0  0  0  0  0  0  0  0  0  0  0
   10.3232   -5.3028   19.5952 C   0  0  0  0  0  0  0  0  0  0  0  0
    3.0021  -10.0941   17.6107 He  0  0  0  0  0  0  0  0  0  0  0  0
  1  3  4  0
  1  7  4  0
  1 10  4  0
  1 24  2  0
  2 17  1  0
  2 20  4  0
  2 26  4  0
  3  9  4  0
  3 10  4  0
  4  8  4  0
  4 18  4  0
  4 21  4  0
  4 24  1  0
  5  9  4  0
  5 12  4  0
  5 21  1  0
  6 13  1  0
  6 16  3  0
  6 22  4  0
  6 26  1  0
  7 27  4  0
  8 11  4  0
  9 28  4  0
 10 12  4  0
 10 13  2  0
 11 23  1  0
 11 25  4  0
 12 13  4  0
 12 24  1  0
 13 27  1  0
 14 19  4  0
 14 22  4  0
 15 17  4  0
 15 20  4  0
 17 21  4  0
 18 25  4  0
 19 23  4  0
 21 26  4  0
 27 28  4  0
M  END
$$$$

 Created by Python create_sdf_string function

 29 46  0  0  0  0  0  0  0  0999 V2000
   10.6493   -3.5436   17.6855 C   0  0  0  0  0  0  0  0  0  0  0  0
   10.0865   -3.5933   24.7335 N   0  0  0  0  0  0  0  0  0  0  0  0
    9.9460   -4.5484   17.4275 C   0  0  0  0  0  0  0  0  0  0  0  0
    6.8593   -7.8690   16.2882 C   0  0  0  0  0  0  0  0  0  0  0  0
    8.9705   -6.5229   17.8756 N   0  0  0  0  0  0  0  0  0  0  0  0
   10.7826   -4.0546   22.3717 C   0  0  0  0  0  0  0  0  0  0  0  0
   10.8572   -3.2264   18.8729 C   0  0  0  0  0  0  0  0  0  0  0  0
    5.7091   -7.8254   15.8424 O   0  0  0  0  0  0  0  0  0  0  0  0
    9.7734   -5.5009   18.3882 C   0  0  0  0  0  0  0  0  0  0  0  0
    9.3724   -5.0863   16.3726 N   0  0  0  0  0  0  0  0  0  0  0  0
    4.9806   -8.7446   16.6798 C   0  0  0  0  0  0  0  0  0  0  0  0
    8.6824   -6.1120   16.5990 C   0  0  0  0  0  0  0  0  0  0  0  0
   11.0898   -3.7585   21.3224 O   0  0  0  0  0  0  0  0  0  0  0  0
    1.5163   -8.5033   16.2314 C   0  0  0  0  0  0  0  0  0  0  0  0
    9.2297   -1.5809   25.3518 C   0  0  0  0  0  0  0  0  0  0  0  0
    1.9904  -10.3249   17.7860 N   0  0  0  0  0  0  0  0  0  0  0  0
    9.6123   -0.9624   24.3590 C   0  0  0  0  0  0  0  0  0  0  0  0
    7.2381   -8.8915   17.0694 C   0  0  0  0  0  0  0  0  0  0  0  0
    3.1885  -10.0127   17.5688 C   0  0  0  0  0  0  0  0  0  0  0  0
    2.6240   -8.1432   16.1354 C   0  0  0  0  0  0  0  0  0  0  0  0
    9.5827   -2.8091   25.6139 C   0  0  0  0  0  0  0  0  0  0  0  0
   10.1305   -1.6453   23.2461 C   0  0  0  0  0  0  0  0  0  0  0  0
    0.9872   -9.4742   17.0396 C   0  0  0  0  0  0  0  0  0  0  0  0
    3.5968   -8.9956   16.6939 C   0  0  0  0  0  0  0  0  0  0  0  0
    7.9348   -6.9419   15.6305 C   0  0  0  0  0  0  0  0  0  0  0  0
    5.9270   -9.5723   17.2747 Br  0  0  0  0  0  0  0  0  0  0  0  0
   10.3732   -3.1116   23.5427 C   0  0  0  0  0  0  0  0  0  0  0  0
   10.8628   -3.9397   20.0174 C   0  0  0  0  0  0  0  0  0  0  0  0
   10.3216   -5.2543   19.7178 He  0  0  0  0  0  0  0  0  0  0  0  0
  1  3  4  0
  1  7  4  0
  1 22  4  0
  1 23  3  0
  2  3  2  0
  2  7  2  0
  2 21  4  0
  2 23  3  0
  2 27  4  0
  3  5  4  0
  3  9  4  0
  3 10  4  0
  3 28  3  0
  4  8  4  0
  4 11  3  0
  4 18  4  0
  4 25  1  0
  5  9  4  0
  5 10  3  0
  5 11  3  0
  5 12  4  0
  5 25  1  0
  6 27  1  0
  6 28  4  0
  7 28  4  0
  8 11  4  0
  8 16  4  0
 10 12  4  0
 11 24  1  0
 11 26  4  0
 12 15  4  0
 12 25  1  0
 12 26  3  0
 13 28  1  0
 14 20  4  0
 14 23  4  0
 15 17  4  0
 15 21  4  0
 16 19  4  0
 16 23  4  0
 17 22  4  0
 18 26  4  0
 19 24  4  0
 20 24  4  0
 21 23  3  0
 22 27  4  0
M  END
$$$$

 Created by Python create_sdf_string function

 29 40  0  0  0  0  0  0  0  0999 V2000
   10.6036   -3.4004   17.8147 C   0  0  0  0  0  0  0  0  0  0  0  0
   10.1060   -3.7028   24.7557 N   0  0  0  0  0  0  0  0  0  0  0  0
   10.0035   -4.6886   17.4609 C   0  0  0  0  0  0  0  0  0  0  0  0
    7.0276   -7.7667   16.1504 C   0  0  0  0  0  0  0  0  0  0  0  0
    9.0522   -6.5221   17.8619 N   0  0  0  0  0  0  0  0  0  0  0  0
   10.8308   -4.1954   22.5720 C   0  0  0  0  0  0  0  0  0  0  0  0
   11.0428   -3.1051   18.7784 C   0  0  0  0  0  0  0  0  0  0  0  0
    5.6484   -7.8555   15.9476 O   0  0  0  0  0  0  0  0  0  0  0  0
    9.7299   -5.4637   18.3524 C   0  0  0  0  0  0  0  0  0  0  0  0
    9.3419   -5.0153   16.2328 N   0  0  0  0  0  0  0  0  0  0  0  0
    4.9744   -8.8183   16.6631 C   0  0  0  0  0  0  0  0  0  0  0  0
    8.6775   -6.1591   16.5062 C   0  0  0  0  0  0  0  0  0  0  0  0
   11.1816   -3.5411   21.1996 O   0  0  0  0  0  0  0  0  0  0  0  0
    1.4203   -8.6063   16.2086 C   0  0  0  0  0  0  0  0  0  0  0  0
    9.2441   -1.4917   25.3188 C   0  0  0  0  0  0  0  0  0  0  0  0
    1.8461  -10.3323   17.8400 N   0  0  0  0  0  0  0  0  0  0  0  0
    9.5717   -0.9349   24.2568 C   0  0  0  0  0  0  0  0  0  0  0  0
    7.0260   -8.7872   17.1669 C   0  0  0  0  0  0  0  0  0  0  0  0
    3.1430  -10.0930   17.6421 C   0  0  0  0  0  0  0  0  0  0  0  0
    9.4755   -2.8296   25.5587 C   0  0  0  0  0  0  0  0  0  0  0  0
   10.1614   -1.7516   23.1757 C   0  0  0  0  0  0  0  0  0  0  0  0
    0.8836   -9.5366   17.0851 C   0  0  0  0  0  0  0  0  0  0  0  0
    3.5498   -8.9591   16.8089 C   0  0  0  0  0  0  0  0  0  0  0  0
    7.8773   -6.9236   15.7035 N   0  0  0  0  0  0  0  0  0  0  0  0
    6.0395   -9.4554   17.2330 N   0  0  0  0  0  0  0  0  0  0  0  0
   10.3951   -3.1428   23.5602 C   0  0  0  0  0  0  0  0  0  0  0  0
   10.8229   -4.0334   19.9875 C   0  0  0  0  0  0  0  0  0  0  0  0
   10.1697   -5.2871   19.7196 C   0  0  0  0  0  0  0  0  0  0  0  0
    2.5222   -8.1652   16.0777 He  0  0  0  0  0  0  0  0  0  0  0  0
  1  3  4  0
  1  7  4  0
  1 13  4  0
  2 20  4  0
  2 26  4  0
  3  9  4  0
  3 10  4  0
  4  8  4  0
  4 18  4  0
  4 24  1  0
  5  9  4  0
  5 12  4  0
  6 13  1  0
  6 26  1  0
  7 11  1  0
  7 12  4  0
  7 27  4  0
  8 11  4  0
  9 10  1  0
  9 28  4  0
 10 11  3  0
 10 12  4  0
 10 15  1  0
 10 26  1  0
 11 16  4  0
 11 25  4  0
 11 27  1  0
 12 24  1  0
 13 27  1  0
 14 22  4  0
 15 17  4  0
 15 20  4  0
 16 19  4  0
 16 22  4  0
 17 21  4  0
 17 25  1  0
 18 19  1  0
 18 25  4  0
 19 23  4  0
 21 26  4  0
M  END
$$$$

 Created by Python create_sdf_string function

 29 35  0  0  0  0  0  0  0  0999 V2000
   10.6288   -3.3063   17.5854 C   0  0  0  0  0  0  0  0  0  0  0  0
   10.1425   -3.6954   24.7245 N   0  0  0  0  0  0  0  0  0  0  0  0
    9.9941   -4.6163   17.5297 C   0  0  0  0  0  0  0  0  0  0  0  0
    6.8299   -7.8205   16.3406 C   0  0  0  0  0  0  0  0  0  0  0  0
    9.0594   -6.5591   17.8727 N   0  0  0  0  0  0  0  0  0  0  0  0
   10.7764   -4.0870   22.4887 C   0  0  0  0  0  0  0  0  0  0  0  0
   11.0673   -3.1666   18.9084 C   0  0  0  0  0  0  0  0  0  0  0  0
    5.7147   -7.8079   15.9919 O   0  0  0  0  0  0  0  0  0  0  0  0
    9.6495   -5.4605   18.4212 C   0  0  0  0  0  0  0  0  0  0  0  0
    9.2689   -5.1502   16.2566 N   0  0  0  0  0  0  0  0  0  0  0  0
    4.8208   -8.7663   16.6007 C   0  0  0  0  0  0  0  0  0  0  0  0
    8.7007   -6.2476   16.5668 C   0  0  0  0  0  0  0  0  0  0  0  0
   11.1004   -3.6370   21.4030 O   0  0  0  0  0  0  0  0  0  0  0  0
    1.2909   -8.4715   16.2562 C   0  0  0  0  0  0  0  0  0  0  0  0
    9.2018   -1.4607   25.3373 C   0  0  0  0  0  0  0  0  0  0  0  0
    1.8508  -10.2689   17.8153 N   0  0  0  0  0  0  0  0  0  0  0  0
    7.0287   -8.7416   17.0281 C   0  0  0  0  0  0  0  0  0  0  0  0
    3.1493  -10.1359   17.5943 C   0  0  0  0  0  0  0  0  0  0  0  0
    2.6417   -8.2428   16.1802 C   0  0  0  0  0  0  0  0  0  0  0  0
    9.4240   -2.8458   25.5250 C   0  0  0  0  0  0  0  0  0  0  0  0
   10.2994   -1.8424   23.3104 C   0  0  0  0  0  0  0  0  0  0  0  0
    0.7806   -9.4266   17.0566 C   0  0  0  0  0  0  0  0  0  0  0  0
    3.6578   -9.0569   16.8395 C   0  0  0  0  0  0  0  0  0  0  0  0
    7.8774   -6.8412   15.7444 C   0  0  0  0  0  0  0  0  0  0  0  0
    5.9269   -9.5208   17.4188 N   0  0  0  0  0  0  0  0  0  0  0  0
   10.3847   -3.0738   23.3847 C   0  0  0  0  0  0  0  0  0  0  0  0
   10.6397   -3.9557   19.9913 C   0  0  0  0  0  0  0  0  0  0  0  0
   10.2194   -5.1199   19.7507 C   0  0  0  0  0  0  0  0  0  0  0  0
    9.6125   -0.9621   24.2185 He  0  0  0  0  0  0  0  0  0  0  0  0
  1  3  4  0
  1  7  4  0
  2 18  1  0
  2 20  4  0
  2 26  4  0
  3  9  4  0
  3 10  4  0
  4  8  4  0
  4 17  4  0
  4 24  1  0
  5  9  4  0
  5 12  4  0
  6 13  1  0
  6 20  2  0
  6 26  1  0
  7 27  4  0
  8 11  4  0
  9 28  4  0
 10 12  4  0
 11 23  1  0
 11 25  4  0
 12 24  1  0
 13 27  1  0
 13 28  3  0
 14 19  4  0
 14 22  4  0
 14 23  4  0
 15 20  4  0
 16 18  4  0
 16 22  4  0
 17 25  4  0
 18 23  4  0
 19 23  4  0
 21 26  4  0
 27 28  4  0
M  END
$$$$

 Created by Python create_sdf_string function

 29 38  0  0  0  0  0  0  0  0999 V2000
   10.6541   -3.3886   17.6835 C   0  0  0  0  0  0  0  0  0  0  0  0
   10.0896   -3.5601   24.6624 N   0  0  0  0  0  0  0  0  0  0  0  0
    9.9672   -4.5985   17.4946 C   0  0  0  0  0  0  0  0  0  0  0  0
    6.8636   -7.7908   16.3534 C   0  0  0  0  0  0  0  0  0  0  0  0
    8.9738   -6.4781   17.9179 N   0  0  0  0  0  0  0  0  0  0  0  0
   10.8053   -4.0497   22.3715 C   0  0  0  0  0  0  0  0  0  0  0  0
   11.1385   -3.0996   18.9200 C   0  0  0  0  0  0  0  0  0  0  0  0
    5.5968   -7.8408   15.9915 O   0  0  0  0  0  0  0  0  0  0  0  0
    9.6741   -5.4855   18.3670 C   0  0  0  0  0  0  0  0  0  0  0  0
    9.4432   -5.1019   16.3690 N   0  0  0  0  0  0  0  0  0  0  0  0
    4.8256   -8.8084   16.7171 C   0  0  0  0  0  0  0  0  0  0  0  0
    8.8163   -6.2311   16.6859 C   0  0  0  0  0  0  0  0  0  0  0  0
   11.1964   -3.5807   21.0848 O   0  0  0  0  0  0  0  0  0  0  0  0
    1.3527   -8.5640   16.3473 C   0  0  0  0  0  0  0  0  0  0  0  0
    9.2051   -1.5332   25.3830 C   0  0  0  0  0  0  0  0  0  0  0  0
    1.7739  -10.2260   17.7285 N   0  0  0  0  0  0  0  0  0  0  0  0
    9.5883   -0.8759   24.1201 C   0  0  0  0  0  0  0  0  0  0  0  0
    7.0988   -8.8388   17.0601 C   0  0  0  0  0  0  0  0  0  0  0  0
    3.1569  -10.1931   17.4745 C   0  0  0  0  0  0  0  0  0  0  0  0
    2.6801   -8.3009   16.1167 C   0  0  0  0  0  0  0  0  0  0  0  0
    9.5256   -2.8921   25.6814 C   0  0  0  0  0  0  0  0  0  0  0  0
   10.2621   -1.7104   23.1470 C   0  0  0  0  0  0  0  0  0  0  0  0
    0.7428   -9.4667   17.0748 C   0  0  0  0  0  0  0  0  0  0  0  0
    3.5440   -9.1363   16.9341 C   0  0  0  0  0  0  0  0  0  0  0  0
    7.8583   -6.8686   15.7696 C   0  0  0  0  0  0  0  0  0  0  0  0
    6.0074   -9.5278   17.3676 N   0  0  0  0  0  0  0  0  0  0  0  0
   10.3525   -3.1349   23.5592 C   0  0  0  0  0  0  0  0  0  0  0  0
   10.2493   -5.1661   19.7365 C   0  0  0  0  0  0  0  0  0  0  0  0
   10.6683   -3.8220   20.0427 He  0  0  0  0  0  0  0  0  0  0  0  0
  1  3  4  0
  1  7  4  0
  2 21  4  0
  2 27  4  0
  3  9  4  0
  3 10  4  0
  4  8  4  0
  4 18  4  0
  4 21  4  0
  4 23  3  0
  4 25  1  0
  5  9  4  0
  5 12  4  0
  5 17  1  0
  6 13  1  0
  6 27  1  0
  8 11  4  0
  9 25  4  0
  9 28  4  0
 10 12  4  0
 10 18  3  0
 11 24  1  0
 11 26  4  0
 12 25  1  0
 14 20  4  0
 14 23  4  0
 15 17  4  0
 15 21  4  0
 16 19  4  0
 16 23  4  0
 17 22  4  0
 17 26  2  0
 18 26  4  0
 19 24  4  0
 20 24  4  0
 20 27  4  0
 22 23  1  0
 22 27  4  0
M  END
$$$$

 Created by Python create_sdf_string function

 29 43  0  0  0  0  0  0  0  0999 V2000
   10.6240   -3.3848   17.7830 C   0  0  0  0  0  0  0  0  0  0  0  0
   10.0660   -3.5838   24.6767 N   0  0  0  0  0  0  0  0  0  0  0  0
   10.0170   -4.6338   17.5386 C   0  0  0  0  0  0  0  0  0  0  0  0
    6.9879   -7.8365   16.2552 F   0  0  0  0  0  0  0  0  0  0  0  0
    9.0765   -6.4098   17.8113 N   0  0  0  0  0  0  0  0  0  0  0  0
   10.8050   -4.0748   22.4594 C   0  0  0  0  0  0  0  0  0  0  0  0
   11.1220   -3.0537   18.9159 C   0  0  0  0  0  0  0  0  0  0  0  0
    5.6354   -7.8162   16.0419 O   0  0  0  0  0  0  0  0  0  0  0  0
    9.7120   -5.3047   18.5109 F   0  0  0  0  0  0  0  0  0  0  0  0
    9.5266   -5.0393   16.3329 N   0  0  0  0  0  0  0  0  0  0  0  0
    5.0098   -8.7826   16.6965 C   0  0  0  0  0  0  0  0  0  0  0  0
    8.7848   -6.1295   16.6273 C   0  0  0  0  0  0  0  0  0  0  0  0
   11.0593   -3.5101   21.1442 O   0  0  0  0  0  0  0  0  0  0  0  0
    1.4742   -8.4371   16.1970 C   0  0  0  0  0  0  0  0  0  0  0  0
    9.3046   -1.4424   25.4067 C   0  0  0  0  0  0  0  0  0  0  0  0
    1.8125  -10.3146   17.6866 N   0  0  0  0  0  0  0  0  0  0  0  0
    9.5793   -0.8457   24.1219 C   0  0  0  0  0  0  0  0  0  0  0  0
    7.0602   -8.8854   17.0531 C   0  0  0  0  0  0  0  0  0  0  0  0
    3.1078  -10.0973   17.6327 C   0  0  0  0  0  0  0  0  0  0  0  0
    2.7190   -8.3190   16.1855 C   0  0  0  0  0  0  0  0  0  0  0  0
    9.4314   -2.7925   25.5747 C   0  0  0  0  0  0  0  0  0  0  0  0
   10.2323   -1.7505   23.0734 C   0  0  0  0  0  0  0  0  0  0  0  0
    0.9042   -9.5720   17.0921 C   0  0  0  0  0  0  0  0  0  0  0  0
    3.6191   -9.0441   16.7131 C   0  0  0  0  0  0  0  0  0  0  0  0
    7.8162   -6.8863   15.8581 C   0  0  0  0  0  0  0  0  0  0  0  0
    5.9811   -9.5785   17.3409 N   0  0  0  0  0  0  0  0  0  0  0  0
   10.2024   -2.9799   23.4564 C   0  0  0  0  0  0  0  0  0  0  0  0
   10.7438   -3.9882   19.9307 C   0  0  0  0  0  0  0  0  0  0  0  0
   10.1957   -5.1225   19.6862 C   0  0  0  0  0  0  0  0  0  0  0  0
  1  3  4  0
  1  7  4  0
  2 16  4  0
  2 21  4  0
  2 27  4  0
  3  9  4  0
  3 10  4  0
  3 12  3  0
  4  8  4  0
  4 18  4  0
  4 25  1  0
  5  9  4  0
  5 12  4  0
  5 28  2  0
  6 13  1  0
  6 27  1  0
  7 12  2  0
  7 16  3  0
  7 28  4  0
  8 11  4  0
  9 29  4  0
 10 11  3  0
 10 12  4  0
 10 20  1  0
 11 24  1  0
 11 26  4  0
 12 17  3  0
 12 25  1  0
 13 21  2  0
 13 28  1  0
 14 20  4  0
 14 23  4  0
 15 17  4  0
 15 21  4  0
 16 19  4  0
 16 23  4  0
 17 22  4  0
 18 26  4  0
 19 24  4  0
 20 24  4  0
 22 27  4  0
 26 29  4  0
 28 29  4  0
M  END
$$$$

 Created by Python create_sdf_string function

 29 37  0  0  0  0  0  0  0  0999 V2000
   10.7474   -3.3710   17.6899 C   0  0  0  0  0  0  0  0  0  0  0  0
   10.1525   -3.6386   24.7710 N   0  0  0  0  0  0  0  0  0  0  0  0
   10.0855   -4.5480   17.3916 C   0  0  0  0  0  0  0  0  0  0  0  0
    6.8860   -7.9339   16.3570 C   0  0  0  0  0  0  0  0  0  0  0  0
    8.9784   -6.3865   17.8716 C   0  0  0  0  0  0  0  0  0  0  0  0
   10.6730   -3.9985   22.4762 C   0  0  0  0  0  0  0  0  0  0  0  0
   11.0530   -3.0517   19.0212 C   0  0  0  0  0  0  0  0  0  0  0  0
    5.6731   -7.7815   16.0955 O   0  0  0  0  0  0  0  0  0  0  0  0
    9.7189   -5.4811   18.4741 C   0  0  0  0  0  0  0  0  0  0  0  0
    9.5626   -5.0373   16.3257 N   0  0  0  0  0  0  0  0  0  0  0  0
    5.0052   -8.7548   16.7293 C   0  0  0  0  0  0  0  0  0  0  0  0
    8.7627   -6.0825   16.5983 C   0  0  0  0  0  0  0  0  0  0  0  0
   11.0171   -3.5547   21.2664 O   0  0  0  0  0  0  0  0  0  0  0  0
    1.4046   -8.4922   16.2575 C   0  0  0  0  0  0  0  0  0  0  0  0
    9.3214   -1.3747   25.4160 C   0  0  0  0  0  0  0  0  0  0  0  0
    1.8596  -10.3050   17.6410 N   0  0  0  0  0  0  0  0  0  0  0  0
    9.6621   -0.8869   24.0959 C   0  0  0  0  0  0  0  0  0  0  0  0
    7.0873   -8.8182   17.0654 C   0  0  0  0  0  0  0  0  0  0  0  0
    3.0961  -10.1692   17.6589 C   0  0  0  0  0  0  0  0  0  0  0  0
    2.6737   -8.3568   16.1075 C   0  0  0  0  0  0  0  0  0  0  0  0
    9.4407   -2.9269   25.5535 C   0  0  0  0  0  0  0  0  0  0  0  0
   10.1053   -1.7365   23.1049 C   0  0  0  0  0  0  0  0  0  0  0  0
    0.9592   -9.5610   17.0537 C   0  0  0  0  0  0  0  0  0  0  0  0
    3.6207   -9.1427   16.8110 C   0  0  0  0  0  0  0  0  0  0  0  0
    7.8700   -6.9313   15.7322 C   0  0  0  0  0  0  0  0  0  0  0  0
    5.9240   -9.5452   17.2399 N   0  0  0  0  0  0  0  0  0  0  0  0
   10.1801   -2.9856   23.3227 C   0  0  0  0  0  0  0  0  0  0  0  0
   10.8221   -3.8923   19.9091 C   0  0  0  0  0  0  0  0  0  0  0  0
   10.1821   -5.0366   19.6624 C   0  0  0  0  0  0  0  0  0  0  0  0
  1  3  4  0
  1  7  4  0
  2 21  4  0
  2 27  4  0
  3  9  4  0
  3 10  4  0
  3 18  2  0
  4  8  4  0
  4 25  1  0
  5  9  4  0
  5 12  4  0
  6 13  1  0
  6 27  1  0
  7 14  2  0
  7 28  4  0
  8 11  4  0
  9 28  3  0
  9 29  4  0
 10 12  4  0
 11 24  1  0
 11 26  4  0
 12 25  1  0
 13 28  1  0
 14 23  4  0
 15 16  1  0
 15 17  4  0
 15 21  4  0
 16 18  3  0
 16 19  4  0
 16 23  4  0
 16 29  2  0
 17 22  4  0
 18 26  4  0
 19 24  4  0
 20 24  4  0
 22 27  4  0
 28 29  4  0
M  END
$$$$

 Created by Python create_sdf_string function

 29 39  0  0  0  0  0  0  0  0999 V2000
   10.7122   -3.3604   17.6996 C   0  0  0  0  0  0  0  0  0  0  0  0
   10.0673   -3.5603   24.7212 N   0  0  0  0  0  0  0  0  0  0  0  0
   10.0514   -4.4625   17.3834 C   0  0  0  0  0  0  0  0  0  0  0  0
    6.9982   -7.8760   16.3282 C   0  0  0  0  0  0  0  0  0  0  0  0
   10.5924   -3.9176   22.4138 C   0  0  0  0  0  0  0  0  0  0  0  0
   11.0733   -3.0557   18.9133 C   0  0  0  0  0  0  0  0  0  0  0  0
    5.6422   -7.8372   16.1402 O   0  0  0  0  0  0  0  0  0  0  0  0
    9.6652   -5.4781   18.3884 C   0  0  0  0  0  0  0  0  0  0  0  0
    9.5250   -4.9772   16.2953 N   0  0  0  0  0  0  0  0  0  0  0  0
    4.9608   -8.8147   16.7633 C   0  0  0  0  0  0  0  0  0  0  0  0
    8.7973   -6.1675   16.5944 C   0  0  0  0  0  0  0  0  0  0  0  0
   10.9579   -3.5339   21.2447 O   0  0  0  0  0  0  0  0  0  0  0  0
    1.3588   -8.5797   16.2477 C   0  0  0  0  0  0  0  0  0  0  0  0
    9.3044   -1.3641   25.4679 C   0  0  0  0  0  0  0  0  0  0  0  0
    1.8219  -10.3554   17.7006 N   0  0  0  0  0  0  0  0  0  0  0  0
    9.6502   -0.9182   24.1382 C   0  0  0  0  0  0  0  0  0  0  0  0
    7.0539   -8.9442   17.0343 C   0  0  0  0  0  0  0  0  0  0  0  0
    3.1506  -10.1786   17.6639 C   0  0  0  0  0  0  0  0  0  0  0  0
    2.6950   -8.3061   16.2062 C   0  0  0  0  0  0  0  0  0  0  0  0
    9.4401   -2.7452   25.6453 C   0  0  0  0  0  0  0  0  0  0  0  0
   10.1006   -1.6700   23.1875 C   0  0  0  0  0  0  0  0  0  0  0  0
    0.9697   -9.5840   17.0852 C   0  0  0  0  0  0  0  0  0  0  0  0
    3.7207   -9.0911   16.7618 C   0  0  0  0  0  0  0  0  0  0  0  0
    7.8339   -6.8641   15.7480 N   0  0  0  0  0  0  0  0  0  0  0  0
    5.9599   -9.4557   17.3334 N   0  0  0  0  0  0  0  0  0  0  0  0
   10.3027   -3.1396   23.4704 C   0  0  0  0  0  0  0  0  0  0  0  0
   10.8151   -3.9048   19.9793 C   0  0  0  0  0  0  0  0  0  0  0  0
   10.1491   -5.0445   19.7055 C   0  0  0  0  0  0  0  0  0  0  0  0
    8.9715   -6.3339   17.8870 He  0  0  0  0  0  0  0  0  0  0  0  0
  1  3  4  0
  1  6  4  0
  2  3  2  0
  2 20  4  0
  2 23  4  0
  2 26  4  0
  3  8  4  0
  3  9  4  0
  4  7  4  0
  4 17  4  0
  4 24  1  0
  5 12  1  0
  5 26  1  0
  6 27  4  0
  7 10  4  0
  8 28  4  0
  9 11  4  0
  9 28  4  0
 10 23  1  0
 10 25  4  0
 10 27  2  0
 11 14  3  0
 11 24  1  0
 12 27  1  0
 13 16  2  0
 13 19  4  0
 13 22  4  0
 14 16  4  0
 14 20  4  0
 15 18  4  0
 15 22  4  0
 15 25  4  0
 16 21  4  0
 17 25  4  0
 17 27  3  0
 18 23  4  0
 19 23  4  0
 21 26  4  0
 27 28  4  0
M  END
$$$$

 Created by Python create_sdf_string function

 29 38  0  0  0  0  0  0  0  0999 V2000
   10.7032   -3.2920   17.6637 C   0  0  0  0  0  0  0  0  0  0  0  0
   10.0041   -3.5525   24.6870 N   0  0  0  0  0  0  0  0  0  0  0  0
   10.0562   -4.4945   17.3907 C   0  0  0  0  0  0  0  0  0  0  0  0
    6.9557   -7.7611   16.3801 C   0  0  0  0  0  0  0  0  0  0  0  0
    9.0030   -6.3641   17.8862 N   0  0  0  0  0  0  0  0  0  0  0  0
   10.5964   -4.0686   22.4488 C   0  0  0  0  0  0  0  0  0  0  0  0
   11.0862   -3.0624   18.9272 C   0  0  0  0  0  0  0  0  0  0  0  0
    5.6200   -7.7563   16.0921 O   0  0  0  0  0  0  0  0  0  0  0  0
    9.6958   -5.3742   18.4481 C   0  0  0  0  0  0  0  0  0  0  0  0
    9.4482   -5.0466   16.2864 N   0  0  0  0  0  0  0  0  0  0  0  0
    4.9877   -8.7575   16.8090 C   0  0  0  0  0  0  0  0  0  0  0  0
    8.7049   -6.1354   16.5955 C   0  0  0  0  0  0  0  0  0  0  0  0
   10.9993   -3.5409   21.2282 O   0  0  0  0  0  0  0  0  0  0  0  0
    1.4316   -8.5873   16.2337 C   0  0  0  0  0  0  0  0  0  0  0  0
    9.2772   -1.3669   25.4495 C   0  0  0  0  0  0  0  0  0  0  0  0
    1.8950  -10.3464   17.7582 N   0  0  0  0  0  0  0  0  0  0  0  0
    9.5763   -0.8527   24.1675 C   0  0  0  0  0  0  0  0  0  0  0  0
    7.1791   -8.9501   17.0842 C   0  0  0  0  0  0  0  0  0  0  0  0
    3.1382  -10.1154   17.7077 B   0  0  0  0  0  0  0  0  0  0  0  0
    2.7241   -8.3030   16.1730 C   0  0  0  0  0  0  0  0  0  0  0  0
    9.5487   -2.6919   25.6774 C   0  0  0  0  0  0  0  0  0  0  0  0
   10.1276   -1.6524   23.1737 C   0  0  0  0  0  0  0  0  0  0  0  0
    0.9647   -9.5849   16.9724 C   0  0  0  0  0  0  0  0  0  0  0  0
    3.6243   -9.0937   16.8492 C   0  0  0  0  0  0  0  0  0  0  0  0
    7.8680   -6.9616   15.8407 C   0  0  0  0  0  0  0  0  0  0  0  0
    5.9852   -9.5442   17.3093 N   0  0  0  0  0  0  0  0  0  0  0  0
   10.2864   -3.0358   23.4026 C   0  0  0  0  0  0  0  0  0  0  0  0
   10.7429   -3.8808   20.0093 C   0  0  0  0  0  0  0  0  0  0  0  0
   10.1833   -5.0918   19.7169 C   0  0  0  0  0  0  0  0  0  0  0  0
  1  3  4  0
  1  7  4  0
  1 21  4  0
  2 21  4  0
  3  8  4  0
  3  9  4  0
  3 27  3  0
  4  8  4  0
  4 18  4  0
  4 25  1  0
  5  9  4  0
  5 12  4  0
  6 13  1  0
  6 27  1  0
  7 10  3  0
  7 28  4  0
  8 11  4  0
  9 29  4  0
 10 12  4  0
 11 24  1  0
 11 26  4  0
 12 21  4  0
 12 25  1  0
 13 28  1  0
 14 20  4  0
 14 21  3  0
 14 23  4  0
 15 17  4  0
 15 21  4  0
 16 19  4  0
 16 23  4  0
 17 22  4  0
 18 26  4  0
 19 23  1  0
 19 24  4  0
 20 24  4  0
 22 27  4  0
 28 29  4  0
M  END
$$$$

 Created by Python create_sdf_string function

 29 37  0  0  0  0  0  0  0  0999 V2000
   10.6996   -3.3722   17.6055 C   0  0  0  0  0  0  0  0  0  0  0  0
   10.0273   -3.5072   24.6687 P   0  0  0  0  0  0  0  0  0  0  0  0
    9.9367   -4.5591   17.4049 C   0  0  0  0  0  0  0  0  0  0  0  0
    6.9477   -7.8208   16.3092 C   0  0  0  0  0  0  0  0  0  0  0  0
    8.9948   -6.4144   17.9822 N   0  0  0  0  0  0  0  0  0  0  0  0
   10.5682   -4.0067   22.4304 C   0  0  0  0  0  0  0  0  0  0  0  0
   11.0997   -3.0401   18.9229 C   0  0  0  0  0  0  0  0  0  0  0  0
    5.6381   -7.8049   16.2199 O   0  0  0  0  0  0  0  0  0  0  0  0
    9.7878   -5.3867   18.3903 C   0  0  0  0  0  0  0  0  0  0  0  0
    9.4870   -5.0556   16.3137 N   0  0  0  0  0  0  0  0  0  0  0  0
    5.0564   -8.7870   16.7925 C   0  0  0  0  0  0  0  0  0  0  0  0
    8.7637   -6.2033   16.6435 C   0  0  0  0  0  0  0  0  0  0  0  0
   10.9716   -3.5370   21.2066 O   0  0  0  0  0  0  0  0  0  0  0  0
    1.4210   -8.5505   16.2417 C   0  0  0  0  0  0  0  0  0  0  0  0
    9.2882   -1.3991   25.4224 C   0  0  0  0  0  0  0  0  0  0  0  0
    1.9411  -10.3434   17.6738 N   0  0  0  0  0  0  0  0  0  0  0  0
    9.5544   -0.8441   24.1173 C   0  0  0  0  0  0  0  0  0  0  0  0
    7.1247   -8.9621   17.1170 C   0  0  0  0  0  0  0  0  0  0  0  0
    3.1600  -10.0569   17.6460 C   0  0  0  0  0  0  0  0  0  0  0  0
    2.7339   -8.2667   16.1374 C   0  0  0  0  0  0  0  0  0  0  0  0
    9.5062   -2.7068   25.7176 C   0  0  0  0  0  0  0  0  0  0  0  0
   10.1046   -1.7053   23.0941 C   0  0  0  0  0  0  0  0  0  0  0  0
    0.9992   -9.6252   17.0173 C   0  0  0  0  0  0  0  0  0  0  0  0
    3.6055   -9.0516   16.8506 C   0  0  0  0  0  0  0  0  0  0  0  0
    7.8773   -6.8999   15.7435 C   0  0  0  0  0  0  0  0  0  0  0  0
    5.9844   -9.5301   17.2922 N   0  0  0  0  0  0  0  0  0  0  0  0
   10.2071   -2.9689   23.4782 C   0  0  0  0  0  0  0  0  0  0  0  0
   10.7908   -3.9269   19.9049 C   0  0  0  0  0  0  0  0  0  0  0  0
   10.1351   -5.0237   19.6711 C   0  0  0  0  0  0  0  0  0  0  0  0
  1  3  4  0
  1  7  4  0
  1 21  4  0
  2 16  4  0
  2 21  4  0
  3  9  4  0
  3 10  4  0
  4  8  4  0
  4 18  4  0
  4 25  1  0
  5  9  4  0
  5 12  4  0
  5 29  3  0
  6 13  1  0
  6 27  1  0
  7 28  4  0
  8 11  4  0
  9 29  4  0
 10 12  4  0
 11 24  1  0
 11 26  4  0
 12 25  1  0
 13 28  1  0
 14 20  4  0
 14 23  4  0
 14 25  3  0
 15 17  4  0
 15 21  4  0
 15 24  3  0
 16 19  4  0
 16 23  4  0
 17 22  4  0
 18 26  4  0
 19 24  4  0
 20 24  4  0
 22 27  4  0
 28 29  4  0
M  END
$$$$

 Created by Python create_sdf_string function

 29 35  0  0  0  0  0  0  0  0999 V2000
   10.6749   -3.3582   17.5577 C   0  0  0  0  0  0  0  0  0  0  0  0
   10.0176   -3.4960   24.7478 N   0  0  0  0  0  0  0  0  0  0  0  0
   10.0195   -4.5429   17.3637 C   0  0  0  0  0  0  0  0  0  0  0  0
    6.9025   -7.8326   16.3617 C   0  0  0  0  0  0  0  0  0  0  0  0
    9.0719   -6.3790   17.9423 N   0  0  0  0  0  0  0  0  0  0  0  0
   10.6256   -3.9257   22.4684 C   0  0  0  0  0  0  0  0  0  0  0  0
   11.0553   -3.0964   18.8847 C   0  0  0  0  0  0  0  0  0  0  0  0
    5.6477   -7.7899   16.1801 O   0  0  0  0  0  0  0  0  0  0  0  0
    9.7930   -5.3451   18.3994 C   0  0  0  0  0  0  0  0  0  0  0  0
    9.4475   -5.0939   16.2982 N   0  0  0  0  0  0  0  0  0  0  0  0
    4.9814   -8.7899   16.7924 C   0  0  0  0  0  0  0  0  0  0  0  0
    8.7466   -6.1551   16.6302 C   0  0  0  0  0  0  0  0  0  0  0  0
   11.0262   -3.5517   21.2001 O   0  0  0  0  0  0  0  0  0  0  0  0
    1.4353   -8.5885   16.2555 C   0  0  0  0  0  0  0  0  0  0  0  0
    9.2455   -1.3678   25.3482 C   0  0  0  0  0  0  0  0  0  0  0  0
    1.8920  -10.3297   17.6654 N   0  0  0  0  0  0  0  0  0  0  0  0
    9.5630   -0.7965   24.1856 C   0  0  0  0  0  0  0  0  0  0  0  0
    7.1732   -8.9423   17.1001 C   0  0  0  0  0  0  0  0  0  0  0  0
    3.1926  -10.1004   17.6183 C   0  0  0  0  0  0  0  0  0  0  0  0
    2.7339   -8.2741   16.1565 C   0  0  0  0  0  0  0  0  0  0  0  0
    9.5063   -2.6612   25.6504 C   0  0  0  0  0  0  0  0  0  0  0  0
   10.1229   -1.6560   23.1112 C   0  0  0  0  0  0  0  0  0  0  0  0
    1.0163   -9.6691   17.0078 C   0  0  0  0  0  0  0  0  0  0  0  0
    3.6338   -9.0771   16.8680 C   0  0  0  0  0  0  0  0  0  0  0  0
    7.8169   -6.9610   15.8152 C   0  0  0  0  0  0  0  0  0  0  0  0
    5.9725   -9.5755   17.3319 N   0  0  0  0  0  0  0  0  0  0  0  0
   10.2127   -3.0370   23.4207 C   0  0  0  0  0  0  0  0  0  0  0  0
   10.7211   -3.9196   19.9320 C   0  0  0  0  0  0  0  0  0  0  0  0
   10.0937   -5.1197   19.7375 C   0  0  0  0  0  0  0  0  0  0  0  0
  1  3  4  0
  1  7  4  0
  2 21  4  0
  2 27  4  0
  3  9  4  0
  3 10  4  0
  4  8  4  0
  4 11  3  0
  4 18  4  0
  4 25  1  0
  5  9  4  0
  5 12  4  0
  5 14  2  0
  5 26  2  0
  6 13  1  0
  7 28  4  0
  8 11  4  0
 10 12  4  0
 11 24  1  0
 11 26  4  0
 12 25  1  0
 13 28  1  0
 14 20  4  0
 14 23  4  0
 15 17  4  0
 15 21  4  0
 16 19  4  0
 16 23  4  0
 17 22  4  0
 18 26  4  0
 19 24  4  0
 20 24  4  0
 22 27  4  0
 25 29  2  0
 28 29  4  0
M  END
$$$$

 Created by Python create_sdf_string function

 29 35  0  0  0  0  0  0  0  0999 V2000
   10.6802   -3.3513   17.6101 C   0  0  0  0  0  0  0  0  0  0  0  0
    9.9984   -3.5049   24.7245 N   0  0  0  0  0  0  0  0  0  0  0  0
    9.9956   -4.5055   17.3754 C   0  0  0  0  0  0  0  0  0  0  0  0
    6.8992   -7.8808   16.3674 C   0  0  0  0  0  0  0  0  0  0  0  0
    9.0662   -6.3196   17.9536 N   0  0  0  0  0  0  0  0  0  0  0  0
   10.6068   -3.9238   22.4235 C   0  0  0  0  0  0  0  0  0  0  0  0
   11.0721   -3.0287   18.8990 C   0  0  0  0  0  0  0  0  0  0  0  0
    5.6204   -7.8164   16.1852 O   0  0  0  0  0  0  0  0  0  0  0  0
    9.7481   -5.3708   18.4248 C   0  0  0  0  0  0  0  0  0  0  0  0
    9.4371   -5.0817   16.2976 N   0  0  0  0  0  0  0  0  0  0  0  0
    5.0186   -8.7894   16.7753 C   0  0  0  0  0  0  0  0  0  0  0  0
    8.7764   -6.1904   16.6303 C   0  0  0  0  0  0  0  0  0  0  0  0
   10.9902   -3.5489   21.2667 O   0  0  0  0  0  0  0  0  0  0  0  0
    1.4138   -8.6014   16.2363 C   0  0  0  0  0  0  0  0  0  0  0  0
    9.2705   -1.3367   25.4048 C   0  0  0  0  0  0  0  0  0  0  0  0
    1.8782  -10.3727   17.7155 N   0  0  0  0  0  0  0  0  0  0  0  0
    9.5796   -0.7425   24.1357 C   0  0  0  0  0  0  0  0  0  0  0  0
    7.1284   -8.9867   17.0973 C   0  0  0  0  0  0  0  0  0  0  0  0
    3.1787  -10.1180   17.6105 C   0  0  0  0  0  0  0  0  0  0  0  0
    2.7354   -8.2737   16.1876 C   0  0  0  0  0  0  0  0  0  0  0  0
    9.4803   -2.6778   25.6565 C   0  0  0  0  0  0  0  0  0  0  0  0
   10.1329   -1.6357   23.1584 C   0  0  0  0  0  0  0  0  0  0  0  0
    1.0397   -9.6685   17.0008 C   0  0  0  0  0  0  0  0  0  0  0  0
    3.6852   -9.0948   16.8460 C   0  0  0  0  0  0  0  0  0  0  0  0
    7.8486   -6.9428   15.8101 O   0  0  0  0  0  0  0  0  0  0  0  0
    5.9855   -9.5876   17.3262 N   0  0  0  0  0  0  0  0  0  0  0  0
   10.1856   -2.9624   23.5159 C   0  0  0  0  0  0  0  0  0  0  0  0
   10.7317   -3.9113   19.9072 C   0  0  0  0  0  0  0  0  0  0  0  0
   10.1368   -5.0621   19.6867 C   0  0  0  0  0  0  0  0  0  0  0  0
  1  3  4  0
  1  7  4  0
  2 21  4  0
  2 27  4  0
  3  9  4  0
  3 10  4  0
  4  8  4  0
  4 18  4  0
  4 25  1  0
  5 12  4  0
  6 13  1  0
  6 24  4  0
  6 27  1  0
  7 28  4  0
  8 11  4  0
  8 25  2  0
  8 27  1  0
  9 29  4  0
 10 12  4  0
 11 24  1  0
 11 26  4  0
 12 25  1  0
 13 28  1  0
 14 20  4  0
 14 23  4  0
 15 17  4  0
 15 21  4  0
 16 19  4  0
 16 23  4  0
 17 22  4  0
 18 26  4  0
 19 24  4  0
 20 24  4  0
 22 27  4  0
 28 29  4  0
M  END
$$$$

 Created by Python create_sdf_string function

 29 35  0  0  0  0  0  0  0  0999 V2000
   10.6910   -3.3561   17.5908 C   0  0  0  0  0  0  0  0  0  0  0  0
    9.9307   -3.4778   24.7066 N   0  0  0  0  0  0  0  0  0  0  0  0
    9.9822   -4.4993   17.3607 C   0  0  0  0  0  0  0  0  0  0  0  0
    6.9440   -7.8929   16.3916 C   0  0  0  0  0  0  0  0  0  0  0  0
    9.0225   -6.3440   17.9380 N   0  0  0  0  0  0  0  0  0  0  0  0
   10.6220   -3.9449   22.4497 C   0  0  0  0  0  0  0  0  0  0  0  0
   11.0772   -3.0101   18.8845 C   0  0  0  0  0  0  0  0  0  0  0  0
    5.6041   -7.8072   16.1442 O   0  0  0  0  0  0  0  0  0  0  0  0
    9.7650   -5.3158   18.4074 C   0  0  0  0  0  0  0  0  0  0  0  0
    9.4462   -5.0672   16.2616 N   0  0  0  0  0  0  0  0  0  0  0  0
    5.0058   -8.8533   16.7733 C   0  0  0  0  0  0  0  0  0  0  0  0
    8.7631   -6.1941   16.6222 C   0  0  0  0  0  0  0  0  0  0  0  0
   10.9756   -3.5031   21.2239 O   0  0  0  0  0  0  0  0  0  0  0  0
    1.4751   -8.6223   16.2318 C   0  0  0  0  0  0  0  0  0  0  0  0
    9.2686   -1.3368   25.3841 C   0  0  0  0  0  0  0  0  0  0  0  0
    1.8997  -10.4064   17.7083 N   0  0  0  0  0  0  0  0  0  0  0  0
    9.5625   -0.7779   24.1209 C   0  0  0  0  0  0  0  0  0  0  0  0
    7.0826   -8.9772   17.1146 C   0  0  0  0  0  0  0  0  0  0  0  0
    3.1682  -10.1034   17.6245 C   0  0  0  0  0  0  0  0  0  0  0  0
    2.7577   -8.3182   16.1736 C   0  0  0  0  0  0  0  0  0  0  0  0
    9.4666   -2.6965   25.6766 C   0  0  0  0  0  0  0  0  0  0  0  0
   10.1064   -1.6558   23.1178 C   0  0  0  0  0  0  0  0  0  0  0  0
    1.0472   -9.6508   16.9981 C   0  0  0  0  0  0  0  0  0  0  0  0
    3.7036   -9.0595   16.8785 C   0  0  0  0  0  0  0  0  0  0  0  0
    7.8675   -6.9582   15.9128 C   0  0  0  0  0  0  0  0  0  0  0  0
    6.0160   -9.5748   17.3392 N   0  0  0  0  0  0  0  0  0  0  0  0
   10.1983   -2.9825   23.5227 C   0  0  0  0  0  0  0  0  0  0  0  0
   10.7543   -3.9161   19.9517 C   0  0  0  0  0  0  0  0  0  0  0  0
   10.1031   -5.0410   19.6447 C   0  0  0  0  0  0  0  0  0  0  0  0
  1  3  4  0
  1  7  4  0
  2 21  4  0
  2 27  4  0
  3  9  4  0
  3 10  4  0
  3 28  4  0
  4  8  4  0
  4 18  4  0
  4 25  1  0
  5  9  4  0
  5 12  4  0
  6 13  1  0
  6 27  1  0
  7 28  4  0
  8 11  4  0
  9 21  1  0
  9 29  4  0
 10 12  4  0
 11 24  1  0
 11 26  4  0
 12 25  1  0
 13 28  1  0
 14 20  4  0
 14 23  4  0
 15 17  4  0
 15 21  4  0
 16 19  4  0
 16 23  4  0
 17 22  4  0
 18 26  4  0
 19 24  4  0
 20 24  4  0
 22 27  4  0
 28 29  4  0
M  END
$$$$

 Created by Python create_sdf_string function

 29 34  0  0  0  0  0  0  0  0999 V2000
   10.6976   -3.3355   17.6196 C   0  0  0  0  0  0  0  0  0  0  0  0
    9.9411   -3.4995   24.6908 N   0  0  0  0  0  0  0  0  0  0  0  0
   10.0172   -4.4937   17.3788 C   0  0  0  0  0  0  0  0  0  0  0  0
    6.9084   -7.8869   16.3889 C   0  0  0  0  0  0  0  0  0  0  0  0
    9.0067   -6.3450   17.9227 N   0  0  0  0  0  0  0  0  0  0  0  0
   10.6265   -3.9404   22.4216 C   0  0  0  0  0  0  0  0  0  0  0  0
   11.0539   -3.0432   18.8877 C   0  0  0  0  0  0  0  0  0  0  0  0
    5.6008   -7.8265   16.1258 O   0  0  0  0  0  0  0  0  0  0  0  0
    9.7194   -5.3190   18.3925 C   0  0  0  0  0  0  0  0  0  0  0  0
    9.4540   -5.0637   16.2643 N   0  0  0  0  0  0  0  0  0  0  0  0
    5.0500   -8.8503   16.7700 C   0  0  0  0  0  0  0  0  0  0  0  0
    8.7840   -6.1686   16.6946 C   0  0  0  0  0  0  0  0  0  0  0  0
   10.9612   -3.4984   21.2000 O   0  0  0  0  0  0  0  0  0  0  0  0
    1.4793   -8.6436   16.2685 C   0  0  0  0  0  0  0  0  0  0  0  0
    9.2459   -1.3064   25.3783 C   0  0  0  0  0  0  0  0  0  0  0  0
    1.8849  -10.3773   17.7291 N   0  0  0  0  0  0  0  0  0  0  0  0
    9.5906   -0.7413   24.1019 C   0  0  0  0  0  0  0  0  0  0  0  0
    7.0784   -8.9984   17.0994 C   0  0  0  0  0  0  0  0  0  0  0  0
    3.1979  -10.1073   17.6434 C   0  0  0  0  0  0  0  0  0  0  0  0
    2.7512   -8.3191   16.1833 C   0  0  0  0  0  0  0  0  0  0  0  0
    9.4533   -2.6810   25.7263 C   0  0  0  0  0  0  0  0  0  0  0  0
   10.1139   -1.6166   23.1561 C   0  0  0  0  0  0  0  0  0  0  0  0
    1.0630   -9.6382   17.0001 C   0  0  0  0  0  0  0  0  0  0  0  0
    3.6281   -9.1006   16.8677 C   0  0  0  0  0  0  0  0  0  0  0  0
    7.8736   -6.9829   15.8862 C   0  0  0  0  0  0  0  0  0  0  0  0
    6.0058   -9.5834   17.3546 N   0  0  0  0  0  0  0  0  0  0  0  0
   10.1932   -2.9702   23.4697 C   0  0  0  0  0  0  0  0  0  0  0  0
   10.7517   -3.8760   19.9253 C   0  0  0  0  0  0  0  0  0  0  0  0
   10.1220   -5.0464   19.6705 C   0  0  0  0  0  0  0  0  0  0  0  0
  1  3  4  0
  1  7  4  0
  2 21  4  0
  2 27  4  0
  3  9  4  0
  3 10  4  0
  4  8  4  0
  4 18  4  0
  4 25  1  0
  5  8  1  0
  5  9  4  0
  5 12  4  0
  6 13  1  0
  6 27  1  0
  7 21  3  0
  7 28  4  0
  8 11  4  0
  9 29  4  0
 10 12  4  0
 11 24  1  0
 11 26  4  0
 12 25  1  0
 13 28  1  0
 14 20  4  0
 14 23  4  0
 15 17  4  0
 15 21  4  0
 16 19  4  0
 16 23  4  0
 18 26  4  0
 19 24  4  0
 20 24  4  0
 22 27  4  0
 28 29  4  0
M  END
$$$$

 Created by Python create_sdf_string function

 29 31  0  0  0  0  0  0  0  0999 V2000
   10.6974   -3.3373   17.6339 C   0  0  0  0  0  0  0  0  0  0  0  0
    9.9443   -3.5082   24.6848 N   0  0  0  0  0  0  0  0  0  0  0  0
   10.0265   -4.4746   17.3866 C   0  0  0  0  0  0  0  0  0  0  0  0
    6.8934   -7.9014   16.3746 C   0  0  0  0  0  0  0  0  0  0  0  0
    8.9778   -6.3942   17.9697 N   0  0  0  0  0  0  0  0  0  0  0  0
   10.6354   -3.9469   22.4427 C   0  0  0  0  0  0  0  0  0  0  0  0
   11.0562   -3.0435   18.8927 C   0  0  0  0  0  0  0  0  0  0  0  0
    5.6131   -7.8404   16.1556 O   0  0  0  0  0  0  0  0  0  0  0  0
    9.7272   -5.3118   18.4241 C   0  0  0  0  0  0  0  0  0  0  0  0
    9.4503   -5.0453   16.2711 N   0  0  0  0  0  0  0  0  0  0  0  0
    5.0286   -8.8729   16.7846 C   0  0  0  0  0  0  0  0  0  0  0  0
    8.7897   -6.1826   16.6751 C   0  0  0  0  0  0  0  0  0  0  0  0
   10.9556   -3.4821   21.1846 O   0  0  0  0  0  0  0  0  0  0  0  0
    1.4739   -8.6167   16.2674 C   0  0  0  0  0  0  0  0  0  0  0  0
    9.2392   -1.2740   25.3723 C   0  0  0  0  0  0  0  0  0  0  0  0
    1.9179  -10.3729   17.7322 N   0  0  0  0  0  0  0  0  0  0  0  0
    9.6056   -0.7223   24.1213 C   0  0  0  0  0  0  0  0  0  0  0  0
    7.0949   -8.9801   17.0766 C   0  0  0  0  0  0  0  0  0  0  0  0
    3.1741  -10.1300   17.6154 C   0  0  0  0  0  0  0  0  0  0  0  0
    2.7659   -8.3457   16.2001 C   0  0  0  0  0  0  0  0  0  0  0  0
    9.4472   -2.6663   25.7095 C   0  0  0  0  0  0  0  0  0  0  0  0
   10.1080   -1.5928   23.1545 C   0  0  0  0  0  0  0  0  0  0  0  0
    1.0594   -9.6561   17.0467 C   0  0  0  0  0  0  0  0  0  0  0  0
    3.6388   -9.1208   16.8589 C   0  0  0  0  0  0  0  0  0  0  0  0
    7.8611   -6.9865   15.8870 C   0  0  0  0  0  0  0  0  0  0  0  0
    5.9511   -9.6127   17.3599 N   0  0  0  0  0  0  0  0  0  0  0  0
   10.2105   -2.9798   23.4520 C   0  0  0  0  0  0  0  0  0  0  0  0
   10.1326   -5.0507   19.6587 C   0  0  0  0  0  0  0  0  0  0  0  0
   10.7493   -3.8543   19.9223 He  0  0  0  0  0  0  0  0  0  0  0  0
  1  3  4  0
  1  7  4  0
  2 21  4  0
  2 27  4  0
  3  9  4  0
  3 10  4  0
  4  8  4  0
  4 18  4  0
  4 25  1  0
  5  9  4  0
  5 12  4  0
  6 13  1  0
  6 27  1  0
  8 11  4  0
  9 28  4  0
 10 12  4  0
 11 24  1  0
 11 26  4  0
 12 25  1  0
 14 15  4  0
 14 20  4  0
 14 23  4  0
 15 17  4  0
 15 21  4  0
 16 19  4  0
 16 23  4  0
 17 22  4  0
 18 26  4  0
 19 24  4  0
 20 24  4  0
 22 27  4  0
M  END
$$$$

 Created by Python create_sdf_string function

 29 34  0  0  0  0  0  0  0  0999 V2000
   10.7007   -3.3292   17.6417 C   0  0  0  0  0  0  0  0  0  0  0  0
    9.9336   -3.4983   24.6730 N   0  0  0  0  0  0  0  0  0  0  0  0
   10.0149   -4.4780   17.3894 C   0  0  0  0  0  0  0  0  0  0  0  0
    6.9144   -7.9129   16.3964 C   0  0  0  0  0  0  0  0  0  0  0  0
    8.9942   -6.3535   17.9645 N   0  0  0  0  0  0  0  0  0  0  0  0
   10.6520   -3.9384   22.4067 C   0  0  0  0  0  0  0  0  0  0  0  0
   11.0477   -3.0333   18.8842 C   0  0  0  0  0  0  0  0  0  0  0  0
    5.6000   -7.8553   16.1451 O   0  0  0  0  0  0  0  0  0  0  0  0
    9.7124   -5.3299   18.4362 C   0  0  0  0  0  0  0  0  0  0  0  0
    9.4514   -5.0294   16.2774 N   0  0  0  0  0  0  0  0  0  0  0  0
    5.0196   -8.8863   16.7953 C   0  0  0  0  0  0  0  0  0  0  0  0
    8.7861   -6.1731   16.6556 C   0  0  0  0  0  0  0  0  0  0  0  0
   10.9518   -3.4662   21.2112 O   0  0  0  0  0  0  0  0  0  0  0  0
    1.4594   -8.6247   16.2646 C   0  0  0  0  0  0  0  0  0  0  0  0
    9.2549   -1.2911   25.3840 C   0  0  0  0  0  0  0  0  0  0  0  0
    1.8866  -10.3727   17.7416 N   0  0  0  0  0  0  0  0  0  0  0  0
    9.6065   -0.6966   24.1294 C   0  0  0  0  0  0  0  0  0  0  0  0
    7.0909   -9.0007   17.1137 C   0  0  0  0  0  0  0  0  0  0  0  0
    3.1940  -10.1356   17.6304 C   0  0  0  0  0  0  0  0  0  0  0  0
    2.7753   -8.3656   16.2102 C   0  0  0  0  0  0  0  0  0  0  0  0
    9.4468   -2.6492   25.6947 C   0  0  0  0  0  0  0  0  0  0  0  0
   10.1268   -1.5905   23.1323 C   0  0  0  0  0  0  0  0  0  0  0  0
    1.0582   -9.6331   17.0531 C   0  0  0  0  0  0  0  0  0  0  0  0
    3.6625   -9.1356   16.8971 C   0  0  0  0  0  0  0  0  0  0  0  0
    7.8755   -6.9970   15.9146 C   0  0  0  0  0  0  0  0  0  0  0  0
    5.9608   -9.6366   17.3653 N   0  0  0  0  0  0  0  0  0  0  0  0
   10.2146   -2.9503   23.4530 C   0  0  0  0  0  0  0  0  0  0  0  0
   10.7474   -3.8812   19.9258 C   0  0  0  0  0  0  0  0  0  0  0  0
   10.1243   -5.0322   19.6844 C   0  0  0  0  0  0  0  0  0  0  0  0
  1  3  4  0
  1  7  4  0
  2 21  4  0
  2 27  4  0
  3  9  4  0
  3 10  4  0
  4  8  4  0
  4 18  4  0
  4 25  1  0
  5  9  4  0
  5 12  4  0
  6 13  1  0
  6 27  1  0
  7 28  4  0
  8 11  4  0
  9 19  4  0
  9 29  4  0
 10 12  4  0
 11 24  1  0
 11 26  4  0
 12 25  1  0
 13 28  1  0
 14 20  4  0
 14 23  4  0
 15 17  4  0
 15 21  4  0
 16 19  4  0
 16 23  4  0
 17 22  4  0
 18 26  4  0
 19 24  4  0
 20 24  4  0
 22 27  4  0
 28 29  4  0
M  END
$$$$

 Created by Python create_sdf_string function

 29 33  0  0  0  0  0  0  0  0999 V2000
   10.7125   -3.3325   17.6372 C   0  0  0  0  0  0  0  0  0  0  0  0
    9.9382   -3.4739   24.6652 N   0  0  0  0  0  0  0  0  0  0  0  0
   10.0101   -4.4909   17.3999 C   0  0  0  0  0  0  0  0  0  0  0  0
    6.9076   -7.9344   16.3967 C   0  0  0  0  0  0  0  0  0  0  0  0
    9.0036   -6.3502   17.9598 N   0  0  0  0  0  0  0  0  0  0  0  0
   10.6559   -3.9237   22.4015 C   0  0  0  0  0  0  0  0  0  0  0  0
   11.0534   -3.0251   18.8937 C   0  0  0  0  0  0  0  0  0  0  0  0
    5.6092   -7.8874   16.1695 O   0  0  0  0  0  0  0  0  0  0  0  0
    9.7104   -5.3120   18.4443 C   0  0  0  0  0  0  0  0  0  0  0  0
    9.4652   -5.0258   16.2852 N   0  0  0  0  0  0  0  0  0  0  0  0
    5.0200   -8.8970   16.8030 C   0  0  0  0  0  0  0  0  0  0  0  0
    8.7652   -6.1547   16.6744 C   0  0  0  0  0  0  0  0  0  0  0  0
   10.9451   -3.4303   21.2052 O   0  0  0  0  0  0  0  0  0  0  0  0
    1.4637   -8.6217   16.2798 C   0  0  0  0  0  0  0  0  0  0  0  0
    9.2634   -1.2807   25.3668 C   0  0  0  0  0  0  0  0  0  0  0  0
    1.8871  -10.3837   17.7449 N   0  0  0  0  0  0  0  0  0  0  0  0
    9.6178   -0.7018   24.1218 Se  0  0  0  0  0  0  0  0  0  0  0  0
    7.0748   -9.0105   17.1326 C   0  0  0  0  0  0  0  0  0  0  0  0
    3.1664  -10.1603   17.6492 C   0  0  0  0  0  0  0  0  0  0  0  0
    2.7840   -8.3661   16.2123 C   0  0  0  0  0  0  0  0  0  0  0  0
    9.4600   -2.6500   25.6750 C   0  0  0  0  0  0  0  0  0  0  0  0
   10.1111   -1.5907   23.1275 C   0  0  0  0  0  0  0  0  0  0  0  0
    1.0472   -9.6343   17.0657 C   0  0  0  0  0  0  0  0  0  0  0  0
    3.6585   -9.1674   16.8844 C   0  0  0  0  0  0  0  0  0  0  0  0
    7.8667   -6.9981   15.9195 C   0  0  0  0  0  0  0  0  0  0  0  0
    5.9779   -9.6407   17.3692 N   0  0  0  0  0  0  0  0  0  0  0  0
   10.2342   -2.9447   23.4562 C   0  0  0  0  0  0  0  0  0  0  0  0
   10.7362   -3.8470   19.9409 C   0  0  0  0  0  0  0  0  0  0  0  0
   10.1207   -5.0333   19.6868 C   0  0  0  0  0  0  0  0  0  0  0  0
  1  3  4  0
  2 21  4  0
  2 27  4  0
  3  9  4  0
  3 10  4  0
  4  8  4  0
  4 18  4  0
  4 25  1  0
  5  9  4  0
  5 12  4  0
  6  8  3  0
  6 13  1  0
  6 27  1  0
  7 28  4  0
  8 11  4  0
  9 29  4  0
 10 12  4  0
 11 24  1  0
 11 26  4  0
 12 25  1  0
 13 28  1  0
 14 20  4  0
 14 23  4  0
 15 17  4  0
 15 21  4  0
 16 19  4  0
 16 23  4  0
 17 22  4  0
 18 26  4  0
 19 24  4  0
 20 24  4  0
 22 27  4  0
 28 29  4  0
M  END
$$$$

 Created by Python create_sdf_string function

 29 34  0  0  0  0  0  0  0  0999 V2000
   10.7184   -3.3359   17.6410 C   0  0  0  0  0  0  0  0  0  0  0  0
    9.9435   -3.4789   24.6608 N   0  0  0  0  0  0  0  0  0  0  0  0
   10.0083   -4.4757   17.4004 C   0  0  0  0  0  0  0  0  0  0  0  0
    6.9041   -7.9451   16.4115 C   0  0  0  0  0  0  0  0  0  0  0  0
    8.9937   -6.3606   17.9643 N   0  0  0  0  0  0  0  0  0  0  0  0
   10.6634   -3.9151   22.4096 C   0  0  0  0  0  0  0  0  0  0  0  0
   11.0624   -3.0057   18.8908 C   0  0  0  0  0  0  0  0  0  0  0  0
    5.6176   -7.8971   16.1711 O   0  0  0  0  0  0  0  0  0  0  0  0
    9.7232   -5.3117   18.4426 C   0  0  0  0  0  0  0  0  0  0  0  0
    9.4585   -5.0208   16.2954 N   0  0  0  0  0  0  0  0  0  0  0  0
    5.0276   -8.9316   16.8105 C   0  0  0  0  0  0  0  0  0  0  0  0
    8.7739   -6.1530   16.6788 C   0  0  0  0  0  0  0  0  0  0  0  0
   10.9442   -3.4170   21.2056 O   0  0  0  0  0  0  0  0  0  0  0  0
    1.4710   -8.6229   16.2899 C   0  0  0  0  0  0  0  0  0  0  0  0
    9.2804   -1.2827   25.3592 C   0  0  0  0  0  0  0  0  0  0  0  0
    1.8873  -10.3945   17.7486 N   0  0  0  0  0  0  0  0  0  0  0  0
    9.6171   -0.7073   24.1094 C   0  0  0  0  0  0  0  0  0  0  0  0
    7.0777   -9.0148   17.1387 C   0  0  0  0  0  0  0  0  0  0  0  0
    3.1626  -10.1736   17.6567 C   0  0  0  0  0  0  0  0  0  0  0  0
    2.7815   -8.3703   16.2067 C   0  0  0  0  0  0  0  0  0  0  0  0
    9.4602   -2.6572   25.6565 C   0  0  0  0  0  0  0  0  0  0  0  0
   10.1135   -1.5761   23.1284 C   0  0  0  0  0  0  0  0  0  0  0  0
    1.0483   -9.6350   17.0633 C   0  0  0  0  0  0  0  0  0  0  0  0
    3.6559   -9.1690   16.9034 C   0  0  0  0  0  0  0  0  0  0  0  0
    7.8657   -7.0045   15.9339 C   0  0  0  0  0  0  0  0  0  0  0  0
    5.9726   -9.6462   17.3748 N   0  0  0  0  0  0  0  0  0  0  0  0
   10.2390   -2.9412   23.4410 C   0  0  0  0  0  0  0  0  0  0  0  0
   10.7272   -3.8318   19.9538 C   0  0  0  0  0  0  0  0  0  0  0  0
   10.1189   -5.0199   19.6927 C   0  0  0  0  0  0  0  0  0  0  0  0
  1  3  4  0
  1  7  4  0
  2 21  4  0
  2 24  1  0
  2 27  4  0
  3  9  4  0
  3 10  4  0
  4  8  4  0
  4 18  4  0
  4 25  1  0
  5  9  4  0
  5 12  4  0
  6 13  1  0
  6 27  1  0
  7 28  4  0
  8 11  4  0
  9 29  4  0
 10 12  4  0
 11 24  1  0
 11 26  4  0
 12 25  1  0
 13 28  1  0
 14 20  4  0
 14 23  4  0
 15 17  4  0
 15 21  4  0
 16 19  4  0
 16 23  4  0
 17 22  4  0
 18 26  4  0
 19 24  4  0
 20 24  4  0
 22 27  4  0
 28 29  4  0
M  END
$$$$

 Created by Python create_sdf_string function

 29 33  0  0  0  0  0  0  0  0999 V2000
   10.7215   -3.3326   17.6437 C   0  0  0  0  0  0  0  0  0  0  0  0
    9.9489   -3.4675   24.6487 N   0  0  0  0  0  0  0  0  0  0  0  0
   10.0172   -4.4740   17.4101 C   0  0  0  0  0  0  0  0  0  0  0  0
    6.9051   -7.9575   16.4222 C   0  0  0  0  0  0  0  0  0  0  0  0
    8.9969   -6.3552   17.9668 N   0  0  0  0  0  0  0  0  0  0  0  0
   10.6702   -3.9051   22.4070 C   0  0  0  0  0  0  0  0  0  0  0  0
   11.0625   -3.0028   18.8894 C   0  0  0  0  0  0  0  0  0  0  0  0
    5.6180   -7.9194   16.1754 O   0  0  0  0  0  0  0  0  0  0  0  0
    9.7259   -5.3080   18.4485 C   0  0  0  0  0  0  0  0  0  0  0  0
    9.4578   -5.0200   16.3036 N   0  0  0  0  0  0  0  0  0  0  0  0
    5.0287   -8.9365   16.8223 C   0  0  0  0  0  0  0  0  0  0  0  0
    8.7742   -6.1498   16.6764 C   0  0  0  0  0  0  0  0  0  0  0  0
   10.9418   -3.4032   21.2053 O   0  0  0  0  0  0  0  0  0  0  0  0
    1.4797   -8.6258   16.2950 C   0  0  0  0  0  0  0  0  0  0  0  0
    9.2861   -1.2743   25.3585 C   0  0  0  0  0  0  0  0  0  0  0  0
    1.8892  -10.3985   17.7511 N   0  0  0  0  0  0  0  0  0  0  0  0
    9.6210   -0.6952   24.0976 C   0  0  0  0  0  0  0  0  0  0  0  0
    7.0792   -9.0217   17.1429 C   0  0  0  0  0  0  0  0  0  0  0  0
    3.1713  -10.1816   17.6634 C   0  0  0  0  0  0  0  0  0  0  0  0
    2.7878   -8.3822   16.2137 C   0  0  0  0  0  0  0  0  0  0  0  0
    9.4601   -2.6590   25.6528 C   0  0  0  0  0  0  0  0  0  0  0  0
   10.1182   -1.5672   23.1165 C   0  0  0  0  0  0  0  0  0  0  0  0
    1.0552   -9.6360   17.0650 C   0  0  0  0  0  0  0  0  0  0  0  0
    3.6519   -9.1783   16.9039 C   0  0  0  0  0  0  0  0  0  0  0  0
    7.8675   -7.0096   15.9415 C   0  0  0  0  0  0  0  0  0  0  0  0
    5.9733   -9.6553   17.3832 N   0  0  0  0  0  0  0  0  0  0  0  0
   10.2411   -2.9363   23.4301 C   0  0  0  0  0  0  0  0  0  0  0  0
   10.7288   -3.8197   19.9525 C   0  0  0  0  0  0  0  0  0  0  0  0
   10.1189   -5.0054   19.6987 C   0  0  0  0  0  0  0  0  0  0  0  0
  1  3  4  0
  1  7  4  0
  2 21  4  0
  2 27  4  0
  3  9  4  0
  3 10  4  0
  4  8  4  0
  4 18  4  0
  4 25  1  0
  5  9  4  0
  5 12  4  0
  6 13  1  0
  6 27  1  0
  7 28  4  0
  8 11  4  0
  9 29  4  0
 10 12  4  0
 11 24  1  0
 11 26  4  0
 12 25  1  0
 13 28  1  0
 14 20  4  0
 14 23  4  0
 15 17  4  0
 15 21  4  0
 16 19  4  0
 16 23  4  0
 17 22  4  0
 18 26  4  0
 19 24  4  0
 20 24  4  0
 22 27  4  0
 28 29  4  0
M  END
$$$$

 Created by Python create_sdf_string function

 29 33  0  0  0  0  0  0  0  0999 V2000
   10.7215   -3.3326   17.6437 C   0  0  0  0  0  0  0  0  0  0  0  0
    9.9489   -3.4675   24.6487 N   0  0  0  0  0  0  0  0  0  0  0  0
   10.0172   -4.4740   17.4101 C   0  0  0  0  0  0  0  0  0  0  0  0
    6.9051   -7.9575   16.4222 C   0  0  0  0  0  0  0  0  0  0  0  0
    8.9969   -6.3552   17.9668 N   0  0  0  0  0  0  0  0  0  0  0  0
   10.6702   -3.9051   22.4070 C   0  0  0  0  0  0  0  0  0  0  0  0
   11.0625   -3.0028   18.8894 C   0  0  0  0  0  0  0  0  0  0  0  0
    5.6180   -7.9194   16.1754 O   0  0  0  0  0  0  0  0  0  0  0  0
    9.7259   -5.3080   18.4485 C   0  0  0  0  0  0  0  0  0  0  0  0
    9.4578   -5.0200   16.3036 N   0  0  0  0  0  0  0  0  0  0  0  0
    5.0287   -8.9365   16.8223 C   0  0  0  0  0  0  0  0  0  0  0  0
    8.7742   -6.1498   16.6764 C   0  0  0  0  0  0  0  0  0  0  0  0
   10.9418   -3.4032   21.2053 O   0  0  0  0  0  0  0  0  0  0  0  0
    1.4797   -8.6258   16.2950 C   0  0  0  0  0  0  0  0  0  0  0  0
    9.2861   -1.2743   25.3585 C   0  0  0  0  0  0  0  0  0  0  0  0
    1.8892  -10.3985   17.7511 N   0  0  0  0  0  0  0  0  0  0  0  0
    9.6210   -0.6952   24.0976 C   0  0  0  0  0  0  0  0  0  0  0  0
    7.0792   -9.0217   17.1429 C   0  0  0  0  0  0  0  0  0  0  0  0
    3.1713  -10.1816   17.6634 C   0  0  0  0  0  0  0  0  0  0  0  0
    2.7878   -8.3822   16.2137 C   0  0  0  0  0  0  0  0  0  0  0  0
    9.4601   -2.6590   25.6528 C   0  0  0  0  0  0  0  0  0  0  0  0
   10.1182   -1.5672   23.1165 C   0  0  0  0  0  0  0  0  0  0  0  0
    1.0552   -9.6360   17.0650 C   0  0  0  0  0  0  0  0  0  0  0  0
    3.6519   -9.1783   16.9039 C   0  0  0  0  0  0  0  0  0  0  0  0
    7.8675   -7.0096   15.9415 C   0  0  0  0  0  0  0  0  0  0  0  0
    5.9733   -9.6553   17.3832 N   0  0  0  0  0  0  0  0  0  0  0  0
   10.2411   -2.9363   23.4301 C   0  0  0  0  0  0  0  0  0  0  0  0
   10.7288   -3.8197   19.9525 C   0  0  0  0  0  0  0  0  0  0  0  0
   10.1189   -5.0054   19.6987 C   0  0  0  0  0  0  0  0  0  0  0  0
  1  3  4  0
  1  7  4  0
  2 21  4  0
  2 27  4  0
  3  9  4  0
  3 10  4  0
  4  8  4  0
  4 18  4  0
  4 25  1  0
  5  9  4  0
  5 12  4  0
  6 13  1  0
  6 27  1  0
  7 28  4  0
  8 11  4  0
  9 29  4  0
 10 12  4  0
 11 24  1  0
 11 26  4  0
 12 25  1  0
 13 28  1  0
 14 20  4  0
 14 23  4  0
 15 17  4  0
 15 21  4  0
 16 19  4  0
 16 23  4  0
 17 22  4  0
 18 26  4  0
 19 24  4  0
 20 24  4  0
 22 27  4  0
 28 29  4  0
M  END
$$$$

 Created by Python create_sdf_string function

 29 33  0  0  0  0  0  0  0  0999 V2000
   10.7215   -3.3326   17.6437 C   0  0  0  0  0  0  0  0  0  0  0  0
    9.9489   -3.4675   24.6487 N   0  0  0  0  0  0  0  0  0  0  0  0
   10.0172   -4.4740   17.4101 C   0  0  0  0  0  0  0  0  0  0  0  0
    6.9051   -7.9575   16.4222 C   0  0  0  0  0  0  0  0  0  0  0  0
    8.9969   -6.3552   17.9668 N   0  0  0  0  0  0  0  0  0  0  0  0
   10.6702   -3.9051   22.4070 C   0  0  0  0  0  0  0  0  0  0  0  0
   11.0625   -3.0028   18.8894 C   0  0  0  0  0  0  0  0  0  0  0  0
    5.6180   -7.9194   16.1754 O   0  0  0  0  0  0  0  0  0  0  0  0
    9.7259   -5.3080   18.4485 C   0  0  0  0  0  0  0  0  0  0  0  0
    9.4578   -5.0200   16.3036 N   0  0  0  0  0  0  0  0  0  0  0  0
    5.0287   -8.9365   16.8223 C   0  0  0  0  0  0  0  0  0  0  0  0
    8.7742   -6.1498   16.6764 C   0  0  0  0  0  0  0  0  0  0  0  0
   10.9418   -3.4032   21.2053 O   0  0  0  0  0  0  0  0  0  0  0  0
    1.4797   -8.6258   16.2950 C   0  0  0  0  0  0  0  0  0  0  0  0
    9.2861   -1.2743   25.3585 C   0  0  0  0  0  0  0  0  0  0  0  0
    1.8892  -10.3985   17.7511 N   0  0  0  0  0  0  0  0  0  0  0  0
    9.6210   -0.6952   24.0976 C   0  0  0  0  0  0  0  0  0  0  0  0
    7.0792   -9.0217   17.1429 C   0  0  0  0  0  0  0  0  0  0  0  0
    3.1713  -10.1816   17.6634 C   0  0  0  0  0  0  0  0  0  0  0  0
    2.7878   -8.3822   16.2137 C   0  0  0  0  0  0  0  0  0  0  0  0
    9.4601   -2.6590   25.6528 C   0  0  0  0  0  0  0  0  0  0  0  0
   10.1182   -1.5672   23.1165 C   0  0  0  0  0  0  0  0  0  0  0  0
    1.0552   -9.6360   17.0650 C   0  0  0  0  0  0  0  0  0  0  0  0
    3.6519   -9.1783   16.9039 C   0  0  0  0  0  0  0  0  0  0  0  0
    7.8675   -7.0096   15.9415 C   0  0  0  0  0  0  0  0  0  0  0  0
    5.9733   -9.6553   17.3832 N   0  0  0  0  0  0  0  0  0  0  0  0
   10.2411   -2.9363   23.4301 C   0  0  0  0  0  0  0  0  0  0  0  0
   10.7288   -3.8197   19.9525 C   0  0  0  0  0  0  0  0  0  0  0  0
   10.1189   -5.0054   19.6987 C   0  0  0  0  0  0  0  0  0  0  0  0
  1  3  4  0
  1  7  4  0
  2 21  4  0
  2 27  4  0
  3  9  4  0
  3 10  4  0
  4  8  4  0
  4 18  4  0
  4 25  1  0
  5  9  4  0
  5 12  4  0
  6 13  1  0
  6 27  1  0
  7 28  4  0
  8 11  4  0
  9 29  4  0
 10 12  4  0
 11 24  1  0
 11 26  4  0
 12 25  1  0
 13 28  1  0
 14 20  4  0
 14 23  4  0
 15 17  4  0
 15 21  4  0
 16 19  4  0
 16 23  4  0
 17 22  4  0
 18 26  4  0
 19 24  4  0
 20 24  4  0
 22 27  4  0
 28 29  4  0
M  END
$$$$

 Created by Python create_sdf_string function

 29 33  0  0  0  0  0  0  0  0999 V2000
   10.7215   -3.3326   17.6437 C   0  0  0  0  0  0  0  0  0  0  0  0
    9.9489   -3.4675   24.6487 N   0  0  0  0  0  0  0  0  0  0  0  0
   10.0172   -4.4740   17.4101 C   0  0  0  0  0  0  0  0  0  0  0  0
    6.9051   -7.9575   16.4222 C   0  0  0  0  0  0  0  0  0  0  0  0
    8.9969   -6.3552   17.9668 N   0  0  0  0  0  0  0  0  0  0  0  0
   10.6702   -3.9051   22.4070 C   0  0  0  0  0  0  0  0  0  0  0  0
   11.0625   -3.0028   18.8894 C   0  0  0  0  0  0  0  0  0  0  0  0
    5.6180   -7.9194   16.1754 O   0  0  0  0  0  0  0  0  0  0  0  0
    9.7259   -5.3080   18.4485 C   0  0  0  0  0  0  0  0  0  0  0  0
    9.4578   -5.0200   16.3036 N   0  0  0  0  0  0  0  0  0  0  0  0
    5.0287   -8.9365   16.8223 C   0  0  0  0  0  0  0  0  0  0  0  0
    8.7742   -6.1498   16.6764 C   0  0  0  0  0  0  0  0  0  0  0  0
   10.9418   -3.4032   21.2053 O   0  0  0  0  0  0  0  0  0  0  0  0
    1.4797   -8.6258   16.2950 C   0  0  0  0  0  0  0  0  0  0  0  0
    9.2861   -1.2743   25.3585 C   0  0  0  0  0  0  0  0  0  0  0  0
    1.8892  -10.3985   17.7511 N   0  0  0  0  0  0  0  0  0  0  0  0
    9.6210   -0.6952   24.0976 C   0  0  0  0  0  0  0  0  0  0  0  0
    7.0792   -9.0217   17.1429 C   0  0  0  0  0  0  0  0  0  0  0  0
    3.1713  -10.1816   17.6634 C   0  0  0  0  0  0  0  0  0  0  0  0
    2.7878   -8.3822   16.2137 C   0  0  0  0  0  0  0  0  0  0  0  0
    9.4601   -2.6590   25.6528 C   0  0  0  0  0  0  0  0  0  0  0  0
   10.1182   -1.5672   23.1165 C   0  0  0  0  0  0  0  0  0  0  0  0
    1.0552   -9.6360   17.0650 C   0  0  0  0  0  0  0  0  0  0  0  0
    3.6519   -9.1783   16.9039 C   0  0  0  0  0  0  0  0  0  0  0  0
    7.8675   -7.0096   15.9415 C   0  0  0  0  0  0  0  0  0  0  0  0
    5.9733   -9.6553   17.3832 N   0  0  0  0  0  0  0  0  0  0  0  0
   10.2411   -2.9363   23.4301 C   0  0  0  0  0  0  0  0  0  0  0  0
   10.7288   -3.8197   19.9525 C   0  0  0  0  0  0  0  0  0  0  0  0
   10.1189   -5.0054   19.6987 C   0  0  0  0  0  0  0  0  0  0  0  0
  1  3  4  0
  1  7  4  0
  2 21  4  0
  2 27  4  0
  3  9  4  0
  3 10  4  0
  4  8  4  0
  4 18  4  0
  4 25  1  0
  5  9  4  0
  5 12  4  0
  6 13  1  0
  6 27  1  0
  7 28  4  0
  8 11  4  0
  9 29  4  0
 10 12  4  0
 11 24  1  0
 11 26  4  0
 12 25  1  0
 13 28  1  0
 14 20  4  0
 14 23  4  0
 15 17  4  0
 15 21  4  0
 16 19  4  0
 16 23  4  0
 17 22  4  0
 18 26  4  0
 19 24  4  0
 20 24  4  0
 22 27  4  0
 28 29  4  0
M  END
$$$$

 Created by Python create_sdf_string function

 29 33  0  0  0  0  0  0  0  0999 V2000
   10.7215   -3.3326   17.6437 C   0  0  0  0  0  0  0  0  0  0  0  0
    9.9489   -3.4675   24.6487 N   0  0  0  0  0  0  0  0  0  0  0  0
   10.0172   -4.4740   17.4101 C   0  0  0  0  0  0  0  0  0  0  0  0
    6.9051   -7.9575   16.4222 C   0  0  0  0  0  0  0  0  0  0  0  0
    8.9969   -6.3552   17.9668 N   0  0  0  0  0  0  0  0  0  0  0  0
   10.6702   -3.9051   22.4070 C   0  0  0  0  0  0  0  0  0  0  0  0
   11.0625   -3.0028   18.8894 C   0  0  0  0  0  0  0  0  0  0  0  0
    5.6180   -7.9194   16.1754 O   0  0  0  0  0  0  0  0  0  0  0  0
    9.7259   -5.3080   18.4485 C   0  0  0  0  0  0  0  0  0  0  0  0
    9.4578   -5.0200   16.3036 N   0  0  0  0  0  0  0  0  0  0  0  0
    5.0287   -8.9365   16.8223 C   0  0  0  0  0  0  0  0  0  0  0  0
    8.7742   -6.1498   16.6764 C   0  0  0  0  0  0  0  0  0  0  0  0
   10.9418   -3.4032   21.2053 O   0  0  0  0  0  0  0  0  0  0  0  0
    1.4797   -8.6258   16.2950 C   0  0  0  0  0  0  0  0  0  0  0  0
    9.2861   -1.2743   25.3585 C   0  0  0  0  0  0  0  0  0  0  0  0
    1.8892  -10.3985   17.7511 N   0  0  0  0  0  0  0  0  0  0  0  0
    9.6210   -0.6952   24.0976 C   0  0  0  0  0  0  0  0  0  0  0  0
    7.0792   -9.0217   17.1429 C   0  0  0  0  0  0  0  0  0  0  0  0
    3.1713  -10.1816   17.6634 C   0  0  0  0  0  0  0  0  0  0  0  0
    2.7878   -8.3822   16.2137 C   0  0  0  0  0  0  0  0  0  0  0  0
    9.4601   -2.6590   25.6528 C   0  0  0  0  0  0  0  0  0  0  0  0
   10.1182   -1.5672   23.1165 C   0  0  0  0  0  0  0  0  0  0  0  0
    1.0552   -9.6360   17.0650 C   0  0  0  0  0  0  0  0  0  0  0  0
    3.6519   -9.1783   16.9039 C   0  0  0  0  0  0  0  0  0  0  0  0
    7.8675   -7.0096   15.9415 C   0  0  0  0  0  0  0  0  0  0  0  0
    5.9733   -9.6553   17.3832 N   0  0  0  0  0  0  0  0  0  0  0  0
   10.2411   -2.9363   23.4301 C   0  0  0  0  0  0  0  0  0  0  0  0
   10.7288   -3.8197   19.9525 C   0  0  0  0  0  0  0  0  0  0  0  0
   10.1189   -5.0054   19.6987 C   0  0  0  0  0  0  0  0  0  0  0  0
  1  3  4  0
  1  7  4  0
  2 21  4  0
  2 27  4  0
  3  9  4  0
  3 10  4  0
  4  8  4  0
  4 18  4  0
  4 25  1  0
  5  9  4  0
  5 12  4  0
  6 13  1  0
  6 27  1  0
  7 28  4  0
  8 11  4  0
  9 29  4  0
 10 12  4  0
 11 24  1  0
 11 26  4  0
 12 25  1  0
 13 28  1  0
 14 20  4  0
 14 23  4  0
 15 17  4  0
 15 21  4  0
 16 19  4  0
 16 23  4  0
 17 22  4  0
 18 26  4  0
 19 24  4  0
 20 24  4  0
 22 27  4  0
 28 29  4  0
M  END
$$$$

 Created by Python create_sdf_string function

 29 33  0  0  0  0  0  0  0  0999 V2000
   10.7215   -3.3326   17.6437 C   0  0  0  0  0  0  0  0  0  0  0  0
    9.9489   -3.4675   24.6487 N   0  0  0  0  0  0  0  0  0  0  0  0
   10.0172   -4.4740   17.4101 C   0  0  0  0  0  0  0  0  0  0  0  0
    6.9051   -7.9575   16.4222 C   0  0  0  0  0  0  0  0  0  0  0  0
    8.9969   -6.3552   17.9668 N   0  0  0  0  0  0  0  0  0  0  0  0
   10.6702   -3.9051   22.4070 C   0  0  0  0  0  0  0  0  0  0  0  0
   11.0625   -3.0028   18.8894 C   0  0  0  0  0  0  0  0  0  0  0  0
    5.6180   -7.9194   16.1754 O   0  0  0  0  0  0  0  0  0  0  0  0
    9.7259   -5.3080   18.4485 C   0  0  0  0  0  0  0  0  0  0  0  0
    9.4578   -5.0200   16.3036 N   0  0  0  0  0  0  0  0  0  0  0  0
    5.0287   -8.9365   16.8223 C   0  0  0  0  0  0  0  0  0  0  0  0
    8.7742   -6.1498   16.6764 C   0  0  0  0  0  0  0  0  0  0  0  0
   10.9418   -3.4032   21.2053 O   0  0  0  0  0  0  0  0  0  0  0  0
    1.4797   -8.6258   16.2950 C   0  0  0  0  0  0  0  0  0  0  0  0
    9.2861   -1.2743   25.3585 C   0  0  0  0  0  0  0  0  0  0  0  0
    1.8892  -10.3985   17.7511 N   0  0  0  0  0  0  0  0  0  0  0  0
    9.6210   -0.6952   24.0976 C   0  0  0  0  0  0  0  0  0  0  0  0
    7.0792   -9.0217   17.1429 C   0  0  0  0  0  0  0  0  0  0  0  0
    3.1713  -10.1816   17.6634 C   0  0  0  0  0  0  0  0  0  0  0  0
    2.7878   -8.3822   16.2137 C   0  0  0  0  0  0  0  0  0  0  0  0
    9.4601   -2.6590   25.6528 C   0  0  0  0  0  0  0  0  0  0  0  0
   10.1182   -1.5672   23.1165 C   0  0  0  0  0  0  0  0  0  0  0  0
    1.0552   -9.6360   17.0650 C   0  0  0  0  0  0  0  0  0  0  0  0
    3.6519   -9.1783   16.9039 C   0  0  0  0  0  0  0  0  0  0  0  0
    7.8675   -7.0096   15.9415 C   0  0  0  0  0  0  0  0  0  0  0  0
    5.9733   -9.6553   17.3832 N   0  0  0  0  0  0  0  0  0  0  0  0
   10.2411   -2.9363   23.4301 C   0  0  0  0  0  0  0  0  0  0  0  0
   10.7288   -3.8197   19.9525 C   0  0  0  0  0  0  0  0  0  0  0  0
   10.1189   -5.0054   19.6987 C   0  0  0  0  0  0  0  0  0  0  0  0
  1  3  4  0
  1  7  4  0
  2 21  4  0
  2 27  4  0
  3  9  4  0
  3 10  4  0
  4  8  4  0
  4 18  4  0
  4 25  1  0
  5  9  4  0
  5 12  4  0
  6 13  1  0
  6 27  1  0
  7 28  4  0
  8 11  4  0
  9 29  4  0
 10 12  4  0
 11 24  1  0
 11 26  4  0
 12 25  1  0
 13 28  1  0
 14 20  4  0
 14 23  4  0
 15 17  4  0
 15 21  4  0
 16 19  4  0
 16 23  4  0
 17 22  4  0
 18 26  4  0
 19 24  4  0
 20 24  4  0
 22 27  4  0
 28 29  4  0
M  END
$$$$

 Created by Python create_sdf_string function

 29 33  0  0  0  0  0  0  0  0999 V2000
   10.7215   -3.3326   17.6437 C   0  0  0  0  0  0  0  0  0  0  0  0
    9.9489   -3.4675   24.6487 N   0  0  0  0  0  0  0  0  0  0  0  0
   10.0172   -4.4740   17.4101 C   0  0  0  0  0  0  0  0  0  0  0  0
    6.9051   -7.9575   16.4222 C   0  0  0  0  0  0  0  0  0  0  0  0
    8.9969   -6.3552   17.9668 N   0  0  0  0  0  0  0  0  0  0  0  0
   10.6702   -3.9051   22.4070 C   0  0  0  0  0  0  0  0  0  0  0  0
   11.0625   -3.0028   18.8894 C   0  0  0  0  0  0  0  0  0  0  0  0
    5.6180   -7.9194   16.1754 O   0  0  0  0  0  0  0  0  0  0  0  0
    9.7259   -5.3080   18.4485 C   0  0  0  0  0  0  0  0  0  0  0  0
    9.4578   -5.0200   16.3036 N   0  0  0  0  0  0  0  0  0  0  0  0
    5.0287   -8.9365   16.8223 C   0  0  0  0  0  0  0  0  0  0  0  0
    8.7742   -6.1498   16.6764 C   0  0  0  0  0  0  0  0  0  0  0  0
   10.9418   -3.4032   21.2053 O   0  0  0  0  0  0  0  0  0  0  0  0
    1.4797   -8.6258   16.2950 C   0  0  0  0  0  0  0  0  0  0  0  0
    9.2861   -1.2743   25.3585 C   0  0  0  0  0  0  0  0  0  0  0  0
    1.8892  -10.3985   17.7511 N   0  0  0  0  0  0  0  0  0  0  0  0
    9.6210   -0.6952   24.0976 C   0  0  0  0  0  0  0  0  0  0  0  0
    7.0792   -9.0217   17.1429 C   0  0  0  0  0  0  0  0  0  0  0  0
    3.1713  -10.1816   17.6634 C   0  0  0  0  0  0  0  0  0  0  0  0
    2.7878   -8.3822   16.2137 C   0  0  0  0  0  0  0  0  0  0  0  0
    9.4601   -2.6590   25.6528 C   0  0  0  0  0  0  0  0  0  0  0  0
   10.1182   -1.5672   23.1165 C   0  0  0  0  0  0  0  0  0  0  0  0
    1.0552   -9.6360   17.0650 C   0  0  0  0  0  0  0  0  0  0  0  0
    3.6519   -9.1783   16.9039 C   0  0  0  0  0  0  0  0  0  0  0  0
    7.8675   -7.0096   15.9415 C   0  0  0  0  0  0  0  0  0  0  0  0
    5.9733   -9.6553   17.3832 N   0  0  0  0  0  0  0  0  0  0  0  0
   10.2411   -2.9363   23.4301 C   0  0  0  0  0  0  0  0  0  0  0  0
   10.7288   -3.8197   19.9525 C   0  0  0  0  0  0  0  0  0  0  0  0
   10.1189   -5.0054   19.6987 C   0  0  0  0  0  0  0  0  0  0  0  0
  1  3  4  0
  1  7  4  0
  2 21  4  0
  2 27  4  0
  3  9  4  0
  3 10  4  0
  4  8  4  0
  4 18  4  0
  4 25  1  0
  5  9  4  0
  5 12  4  0
  6 13  1  0
  6 27  1  0
  7 28  4  0
  8 11  4  0
  9 29  4  0
 10 12  4  0
 11 24  1  0
 11 26  4  0
 12 25  1  0
 13 28  1  0
 14 20  4  0
 14 23  4  0
 15 17  4  0
 15 21  4  0
 16 19  4  0
 16 23  4  0
 17 22  4  0
 18 26  4  0
 19 24  4  0
 20 24  4  0
 22 27  4  0
 28 29  4  0
M  END
$$$$

 Created by Python create_sdf_string function

 29 33  0  0  0  0  0  0  0  0999 V2000
   10.7215   -3.3326   17.6437 C   0  0  0  0  0  0  0  0  0  0  0  0
    9.9489   -3.4675   24.6487 N   0  0  0  0  0  0  0  0  0  0  0  0
   10.0172   -4.4740   17.4101 C   0  0  0  0  0  0  0  0  0  0  0  0
    6.9051   -7.9575   16.4222 C   0  0  0  0  0  0  0  0  0  0  0  0
    8.9969   -6.3552   17.9668 N   0  0  0  0  0  0  0  0  0  0  0  0
   10.6702   -3.9051   22.4070 C   0  0  0  0  0  0  0  0  0  0  0  0
   11.0625   -3.0028   18.8894 C   0  0  0  0  0  0  0  0  0  0  0  0
    5.6180   -7.9194   16.1754 O   0  0  0  0  0  0  0  0  0  0  0  0
    9.7259   -5.3080   18.4485 C   0  0  0  0  0  0  0  0  0  0  0  0
    9.4578   -5.0200   16.3036 N   0  0  0  0  0  0  0  0  0  0  0  0
    5.0287   -8.9365   16.8223 C   0  0  0  0  0  0  0  0  0  0  0  0
    8.7742   -6.1498   16.6764 C   0  0  0  0  0  0  0  0  0  0  0  0
   10.9418   -3.4032   21.2053 O   0  0  0  0  0  0  0  0  0  0  0  0
    1.4797   -8.6258   16.2950 C   0  0  0  0  0  0  0  0  0  0  0  0
    9.2861   -1.2743   25.3585 C   0  0  0  0  0  0  0  0  0  0  0  0
    1.8892  -10.3985   17.7511 N   0  0  0  0  0  0  0  0  0  0  0  0
    9.6210   -0.6952   24.0976 C   0  0  0  0  0  0  0  0  0  0  0  0
    7.0792   -9.0217   17.1429 C   0  0  0  0  0  0  0  0  0  0  0  0
    3.1713  -10.1816   17.6634 C   0  0  0  0  0  0  0  0  0  0  0  0
    2.7878   -8.3822   16.2137 C   0  0  0  0  0  0  0  0  0  0  0  0
    9.4601   -2.6590   25.6528 C   0  0  0  0  0  0  0  0  0  0  0  0
   10.1182   -1.5672   23.1165 C   0  0  0  0  0  0  0  0  0  0  0  0
    1.0552   -9.6360   17.0650 C   0  0  0  0  0  0  0  0  0  0  0  0
    3.6519   -9.1783   16.9039 C   0  0  0  0  0  0  0  0  0  0  0  0
    7.8675   -7.0096   15.9415 C   0  0  0  0  0  0  0  0  0  0  0  0
    5.9733   -9.6553   17.3832 N   0  0  0  0  0  0  0  0  0  0  0  0
   10.2411   -2.9363   23.4301 C   0  0  0  0  0  0  0  0  0  0  0  0
   10.7288   -3.8197   19.9525 C   0  0  0  0  0  0  0  0  0  0  0  0
   10.1189   -5.0054   19.6987 C   0  0  0  0  0  0  0  0  0  0  0  0
  1  3  4  0
  1  7  4  0
  2 21  4  0
  2 27  4  0
  3  9  4  0
  3 10  4  0
  4  8  4  0
  4 18  4  0
  4 25  1  0
  5  9  4  0
  5 12  4  0
  6 13  1  0
  6 27  1  0
  7 28  4  0
  8 11  4  0
  9 29  4  0
 10 12  4  0
 11 24  1  0
 11 26  4  0
 12 25  1  0
 13 28  1  0
 14 20  4  0
 14 23  4  0
 15 17  4  0
 15 21  4  0
 16 19  4  0
 16 23  4  0
 17 22  4  0
 18 26  4  0
 19 24  4  0
 20 24  4  0
 22 27  4  0
 28 29  4  0
M  END
$$$$

 Created by Python create_sdf_string function

 29 33  0  0  0  0  0  0  0  0999 V2000
   10.7215   -3.3326   17.6437 C   0  0  0  0  0  0  0  0  0  0  0  0
    9.9489   -3.4675   24.6487 N   0  0  0  0  0  0  0  0  0  0  0  0
   10.0172   -4.4740   17.4101 C   0  0  0  0  0  0  0  0  0  0  0  0
    6.9051   -7.9575   16.4222 C   0  0  0  0  0  0  0  0  0  0  0  0
    8.9969   -6.3552   17.9668 N   0  0  0  0  0  0  0  0  0  0  0  0
   10.6702   -3.9051   22.4070 C   0  0  0  0  0  0  0  0  0  0  0  0
   11.0625   -3.0028   18.8894 C   0  0  0  0  0  0  0  0  0  0  0  0
    5.6180   -7.9194   16.1754 O   0  0  0  0  0  0  0  0  0  0  0  0
    9.7259   -5.3080   18.4485 C   0  0  0  0  0  0  0  0  0  0  0  0
    9.4578   -5.0200   16.3036 N   0  0  0  0  0  0  0  0  0  0  0  0
    5.0287   -8.9365   16.8223 C   0  0  0  0  0  0  0  0  0  0  0  0
    8.7742   -6.1498   16.6764 C   0  0  0  0  0  0  0  0  0  0  0  0
   10.9418   -3.4032   21.2053 O   0  0  0  0  0  0  0  0  0  0  0  0
    1.4797   -8.6258   16.2950 C   0  0  0  0  0  0  0  0  0  0  0  0
    9.2861   -1.2743   25.3585 C   0  0  0  0  0  0  0  0  0  0  0  0
    1.8892  -10.3985   17.7511 N   0  0  0  0  0  0  0  0  0  0  0  0
    9.6210   -0.6952   24.0976 C   0  0  0  0  0  0  0  0  0  0  0  0
    7.0792   -9.0217   17.1429 C   0  0  0  0  0  0  0  0  0  0  0  0
    3.1713  -10.1816   17.6634 C   0  0  0  0  0  0  0  0  0  0  0  0
    2.7878   -8.3822   16.2137 C   0  0  0  0  0  0  0  0  0  0  0  0
    9.4601   -2.6590   25.6528 C   0  0  0  0  0  0  0  0  0  0  0  0
   10.1182   -1.5672   23.1165 C   0  0  0  0  0  0  0  0  0  0  0  0
    1.0552   -9.6360   17.0650 C   0  0  0  0  0  0  0  0  0  0  0  0
    3.6519   -9.1783   16.9039 C   0  0  0  0  0  0  0  0  0  0  0  0
    7.8675   -7.0096   15.9415 C   0  0  0  0  0  0  0  0  0  0  0  0
    5.9733   -9.6553   17.3832 N   0  0  0  0  0  0  0  0  0  0  0  0
   10.2411   -2.9363   23.4301 C   0  0  0  0  0  0  0  0  0  0  0  0
   10.7288   -3.8197   19.9525 C   0  0  0  0  0  0  0  0  0  0  0  0
   10.1189   -5.0054   19.6987 C   0  0  0  0  0  0  0  0  0  0  0  0
  1  3  4  0
  1  7  4  0
  2 21  4  0
  2 27  4  0
  3  9  4  0
  3 10  4  0
  4  8  4  0
  4 18  4  0
  4 25  1  0
  5  9  4  0
  5 12  4  0
  6 13  1  0
  6 27  1  0
  7 28  4  0
  8 11  4  0
  9 29  4  0
 10 12  4  0
 11 24  1  0
 11 26  4  0
 12 25  1  0
 13 28  1  0
 14 20  4  0
 14 23  4  0
 15 17  4  0
 15 21  4  0
 16 19  4  0
 16 23  4  0
 17 22  4  0
 18 26  4  0
 19 24  4  0
 20 24  4  0
 22 27  4  0
 28 29  4  0
M  END
$$$$

 Created by Python create_sdf_string function

 29 33  0  0  0  0  0  0  0  0999 V2000
   10.7215   -3.3326   17.6437 C   0  0  0  0  0  0  0  0  0  0  0  0
    9.9489   -3.4675   24.6487 N   0  0  0  0  0  0  0  0  0  0  0  0
   10.0172   -4.4740   17.4101 C   0  0  0  0  0  0  0  0  0  0  0  0
    6.9051   -7.9575   16.4222 C   0  0  0  0  0  0  0  0  0  0  0  0
    8.9969   -6.3552   17.9668 N   0  0  0  0  0  0  0  0  0  0  0  0
   10.6702   -3.9051   22.4070 C   0  0  0  0  0  0  0  0  0  0  0  0
   11.0625   -3.0028   18.8894 C   0  0  0  0  0  0  0  0  0  0  0  0
    5.6180   -7.9194   16.1754 O   0  0  0  0  0  0  0  0  0  0  0  0
    9.7259   -5.3080   18.4485 C   0  0  0  0  0  0  0  0  0  0  0  0
    9.4578   -5.0200   16.3036 N   0  0  0  0  0  0  0  0  0  0  0  0
    5.0287   -8.9365   16.8223 C   0  0  0  0  0  0  0  0  0  0  0  0
    8.7742   -6.1498   16.6764 C   0  0  0  0  0  0  0  0  0  0  0  0
   10.9418   -3.4032   21.2053 O   0  0  0  0  0  0  0  0  0  0  0  0
    1.4797   -8.6258   16.2950 C   0  0  0  0  0  0  0  0  0  0  0  0
    9.2861   -1.2743   25.3585 C   0  0  0  0  0  0  0  0  0  0  0  0
    1.8892  -10.3985   17.7511 N   0  0  0  0  0  0  0  0  0  0  0  0
    9.6210   -0.6952   24.0976 C   0  0  0  0  0  0  0  0  0  0  0  0
    7.0792   -9.0217   17.1429 C   0  0  0  0  0  0  0  0  0  0  0  0
    3.1713  -10.1816   17.6634 C   0  0  0  0  0  0  0  0  0  0  0  0
    2.7878   -8.3822   16.2137 C   0  0  0  0  0  0  0  0  0  0  0  0
    9.4601   -2.6590   25.6528 C   0  0  0  0  0  0  0  0  0  0  0  0
   10.1182   -1.5672   23.1165 C   0  0  0  0  0  0  0  0  0  0  0  0
    1.0552   -9.6360   17.0650 C   0  0  0  0  0  0  0  0  0  0  0  0
    3.6519   -9.1783   16.9039 C   0  0  0  0  0  0  0  0  0  0  0  0
    7.8675   -7.0096   15.9415 C   0  0  0  0  0  0  0  0  0  0  0  0
    5.9733   -9.6553   17.3832 N   0  0  0  0  0  0  0  0  0  0  0  0
   10.2411   -2.9363   23.4301 C   0  0  0  0  0  0  0  0  0  0  0  0
   10.7288   -3.8197   19.9525 C   0  0  0  0  0  0  0  0  0  0  0  0
   10.1189   -5.0054   19.6987 C   0  0  0  0  0  0  0  0  0  0  0  0
  1  3  4  0
  1  7  4  0
  2 21  4  0
  2 27  4  0
  3  9  4  0
  3 10  4  0
  4  8  4  0
  4 18  4  0
  4 25  1  0
  5  9  4  0
  5 12  4  0
  6 13  1  0
  6 27  1  0
  7 28  4  0
  8 11  4  0
  9 29  4  0
 10 12  4  0
 11 24  1  0
 11 26  4  0
 12 25  1  0
 13 28  1  0
 14 20  4  0
 14 23  4  0
 15 17  4  0
 15 21  4  0
 16 19  4  0
 16 23  4  0
 17 22  4  0
 18 26  4  0
 19 24  4  0
 20 24  4  0
 22 27  4  0
 28 29  4  0
M  END
$$$$

 Created by Python create_sdf_string function

 29 33  0  0  0  0  0  0  0  0999 V2000
   10.7215   -3.3326   17.6437 C   0  0  0  0  0  0  0  0  0  0  0  0
    9.9489   -3.4675   24.6487 N   0  0  0  0  0  0  0  0  0  0  0  0
   10.0172   -4.4740   17.4101 C   0  0  0  0  0  0  0  0  0  0  0  0
    6.9051   -7.9575   16.4222 C   0  0  0  0  0  0  0  0  0  0  0  0
    8.9969   -6.3552   17.9668 N   0  0  0  0  0  0  0  0  0  0  0  0
   10.6702   -3.9051   22.4070 C   0  0  0  0  0  0  0  0  0  0  0  0
   11.0625   -3.0028   18.8894 C   0  0  0  0  0  0  0  0  0  0  0  0
    5.6180   -7.9194   16.1754 O   0  0  0  0  0  0  0  0  0  0  0  0
    9.7259   -5.3080   18.4485 C   0  0  0  0  0  0  0  0  0  0  0  0
    9.4578   -5.0200   16.3036 N   0  0  0  0  0  0  0  0  0  0  0  0
    5.0287   -8.9365   16.8223 C   0  0  0  0  0  0  0  0  0  0  0  0
    8.7742   -6.1498   16.6764 C   0  0  0  0  0  0  0  0  0  0  0  0
   10.9418   -3.4032   21.2053 O   0  0  0  0  0  0  0  0  0  0  0  0
    1.4797   -8.6258   16.2950 C   0  0  0  0  0  0  0  0  0  0  0  0
    9.2861   -1.2743   25.3585 C   0  0  0  0  0  0  0  0  0  0  0  0
    1.8892  -10.3985   17.7511 N   0  0  0  0  0  0  0  0  0  0  0  0
    9.6210   -0.6952   24.0976 C   0  0  0  0  0  0  0  0  0  0  0  0
    7.0792   -9.0217   17.1429 C   0  0  0  0  0  0  0  0  0  0  0  0
    3.1713  -10.1816   17.6634 C   0  0  0  0  0  0  0  0  0  0  0  0
    2.7878   -8.3822   16.2137 C   0  0  0  0  0  0  0  0  0  0  0  0
    9.4601   -2.6590   25.6528 C   0  0  0  0  0  0  0  0  0  0  0  0
   10.1182   -1.5672   23.1165 C   0  0  0  0  0  0  0  0  0  0  0  0
    1.0552   -9.6360   17.0650 C   0  0  0  0  0  0  0  0  0  0  0  0
    3.6519   -9.1783   16.9039 C   0  0  0  0  0  0  0  0  0  0  0  0
    7.8675   -7.0096   15.9415 C   0  0  0  0  0  0  0  0  0  0  0  0
    5.9733   -9.6553   17.3832 N   0  0  0  0  0  0  0  0  0  0  0  0
   10.2411   -2.9363   23.4301 C   0  0  0  0  0  0  0  0  0  0  0  0
   10.7288   -3.8197   19.9525 C   0  0  0  0  0  0  0  0  0  0  0  0
   10.1189   -5.0054   19.6987 C   0  0  0  0  0  0  0  0  0  0  0  0
  1  3  4  0
  1  7  4  0
  2 21  4  0
  2 27  4  0
  3  9  4  0
  3 10  4  0
  4  8  4  0
  4 18  4  0
  4 25  1  0
  5  9  4  0
  5 12  4  0
  6 13  1  0
  6 27  1  0
  7 28  4  0
  8 11  4  0
  9 29  4  0
 10 12  4  0
 11 24  1  0
 11 26  4  0
 12 25  1  0
 13 28  1  0
 14 20  4  0
 14 23  4  0
 15 17  4  0
 15 21  4  0
 16 19  4  0
 16 23  4  0
 17 22  4  0
 18 26  4  0
 19 24  4  0
 20 24  4  0
 22 27  4  0
 28 29  4  0
M  END
$$$$

 Created by Python create_sdf_string function

 29 33  0  0  0  0  0  0  0  0999 V2000
   10.7215   -3.3326   17.6437 C   0  0  0  0  0  0  0  0  0  0  0  0
    9.9489   -3.4675   24.6487 N   0  0  0  0  0  0  0  0  0  0  0  0
   10.0172   -4.4740   17.4101 C   0  0  0  0  0  0  0  0  0  0  0  0
    6.9051   -7.9575   16.4222 C   0  0  0  0  0  0  0  0  0  0  0  0
    8.9969   -6.3552   17.9668 N   0  0  0  0  0  0  0  0  0  0  0  0
   10.6702   -3.9051   22.4070 C   0  0  0  0  0  0  0  0  0  0  0  0
   11.0625   -3.0028   18.8894 C   0  0  0  0  0  0  0  0  0  0  0  0
    5.6180   -7.9194   16.1754 O   0  0  0  0  0  0  0  0  0  0  0  0
    9.7259   -5.3080   18.4485 C   0  0  0  0  0  0  0  0  0  0  0  0
    9.4578   -5.0200   16.3036 N   0  0  0  0  0  0  0  0  0  0  0  0
    5.0287   -8.9365   16.8223 C   0  0  0  0  0  0  0  0  0  0  0  0
    8.7742   -6.1498   16.6764 C   0  0  0  0  0  0  0  0  0  0  0  0
   10.9418   -3.4032   21.2053 O   0  0  0  0  0  0  0  0  0  0  0  0
    1.4797   -8.6258   16.2950 C   0  0  0  0  0  0  0  0  0  0  0  0
    9.2861   -1.2743   25.3585 C   0  0  0  0  0  0  0  0  0  0  0  0
    1.8892  -10.3985   17.7511 N   0  0  0  0  0  0  0  0  0  0  0  0
    9.6210   -0.6952   24.0976 C   0  0  0  0  0  0  0  0  0  0  0  0
    7.0792   -9.0217   17.1429 C   0  0  0  0  0  0  0  0  0  0  0  0
    3.1713  -10.1816   17.6634 C   0  0  0  0  0  0  0  0  0  0  0  0
    2.7878   -8.3822   16.2137 C   0  0  0  0  0  0  0  0  0  0  0  0
    9.4601   -2.6590   25.6528 C   0  0  0  0  0  0  0  0  0  0  0  0
   10.1182   -1.5672   23.1165 C   0  0  0  0  0  0  0  0  0  0  0  0
    1.0552   -9.6360   17.0650 C   0  0  0  0  0  0  0  0  0  0  0  0
    3.6519   -9.1783   16.9039 C   0  0  0  0  0  0  0  0  0  0  0  0
    7.8675   -7.0096   15.9415 C   0  0  0  0  0  0  0  0  0  0  0  0
    5.9733   -9.6553   17.3832 N   0  0  0  0  0  0  0  0  0  0  0  0
   10.2411   -2.9363   23.4301 C   0  0  0  0  0  0  0  0  0  0  0  0
   10.7288   -3.8197   19.9525 C   0  0  0  0  0  0  0  0  0  0  0  0
   10.1189   -5.0054   19.6987 C   0  0  0  0  0  0  0  0  0  0  0  0
  1  3  4  0
  1  7  4  0
  2 21  4  0
  2 27  4  0
  3  9  4  0
  3 10  4  0
  4  8  4  0
  4 18  4  0
  4 25  1  0
  5  9  4  0
  5 12  4  0
  6 13  1  0
  6 27  1  0
  7 28  4  0
  8 11  4  0
  9 29  4  0
 10 12  4  0
 11 24  1  0
 11 26  4  0
 12 25  1  0
 13 28  1  0
 14 20  4  0
 14 23  4  0
 15 17  4  0
 15 21  4  0
 16 19  4  0
 16 23  4  0
 17 22  4  0
 18 26  4  0
 19 24  4  0
 20 24  4  0
 22 27  4  0
 28 29  4  0
M  END
$$$$

 Created by Python create_sdf_string function

 29 33  0  0  0  0  0  0  0  0999 V2000
   10.7215   -3.3326   17.6437 C   0  0  0  0  0  0  0  0  0  0  0  0
    9.9489   -3.4675   24.6487 N   0  0  0  0  0  0  0  0  0  0  0  0
   10.0172   -4.4740   17.4101 C   0  0  0  0  0  0  0  0  0  0  0  0
    6.9051   -7.9575   16.4222 C   0  0  0  0  0  0  0  0  0  0  0  0
    8.9969   -6.3552   17.9668 N   0  0  0  0  0  0  0  0  0  0  0  0
   10.6702   -3.9051   22.4070 C   0  0  0  0  0  0  0  0  0  0  0  0
   11.0625   -3.0028   18.8894 C   0  0  0  0  0  0  0  0  0  0  0  0
    5.6180   -7.9194   16.1754 O   0  0  0  0  0  0  0  0  0  0  0  0
    9.7259   -5.3080   18.4485 C   0  0  0  0  0  0  0  0  0  0  0  0
    9.4578   -5.0200   16.3036 N   0  0  0  0  0  0  0  0  0  0  0  0
    5.0287   -8.9365   16.8223 C   0  0  0  0  0  0  0  0  0  0  0  0
    8.7742   -6.1498   16.6764 C   0  0  0  0  0  0  0  0  0  0  0  0
   10.9418   -3.4032   21.2053 O   0  0  0  0  0  0  0  0  0  0  0  0
    1.4797   -8.6258   16.2950 C   0  0  0  0  0  0  0  0  0  0  0  0
    9.2861   -1.2743   25.3585 C   0  0  0  0  0  0  0  0  0  0  0  0
    1.8892  -10.3985   17.7511 N   0  0  0  0  0  0  0  0  0  0  0  0
    9.6210   -0.6952   24.0976 C   0  0  0  0  0  0  0  0  0  0  0  0
    7.0792   -9.0217   17.1429 C   0  0  0  0  0  0  0  0  0  0  0  0
    3.1713  -10.1816   17.6634 C   0  0  0  0  0  0  0  0  0  0  0  0
    2.7878   -8.3822   16.2137 C   0  0  0  0  0  0  0  0  0  0  0  0
    9.4601   -2.6590   25.6528 C   0  0  0  0  0  0  0  0  0  0  0  0
   10.1182   -1.5672   23.1165 C   0  0  0  0  0  0  0  0  0  0  0  0
    1.0552   -9.6360   17.0650 C   0  0  0  0  0  0  0  0  0  0  0  0
    3.6519   -9.1783   16.9039 C   0  0  0  0  0  0  0  0  0  0  0  0
    7.8675   -7.0096   15.9415 C   0  0  0  0  0  0  0  0  0  0  0  0
    5.9733   -9.6553   17.3832 N   0  0  0  0  0  0  0  0  0  0  0  0
   10.2411   -2.9363   23.4301 C   0  0  0  0  0  0  0  0  0  0  0  0
   10.7288   -3.8197   19.9525 C   0  0  0  0  0  0  0  0  0  0  0  0
   10.1189   -5.0054   19.6987 C   0  0  0  0  0  0  0  0  0  0  0  0
  1  3  4  0
  1  7  4  0
  2 21  4  0
  2 27  4  0
  3  9  4  0
  3 10  4  0
  4  8  4  0
  4 18  4  0
  4 25  1  0
  5  9  4  0
  5 12  4  0
  6 13  1  0
  6 27  1  0
  7 28  4  0
  8 11  4  0
  9 29  4  0
 10 12  4  0
 11 24  1  0
 11 26  4  0
 12 25  1  0
 13 28  1  0
 14 20  4  0
 14 23  4  0
 15 17  4  0
 15 21  4  0
 16 19  4  0
 16 23  4  0
 17 22  4  0
 18 26  4  0
 19 24  4  0
 20 24  4  0
 22 27  4  0
 28 29  4  0
M  END
$$$$

 Created by Python create_sdf_string function

 29 33  0  0  0  0  0  0  0  0999 V2000
   10.7215   -3.3326   17.6437 C   0  0  0  0  0  0  0  0  0  0  0  0
    9.9489   -3.4675   24.6487 N   0  0  0  0  0  0  0  0  0  0  0  0
   10.0172   -4.4740   17.4101 C   0  0  0  0  0  0  0  0  0  0  0  0
    6.9051   -7.9575   16.4222 C   0  0  0  0  0  0  0  0  0  0  0  0
    8.9969   -6.3552   17.9668 N   0  0  0  0  0  0  0  0  0  0  0  0
   10.6702   -3.9051   22.4070 C   0  0  0  0  0  0  0  0  0  0  0  0
   11.0625   -3.0028   18.8894 C   0  0  0  0  0  0  0  0  0  0  0  0
    5.6180   -7.9194   16.1754 O   0  0  0  0  0  0  0  0  0  0  0  0
    9.7259   -5.3080   18.4485 C   0  0  0  0  0  0  0  0  0  0  0  0
    9.4578   -5.0200   16.3036 N   0  0  0  0  0  0  0  0  0  0  0  0
    5.0287   -8.9365   16.8223 C   0  0  0  0  0  0  0  0  0  0  0  0
    8.7742   -6.1498   16.6764 C   0  0  0  0  0  0  0  0  0  0  0  0
   10.9418   -3.4032   21.2053 O   0  0  0  0  0  0  0  0  0  0  0  0
    1.4797   -8.6258   16.2950 C   0  0  0  0  0  0  0  0  0  0  0  0
    9.2861   -1.2743   25.3585 C   0  0  0  0  0  0  0  0  0  0  0  0
    1.8892  -10.3985   17.7511 N   0  0  0  0  0  0  0  0  0  0  0  0
    9.6210   -0.6952   24.0976 C   0  0  0  0  0  0  0  0  0  0  0  0
    7.0792   -9.0217   17.1429 C   0  0  0  0  0  0  0  0  0  0  0  0
    3.1713  -10.1816   17.6634 C   0  0  0  0  0  0  0  0  0  0  0  0
    2.7878   -8.3822   16.2137 C   0  0  0  0  0  0  0  0  0  0  0  0
    9.4601   -2.6590   25.6528 C   0  0  0  0  0  0  0  0  0  0  0  0
   10.1182   -1.5672   23.1165 C   0  0  0  0  0  0  0  0  0  0  0  0
    1.0552   -9.6360   17.0650 C   0  0  0  0  0  0  0  0  0  0  0  0
    3.6519   -9.1783   16.9039 C   0  0  0  0  0  0  0  0  0  0  0  0
    7.8675   -7.0096   15.9415 C   0  0  0  0  0  0  0  0  0  0  0  0
    5.9733   -9.6553   17.3832 N   0  0  0  0  0  0  0  0  0  0  0  0
   10.2411   -2.9363   23.4301 C   0  0  0  0  0  0  0  0  0  0  0  0
   10.7288   -3.8197   19.9525 C   0  0  0  0  0  0  0  0  0  0  0  0
   10.1189   -5.0054   19.6987 C   0  0  0  0  0  0  0  0  0  0  0  0
  1  3  4  0
  1  7  4  0
  2 21  4  0
  2 27  4  0
  3  9  4  0
  3 10  4  0
  4  8  4  0
  4 18  4  0
  4 25  1  0
  5  9  4  0
  5 12  4  0
  6 13  1  0
  6 27  1  0
  7 28  4  0
  8 11  4  0
  9 29  4  0
 10 12  4  0
 11 24  1  0
 11 26  4  0
 12 25  1  0
 13 28  1  0
 14 20  4  0
 14 23  4  0
 15 17  4  0
 15 21  4  0
 16 19  4  0
 16 23  4  0
 17 22  4  0
 18 26  4  0
 19 24  4  0
 20 24  4  0
 22 27  4  0
 28 29  4  0
M  END
$$$$

 Created by Python create_sdf_string function

 29 33  0  0  0  0  0  0  0  0999 V2000
   10.7215   -3.3326   17.6437 C   0  0  0  0  0  0  0  0  0  0  0  0
    9.9489   -3.4675   24.6487 N   0  0  0  0  0  0  0  0  0  0  0  0
   10.0172   -4.4740   17.4101 C   0  0  0  0  0  0  0  0  0  0  0  0
    6.9051   -7.9575   16.4222 C   0  0  0  0  0  0  0  0  0  0  0  0
    8.9969   -6.3552   17.9668 N   0  0  0  0  0  0  0  0  0  0  0  0
   10.6702   -3.9051   22.4070 C   0  0  0  0  0  0  0  0  0  0  0  0
   11.0625   -3.0028   18.8894 C   0  0  0  0  0  0  0  0  0  0  0  0
    5.6180   -7.9194   16.1754 O   0  0  0  0  0  0  0  0  0  0  0  0
    9.7259   -5.3080   18.4485 C   0  0  0  0  0  0  0  0  0  0  0  0
    9.4578   -5.0200   16.3036 N   0  0  0  0  0  0  0  0  0  0  0  0
    5.0287   -8.9365   16.8223 C   0  0  0  0  0  0  0  0  0  0  0  0
    8.7742   -6.1498   16.6764 C   0  0  0  0  0  0  0  0  0  0  0  0
   10.9418   -3.4032   21.2053 O   0  0  0  0  0  0  0  0  0  0  0  0
    1.4797   -8.6258   16.2950 C   0  0  0  0  0  0  0  0  0  0  0  0
    9.2861   -1.2743   25.3585 C   0  0  0  0  0  0  0  0  0  0  0  0
    1.8892  -10.3985   17.7511 N   0  0  0  0  0  0  0  0  0  0  0  0
    9.6210   -0.6952   24.0976 C   0  0  0  0  0  0  0  0  0  0  0  0
    7.0792   -9.0217   17.1429 C   0  0  0  0  0  0  0  0  0  0  0  0
    3.1713  -10.1816   17.6634 C   0  0  0  0  0  0  0  0  0  0  0  0
    2.7878   -8.3822   16.2137 C   0  0  0  0  0  0  0  0  0  0  0  0
    9.4601   -2.6590   25.6528 C   0  0  0  0  0  0  0  0  0  0  0  0
   10.1182   -1.5672   23.1165 C   0  0  0  0  0  0  0  0  0  0  0  0
    1.0552   -9.6360   17.0650 C   0  0  0  0  0  0  0  0  0  0  0  0
    3.6519   -9.1783   16.9039 C   0  0  0  0  0  0  0  0  0  0  0  0
    7.8675   -7.0096   15.9415 C   0  0  0  0  0  0  0  0  0  0  0  0
    5.9733   -9.6553   17.3832 N   0  0  0  0  0  0  0  0  0  0  0  0
   10.2411   -2.9363   23.4301 C   0  0  0  0  0  0  0  0  0  0  0  0
   10.7288   -3.8197   19.9525 C   0  0  0  0  0  0  0  0  0  0  0  0
   10.1189   -5.0054   19.6987 C   0  0  0  0  0  0  0  0  0  0  0  0
  1  3  4  0
  1  7  4  0
  2 21  4  0
  2 27  4  0
  3  9  4  0
  3 10  4  0
  4  8  4  0
  4 18  4  0
  4 25  1  0
  5  9  4  0
  5 12  4  0
  6 13  1  0
  6 27  1  0
  7 28  4  0
  8 11  4  0
  9 29  4  0
 10 12  4  0
 11 24  1  0
 11 26  4  0
 12 25  1  0
 13 28  1  0
 14 20  4  0
 14 23  4  0
 15 17  4  0
 15 21  4  0
 16 19  4  0
 16 23  4  0
 17 22  4  0
 18 26  4  0
 19 24  4  0
 20 24  4  0
 22 27  4  0
 28 29  4  0
M  END
$$$$

 Created by Python create_sdf_string function

 29 33  0  0  0  0  0  0  0  0999 V2000
   10.7215   -3.3326   17.6437 C   0  0  0  0  0  0  0  0  0  0  0  0
    9.9489   -3.4675   24.6487 N   0  0  0  0  0  0  0  0  0  0  0  0
   10.0172   -4.4740   17.4101 C   0  0  0  0  0  0  0  0  0  0  0  0
    6.9051   -7.9575   16.4222 C   0  0  0  0  0  0  0  0  0  0  0  0
    8.9969   -6.3552   17.9668 N   0  0  0  0  0  0  0  0  0  0  0  0
   10.6702   -3.9051   22.4070 C   0  0  0  0  0  0  0  0  0  0  0  0
   11.0625   -3.0028   18.8894 C   0  0  0  0  0  0  0  0  0  0  0  0
    5.6180   -7.9194   16.1754 O   0  0  0  0  0  0  0  0  0  0  0  0
    9.7259   -5.3080   18.4485 C   0  0  0  0  0  0  0  0  0  0  0  0
    9.4578   -5.0200   16.3036 N   0  0  0  0  0  0  0  0  0  0  0  0
    5.0287   -8.9365   16.8223 C   0  0  0  0  0  0  0  0  0  0  0  0
    8.7742   -6.1498   16.6764 C   0  0  0  0  0  0  0  0  0  0  0  0
   10.9418   -3.4032   21.2053 O   0  0  0  0  0  0  0  0  0  0  0  0
    1.4797   -8.6258   16.2950 C   0  0  0  0  0  0  0  0  0  0  0  0
    9.2861   -1.2743   25.3585 C   0  0  0  0  0  0  0  0  0  0  0  0
    1.8892  -10.3985   17.7511 N   0  0  0  0  0  0  0  0  0  0  0  0
    9.6210   -0.6952   24.0976 C   0  0  0  0  0  0  0  0  0  0  0  0
    7.0792   -9.0217   17.1429 C   0  0  0  0  0  0  0  0  0  0  0  0
    3.1713  -10.1816   17.6634 C   0  0  0  0  0  0  0  0  0  0  0  0
    2.7878   -8.3822   16.2137 C   0  0  0  0  0  0  0  0  0  0  0  0
    9.4601   -2.6590   25.6528 C   0  0  0  0  0  0  0  0  0  0  0  0
   10.1182   -1.5672   23.1165 C   0  0  0  0  0  0  0  0  0  0  0  0
    1.0552   -9.6360   17.0650 C   0  0  0  0  0  0  0  0  0  0  0  0
    3.6519   -9.1783   16.9039 C   0  0  0  0  0  0  0  0  0  0  0  0
    7.8675   -7.0096   15.9415 C   0  0  0  0  0  0  0  0  0  0  0  0
    5.9733   -9.6553   17.3832 N   0  0  0  0  0  0  0  0  0  0  0  0
   10.2411   -2.9363   23.4301 C   0  0  0  0  0  0  0  0  0  0  0  0
   10.7288   -3.8197   19.9525 C   0  0  0  0  0  0  0  0  0  0  0  0
   10.1189   -5.0054   19.6987 C   0  0  0  0  0  0  0  0  0  0  0  0
  1  3  4  0
  1  7  4  0
  2 21  4  0
  2 27  4  0
  3  9  4  0
  3 10  4  0
  4  8  4  0
  4 18  4  0
  4 25  1  0
  5  9  4  0
  5 12  4  0
  6 13  1  0
  6 27  1  0
  7 28  4  0
  8 11  4  0
  9 29  4  0
 10 12  4  0
 11 24  1  0
 11 26  4  0
 12 25  1  0
 13 28  1  0
 14 20  4  0
 14 23  4  0
 15 17  4  0
 15 21  4  0
 16 19  4  0
 16 23  4  0
 17 22  4  0
 18 26  4  0
 19 24  4  0
 20 24  4  0
 22 27  4  0
 28 29  4  0
M  END
$$$$

 Created by Python create_sdf_string function

 29 33  0  0  0  0  0  0  0  0999 V2000
   10.7215   -3.3326   17.6437 C   0  0  0  0  0  0  0  0  0  0  0  0
    9.9489   -3.4675   24.6487 N   0  0  0  0  0  0  0  0  0  0  0  0
   10.0172   -4.4740   17.4101 C   0  0  0  0  0  0  0  0  0  0  0  0
    6.9051   -7.9575   16.4222 C   0  0  0  0  0  0  0  0  0  0  0  0
    8.9969   -6.3552   17.9668 N   0  0  0  0  0  0  0  0  0  0  0  0
   10.6702   -3.9051   22.4070 C   0  0  0  0  0  0  0  0  0  0  0  0
   11.0625   -3.0028   18.8894 C   0  0  0  0  0  0  0  0  0  0  0  0
    5.6180   -7.9194   16.1754 O   0  0  0  0  0  0  0  0  0  0  0  0
    9.7259   -5.3080   18.4485 C   0  0  0  0  0  0  0  0  0  0  0  0
    9.4578   -5.0200   16.3036 N   0  0  0  0  0  0  0  0  0  0  0  0
    5.0287   -8.9365   16.8223 C   0  0  0  0  0  0  0  0  0  0  0  0
    8.7742   -6.1498   16.6764 C   0  0  0  0  0  0  0  0  0  0  0  0
   10.9418   -3.4032   21.2053 O   0  0  0  0  0  0  0  0  0  0  0  0
    1.4797   -8.6258   16.2950 C   0  0  0  0  0  0  0  0  0  0  0  0
    9.2861   -1.2743   25.3585 C   0  0  0  0  0  0  0  0  0  0  0  0
    1.8892  -10.3985   17.7511 N   0  0  0  0  0  0  0  0  0  0  0  0
    9.6210   -0.6952   24.0976 C   0  0  0  0  0  0  0  0  0  0  0  0
    7.0792   -9.0217   17.1429 C   0  0  0  0  0  0  0  0  0  0  0  0
    3.1713  -10.1816   17.6634 C   0  0  0  0  0  0  0  0  0  0  0  0
    2.7878   -8.3822   16.2137 C   0  0  0  0  0  0  0  0  0  0  0  0
    9.4601   -2.6590   25.6528 C   0  0  0  0  0  0  0  0  0  0  0  0
   10.1182   -1.5672   23.1165 C   0  0  0  0  0  0  0  0  0  0  0  0
    1.0552   -9.6360   17.0650 C   0  0  0  0  0  0  0  0  0  0  0  0
    3.6519   -9.1783   16.9039 C   0  0  0  0  0  0  0  0  0  0  0  0
    7.8675   -7.0096   15.9415 C   0  0  0  0  0  0  0  0  0  0  0  0
    5.9733   -9.6553   17.3832 N   0  0  0  0  0  0  0  0  0  0  0  0
   10.2411   -2.9363   23.4301 C   0  0  0  0  0  0  0  0  0  0  0  0
   10.7288   -3.8197   19.9525 C   0  0  0  0  0  0  0  0  0  0  0  0
   10.1189   -5.0054   19.6987 C   0  0  0  0  0  0  0  0  0  0  0  0
  1  3  4  0
  1  7  4  0
  2 21  4  0
  2 27  4  0
  3  9  4  0
  3 10  4  0
  4  8  4  0
  4 18  4  0
  4 25  1  0
  5  9  4  0
  5 12  4  0
  6 13  1  0
  6 27  1  0
  7 28  4  0
  8 11  4  0
  9 29  4  0
 10 12  4  0
 11 24  1  0
 11 26  4  0
 12 25  1  0
 13 28  1  0
 14 20  4  0
 14 23  4  0
 15 17  4  0
 15 21  4  0
 16 19  4  0
 16 23  4  0
 17 22  4  0
 18 26  4  0
 19 24  4  0
 20 24  4  0
 22 27  4  0
 28 29  4  0
M  END
$$$$

 Created by Python create_sdf_string function

 29 33  0  0  0  0  0  0  0  0999 V2000
   10.7215   -3.3326   17.6437 C   0  0  0  0  0  0  0  0  0  0  0  0
    9.9489   -3.4675   24.6487 N   0  0  0  0  0  0  0  0  0  0  0  0
   10.0172   -4.4740   17.4101 C   0  0  0  0  0  0  0  0  0  0  0  0
    6.9051   -7.9575   16.4222 C   0  0  0  0  0  0  0  0  0  0  0  0
    8.9969   -6.3552   17.9668 N   0  0  0  0  0  0  0  0  0  0  0  0
   10.6702   -3.9051   22.4070 C   0  0  0  0  0  0  0  0  0  0  0  0
   11.0625   -3.0028   18.8894 C   0  0  0  0  0  0  0  0  0  0  0  0
    5.6180   -7.9194   16.1754 O   0  0  0  0  0  0  0  0  0  0  0  0
    9.7259   -5.3080   18.4485 C   0  0  0  0  0  0  0  0  0  0  0  0
    9.4578   -5.0200   16.3036 N   0  0  0  0  0  0  0  0  0  0  0  0
    5.0287   -8.9365   16.8223 C   0  0  0  0  0  0  0  0  0  0  0  0
    8.7742   -6.1498   16.6764 C   0  0  0  0  0  0  0  0  0  0  0  0
   10.9418   -3.4032   21.2053 O   0  0  0  0  0  0  0  0  0  0  0  0
    1.4797   -8.6258   16.2950 C   0  0  0  0  0  0  0  0  0  0  0  0
    9.2861   -1.2743   25.3585 C   0  0  0  0  0  0  0  0  0  0  0  0
    1.8892  -10.3985   17.7511 N   0  0  0  0  0  0  0  0  0  0  0  0
    9.6210   -0.6952   24.0976 C   0  0  0  0  0  0  0  0  0  0  0  0
    7.0792   -9.0217   17.1429 C   0  0  0  0  0  0  0  0  0  0  0  0
    3.1713  -10.1816   17.6634 C   0  0  0  0  0  0  0  0  0  0  0  0
    2.7878   -8.3822   16.2137 C   0  0  0  0  0  0  0  0  0  0  0  0
    9.4601   -2.6590   25.6528 C   0  0  0  0  0  0  0  0  0  0  0  0
   10.1182   -1.5672   23.1165 C   0  0  0  0  0  0  0  0  0  0  0  0
    1.0552   -9.6360   17.0650 C   0  0  0  0  0  0  0  0  0  0  0  0
    3.6519   -9.1783   16.9039 C   0  0  0  0  0  0  0  0  0  0  0  0
    7.8675   -7.0096   15.9415 C   0  0  0  0  0  0  0  0  0  0  0  0
    5.9733   -9.6553   17.3832 N   0  0  0  0  0  0  0  0  0  0  0  0
   10.2411   -2.9363   23.4301 C   0  0  0  0  0  0  0  0  0  0  0  0
   10.7288   -3.8197   19.9525 C   0  0  0  0  0  0  0  0  0  0  0  0
   10.1189   -5.0054   19.6987 C   0  0  0  0  0  0  0  0  0  0  0  0
  1  3  4  0
  1  7  4  0
  2 21  4  0
  2 27  4  0
  3  9  4  0
  3 10  4  0
  4  8  4  0
  4 18  4  0
  4 25  1  0
  5  9  4  0
  5 12  4  0
  6 13  1  0
  6 27  1  0
  7 28  4  0
  8 11  4  0
  9 29  4  0
 10 12  4  0
 11 24  1  0
 11 26  4  0
 12 25  1  0
 13 28  1  0
 14 20  4  0
 14 23  4  0
 15 17  4  0
 15 21  4  0
 16 19  4  0
 16 23  4  0
 17 22  4  0
 18 26  4  0
 19 24  4  0
 20 24  4  0
 22 27  4  0
 28 29  4  0
M  END
$$$$

 Created by Python create_sdf_string function

 29 33  0  0  0  0  0  0  0  0999 V2000
   10.7215   -3.3326   17.6437 C   0  0  0  0  0  0  0  0  0  0  0  0
    9.9489   -3.4675   24.6487 N   0  0  0  0  0  0  0  0  0  0  0  0
   10.0172   -4.4740   17.4101 C   0  0  0  0  0  0  0  0  0  0  0  0
    6.9051   -7.9575   16.4222 C   0  0  0  0  0  0  0  0  0  0  0  0
    8.9969   -6.3552   17.9668 N   0  0  0  0  0  0  0  0  0  0  0  0
   10.6702   -3.9051   22.4070 C   0  0  0  0  0  0  0  0  0  0  0  0
   11.0625   -3.0028   18.8894 C   0  0  0  0  0  0  0  0  0  0  0  0
    5.6180   -7.9194   16.1754 O   0  0  0  0  0  0  0  0  0  0  0  0
    9.7259   -5.3080   18.4485 C   0  0  0  0  0  0  0  0  0  0  0  0
    9.4578   -5.0200   16.3036 N   0  0  0  0  0  0  0  0  0  0  0  0
    5.0287   -8.9365   16.8223 C   0  0  0  0  0  0  0  0  0  0  0  0
    8.7742   -6.1498   16.6764 C   0  0  0  0  0  0  0  0  0  0  0  0
   10.9418   -3.4032   21.2053 O   0  0  0  0  0  0  0  0  0  0  0  0
    1.4797   -8.6258   16.2950 C   0  0  0  0  0  0  0  0  0  0  0  0
    9.2861   -1.2743   25.3585 C   0  0  0  0  0  0  0  0  0  0  0  0
    1.8892  -10.3985   17.7511 N   0  0  0  0  0  0  0  0  0  0  0  0
    9.6210   -0.6952   24.0976 C   0  0  0  0  0  0  0  0  0  0  0  0
    7.0792   -9.0217   17.1429 C   0  0  0  0  0  0  0  0  0  0  0  0
    3.1713  -10.1816   17.6634 C   0  0  0  0  0  0  0  0  0  0  0  0
    2.7878   -8.3822   16.2137 C   0  0  0  0  0  0  0  0  0  0  0  0
    9.4601   -2.6590   25.6528 C   0  0  0  0  0  0  0  0  0  0  0  0
   10.1182   -1.5672   23.1165 C   0  0  0  0  0  0  0  0  0  0  0  0
    1.0552   -9.6360   17.0650 C   0  0  0  0  0  0  0  0  0  0  0  0
    3.6519   -9.1783   16.9039 C   0  0  0  0  0  0  0  0  0  0  0  0
    7.8675   -7.0096   15.9415 C   0  0  0  0  0  0  0  0  0  0  0  0
    5.9733   -9.6553   17.3832 N   0  0  0  0  0  0  0  0  0  0  0  0
   10.2411   -2.9363   23.4301 C   0  0  0  0  0  0  0  0  0  0  0  0
   10.7288   -3.8197   19.9525 C   0  0  0  0  0  0  0  0  0  0  0  0
   10.1189   -5.0054   19.6987 C   0  0  0  0  0  0  0  0  0  0  0  0
  1  3  4  0
  1  7  4  0
  2 21  4  0
  2 27  4  0
  3  9  4  0
  3 10  4  0
  4  8  4  0
  4 18  4  0
  4 25  1  0
  5  9  4  0
  5 12  4  0
  6 13  1  0
  6 27  1  0
  7 28  4  0
  8 11  4  0
  9 29  4  0
 10 12  4  0
 11 24  1  0
 11 26  4  0
 12 25  1  0
 13 28  1  0
 14 20  4  0
 14 23  4  0
 15 17  4  0
 15 21  4  0
 16 19  4  0
 16 23  4  0
 17 22  4  0
 18 26  4  0
 19 24  4  0
 20 24  4  0
 22 27  4  0
 28 29  4  0
M  END
$$$$

 Created by Python create_sdf_string function

 29 33  0  0  0  0  0  0  0  0999 V2000
   10.7215   -3.3326   17.6437 C   0  0  0  0  0  0  0  0  0  0  0  0
    9.9489   -3.4675   24.6487 N   0  0  0  0  0  0  0  0  0  0  0  0
   10.0172   -4.4740   17.4101 C   0  0  0  0  0  0  0  0  0  0  0  0
    6.9051   -7.9575   16.4222 C   0  0  0  0  0  0  0  0  0  0  0  0
    8.9969   -6.3552   17.9668 N   0  0  0  0  0  0  0  0  0  0  0  0
   10.6702   -3.9051   22.4070 C   0  0  0  0  0  0  0  0  0  0  0  0
   11.0625   -3.0028   18.8894 C   0  0  0  0  0  0  0  0  0  0  0  0
    5.6180   -7.9194   16.1754 O   0  0  0  0  0  0  0  0  0  0  0  0
    9.7259   -5.3080   18.4485 C   0  0  0  0  0  0  0  0  0  0  0  0
    9.4578   -5.0200   16.3036 N   0  0  0  0  0  0  0  0  0  0  0  0
    5.0287   -8.9365   16.8223 C   0  0  0  0  0  0  0  0  0  0  0  0
    8.7742   -6.1498   16.6764 C   0  0  0  0  0  0  0  0  0  0  0  0
   10.9418   -3.4032   21.2053 O   0  0  0  0  0  0  0  0  0  0  0  0
    1.4797   -8.6258   16.2950 C   0  0  0  0  0  0  0  0  0  0  0  0
    9.2861   -1.2743   25.3585 C   0  0  0  0  0  0  0  0  0  0  0  0
    1.8892  -10.3985   17.7511 N   0  0  0  0  0  0  0  0  0  0  0  0
    9.6210   -0.6952   24.0976 C   0  0  0  0  0  0  0  0  0  0  0  0
    7.0792   -9.0217   17.1429 C   0  0  0  0  0  0  0  0  0  0  0  0
    3.1713  -10.1816   17.6634 C   0  0  0  0  0  0  0  0  0  0  0  0
    2.7878   -8.3822   16.2137 C   0  0  0  0  0  0  0  0  0  0  0  0
    9.4601   -2.6590   25.6528 C   0  0  0  0  0  0  0  0  0  0  0  0
   10.1182   -1.5672   23.1165 C   0  0  0  0  0  0  0  0  0  0  0  0
    1.0552   -9.6360   17.0650 C   0  0  0  0  0  0  0  0  0  0  0  0
    3.6519   -9.1783   16.9039 C   0  0  0  0  0  0  0  0  0  0  0  0
    7.8675   -7.0096   15.9415 C   0  0  0  0  0  0  0  0  0  0  0  0
    5.9733   -9.6553   17.3832 N   0  0  0  0  0  0  0  0  0  0  0  0
   10.2411   -2.9363   23.4301 C   0  0  0  0  0  0  0  0  0  0  0  0
   10.7288   -3.8197   19.9525 C   0  0  0  0  0  0  0  0  0  0  0  0
   10.1189   -5.0054   19.6987 C   0  0  0  0  0  0  0  0  0  0  0  0
  1  3  4  0
  1  7  4  0
  2 21  4  0
  2 27  4  0
  3  9  4  0
  3 10  4  0
  4  8  4  0
  4 18  4  0
  4 25  1  0
  5  9  4  0
  5 12  4  0
  6 13  1  0
  6 27  1  0
  7 28  4  0
  8 11  4  0
  9 29  4  0
 10 12  4  0
 11 24  1  0
 11 26  4  0
 12 25  1  0
 13 28  1  0
 14 20  4  0
 14 23  4  0
 15 17  4  0
 15 21  4  0
 16 19  4  0
 16 23  4  0
 17 22  4  0
 18 26  4  0
 19 24  4  0
 20 24  4  0
 22 27  4  0
 28 29  4  0
M  END
$$$$

 Created by Python create_sdf_string function

 29 33  0  0  0  0  0  0  0  0999 V2000
   10.7215   -3.3326   17.6437 C   0  0  0  0  0  0  0  0  0  0  0  0
    9.9489   -3.4675   24.6487 N   0  0  0  0  0  0  0  0  0  0  0  0
   10.0172   -4.4740   17.4101 C   0  0  0  0  0  0  0  0  0  0  0  0
    6.9051   -7.9575   16.4222 C   0  0  0  0  0  0  0  0  0  0  0  0
    8.9969   -6.3552   17.9668 N   0  0  0  0  0  0  0  0  0  0  0  0
   10.6702   -3.9051   22.4070 C   0  0  0  0  0  0  0  0  0  0  0  0
   11.0625   -3.0028   18.8894 C   0  0  0  0  0  0  0  0  0  0  0  0
    5.6180   -7.9194   16.1754 O   0  0  0  0  0  0  0  0  0  0  0  0
    9.7259   -5.3080   18.4485 C   0  0  0  0  0  0  0  0  0  0  0  0
    9.4578   -5.0200   16.3036 N   0  0  0  0  0  0  0  0  0  0  0  0
    5.0287   -8.9365   16.8223 C   0  0  0  0  0  0  0  0  0  0  0  0
    8.7742   -6.1498   16.6764 C   0  0  0  0  0  0  0  0  0  0  0  0
   10.9418   -3.4032   21.2053 O   0  0  0  0  0  0  0  0  0  0  0  0
    1.4797   -8.6258   16.2950 C   0  0  0  0  0  0  0  0  0  0  0  0
    9.2861   -1.2743   25.3585 C   0  0  0  0  0  0  0  0  0  0  0  0
    1.8892  -10.3985   17.7511 N   0  0  0  0  0  0  0  0  0  0  0  0
    9.6210   -0.6952   24.0976 C   0  0  0  0  0  0  0  0  0  0  0  0
    7.0792   -9.0217   17.1429 C   0  0  0  0  0  0  0  0  0  0  0  0
    3.1713  -10.1816   17.6634 C   0  0  0  0  0  0  0  0  0  0  0  0
    2.7878   -8.3822   16.2137 C   0  0  0  0  0  0  0  0  0  0  0  0
    9.4601   -2.6590   25.6528 C   0  0  0  0  0  0  0  0  0  0  0  0
   10.1182   -1.5672   23.1165 C   0  0  0  0  0  0  0  0  0  0  0  0
    1.0552   -9.6360   17.0650 C   0  0  0  0  0  0  0  0  0  0  0  0
    3.6519   -9.1783   16.9039 C   0  0  0  0  0  0  0  0  0  0  0  0
    7.8675   -7.0096   15.9415 C   0  0  0  0  0  0  0  0  0  0  0  0
    5.9733   -9.6553   17.3832 N   0  0  0  0  0  0  0  0  0  0  0  0
   10.2411   -2.9363   23.4301 C   0  0  0  0  0  0  0  0  0  0  0  0
   10.7288   -3.8197   19.9525 C   0  0  0  0  0  0  0  0  0  0  0  0
   10.1189   -5.0054   19.6987 C   0  0  0  0  0  0  0  0  0  0  0  0
  1  3  4  0
  1  7  4  0
  2 21  4  0
  2 27  4  0
  3  9  4  0
  3 10  4  0
  4  8  4  0
  4 18  4  0
  4 25  1  0
  5  9  4  0
  5 12  4  0
  6 13  1  0
  6 27  1  0
  7 28  4  0
  8 11  4  0
  9 29  4  0
 10 12  4  0
 11 24  1  0
 11 26  4  0
 12 25  1  0
 13 28  1  0
 14 20  4  0
 14 23  4  0
 15 17  4  0
 15 21  4  0
 16 19  4  0
 16 23  4  0
 17 22  4  0
 18 26  4  0
 19 24  4  0
 20 24  4  0
 22 27  4  0
 28 29  4  0
M  END
$$$$

 Created by Python create_sdf_string function

 29 33  0  0  0  0  0  0  0  0999 V2000
   10.7215   -3.3326   17.6437 C   0  0  0  0  0  0  0  0  0  0  0  0
    9.9489   -3.4675   24.6487 N   0  0  0  0  0  0  0  0  0  0  0  0
   10.0172   -4.4740   17.4101 C   0  0  0  0  0  0  0  0  0  0  0  0
    6.9051   -7.9575   16.4222 C   0  0  0  0  0  0  0  0  0  0  0  0
    8.9969   -6.3552   17.9668 N   0  0  0  0  0  0  0  0  0  0  0  0
   10.6702   -3.9051   22.4070 C   0  0  0  0  0  0  0  0  0  0  0  0
   11.0625   -3.0028   18.8894 C   0  0  0  0  0  0  0  0  0  0  0  0
    5.6180   -7.9194   16.1754 O   0  0  0  0  0  0  0  0  0  0  0  0
    9.7259   -5.3080   18.4485 C   0  0  0  0  0  0  0  0  0  0  0  0
    9.4578   -5.0200   16.3036 N   0  0  0  0  0  0  0  0  0  0  0  0
    5.0287   -8.9365   16.8223 C   0  0  0  0  0  0  0  0  0  0  0  0
    8.7742   -6.1498   16.6764 C   0  0  0  0  0  0  0  0  0  0  0  0
   10.9418   -3.4032   21.2053 O   0  0  0  0  0  0  0  0  0  0  0  0
    1.4797   -8.6258   16.2950 C   0  0  0  0  0  0  0  0  0  0  0  0
    9.2861   -1.2743   25.3585 C   0  0  0  0  0  0  0  0  0  0  0  0
    1.8892  -10.3985   17.7511 N   0  0  0  0  0  0  0  0  0  0  0  0
    9.6210   -0.6952   24.0976 C   0  0  0  0  0  0  0  0  0  0  0  0
    7.0792   -9.0217   17.1429 C   0  0  0  0  0  0  0  0  0  0  0  0
    3.1713  -10.1816   17.6634 C   0  0  0  0  0  0  0  0  0  0  0  0
    2.7878   -8.3822   16.2137 C   0  0  0  0  0  0  0  0  0  0  0  0
    9.4601   -2.6590   25.6528 C   0  0  0  0  0  0  0  0  0  0  0  0
   10.1182   -1.5672   23.1165 C   0  0  0  0  0  0  0  0  0  0  0  0
    1.0552   -9.6360   17.0650 C   0  0  0  0  0  0  0  0  0  0  0  0
    3.6519   -9.1783   16.9039 C   0  0  0  0  0  0  0  0  0  0  0  0
    7.8675   -7.0096   15.9415 C   0  0  0  0  0  0  0  0  0  0  0  0
    5.9733   -9.6553   17.3832 N   0  0  0  0  0  0  0  0  0  0  0  0
   10.2411   -2.9363   23.4301 C   0  0  0  0  0  0  0  0  0  0  0  0
   10.7288   -3.8197   19.9525 C   0  0  0  0  0  0  0  0  0  0  0  0
   10.1189   -5.0054   19.6987 C   0  0  0  0  0  0  0  0  0  0  0  0
  1  3  4  0
  1  7  4  0
  2 21  4  0
  2 27  4  0
  3  9  4  0
  3 10  4  0
  4  8  4  0
  4 18  4  0
  4 25  1  0
  5  9  4  0
  5 12  4  0
  6 13  1  0
  6 27  1  0
  7 28  4  0
  8 11  4  0
  9 29  4  0
 10 12  4  0
 11 24  1  0
 11 26  4  0
 12 25  1  0
 13 28  1  0
 14 20  4  0
 14 23  4  0
 15 17  4  0
 15 21  4  0
 16 19  4  0
 16 23  4  0
 17 22  4  0
 18 26  4  0
 19 24  4  0
 20 24  4  0
 22 27  4  0
 28 29  4  0
M  END
$$$$

 Created by Python create_sdf_string function

 29 33  0  0  0  0  0  0  0  0999 V2000
   10.7215   -3.3326   17.6437 C   0  0  0  0  0  0  0  0  0  0  0  0
    9.9489   -3.4675   24.6487 N   0  0  0  0  0  0  0  0  0  0  0  0
   10.0172   -4.4740   17.4101 C   0  0  0  0  0  0  0  0  0  0  0  0
    6.9051   -7.9575   16.4222 C   0  0  0  0  0  0  0  0  0  0  0  0
    8.9969   -6.3552   17.9668 N   0  0  0  0  0  0  0  0  0  0  0  0
   10.6702   -3.9051   22.4070 C   0  0  0  0  0  0  0  0  0  0  0  0
   11.0625   -3.0028   18.8894 C   0  0  0  0  0  0  0  0  0  0  0  0
    5.6180   -7.9194   16.1754 O   0  0  0  0  0  0  0  0  0  0  0  0
    9.7259   -5.3080   18.4485 C   0  0  0  0  0  0  0  0  0  0  0  0
    9.4578   -5.0200   16.3036 N   0  0  0  0  0  0  0  0  0  0  0  0
    5.0287   -8.9365   16.8223 C   0  0  0  0  0  0  0  0  0  0  0  0
    8.7742   -6.1498   16.6764 C   0  0  0  0  0  0  0  0  0  0  0  0
   10.9418   -3.4032   21.2053 O   0  0  0  0  0  0  0  0  0  0  0  0
    1.4797   -8.6258   16.2950 C   0  0  0  0  0  0  0  0  0  0  0  0
    9.2861   -1.2743   25.3585 C   0  0  0  0  0  0  0  0  0  0  0  0
    1.8892  -10.3985   17.7511 N   0  0  0  0  0  0  0  0  0  0  0  0
    9.6210   -0.6952   24.0976 C   0  0  0  0  0  0  0  0  0  0  0  0
    7.0792   -9.0217   17.1429 C   0  0  0  0  0  0  0  0  0  0  0  0
    3.1713  -10.1816   17.6634 C   0  0  0  0  0  0  0  0  0  0  0  0
    2.7878   -8.3822   16.2137 C   0  0  0  0  0  0  0  0  0  0  0  0
    9.4601   -2.6590   25.6528 C   0  0  0  0  0  0  0  0  0  0  0  0
   10.1182   -1.5672   23.1165 C   0  0  0  0  0  0  0  0  0  0  0  0
    1.0552   -9.6360   17.0650 C   0  0  0  0  0  0  0  0  0  0  0  0
    3.6519   -9.1783   16.9039 C   0  0  0  0  0  0  0  0  0  0  0  0
    7.8675   -7.0096   15.9415 C   0  0  0  0  0  0  0  0  0  0  0  0
    5.9733   -9.6553   17.3832 N   0  0  0  0  0  0  0  0  0  0  0  0
   10.2411   -2.9363   23.4301 C   0  0  0  0  0  0  0  0  0  0  0  0
   10.7288   -3.8197   19.9525 C   0  0  0  0  0  0  0  0  0  0  0  0
   10.1189   -5.0054   19.6987 C   0  0  0  0  0  0  0  0  0  0  0  0
  1  3  4  0
  1  7  4  0
  2 21  4  0
  2 27  4  0
  3  9  4  0
  3 10  4  0
  4  8  4  0
  4 18  4  0
  4 25  1  0
  5  9  4  0
  5 12  4  0
  6 13  1  0
  6 27  1  0
  7 28  4  0
  8 11  4  0
  9 29  4  0
 10 12  4  0
 11 24  1  0
 11 26  4  0
 12 25  1  0
 13 28  1  0
 14 20  4  0
 14 23  4  0
 15 17  4  0
 15 21  4  0
 16 19  4  0
 16 23  4  0
 17 22  4  0
 18 26  4  0
 19 24  4  0
 20 24  4  0
 22 27  4  0
 28 29  4  0
M  END
$$$$

 Created by Python create_sdf_string function

 29 33  0  0  0  0  0  0  0  0999 V2000
   10.7215   -3.3326   17.6437 C   0  0  0  0  0  0  0  0  0  0  0  0
    9.9489   -3.4675   24.6487 N   0  0  0  0  0  0  0  0  0  0  0  0
   10.0172   -4.4740   17.4101 C   0  0  0  0  0  0  0  0  0  0  0  0
    6.9051   -7.9575   16.4222 C   0  0  0  0  0  0  0  0  0  0  0  0
    8.9969   -6.3552   17.9668 N   0  0  0  0  0  0  0  0  0  0  0  0
   10.6702   -3.9051   22.4070 C   0  0  0  0  0  0  0  0  0  0  0  0
   11.0625   -3.0028   18.8894 C   0  0  0  0  0  0  0  0  0  0  0  0
    5.6180   -7.9194   16.1754 O   0  0  0  0  0  0  0  0  0  0  0  0
    9.7259   -5.3080   18.4485 C   0  0  0  0  0  0  0  0  0  0  0  0
    9.4578   -5.0200   16.3036 N   0  0  0  0  0  0  0  0  0  0  0  0
    5.0287   -8.9365   16.8223 C   0  0  0  0  0  0  0  0  0  0  0  0
    8.7742   -6.1498   16.6764 C   0  0  0  0  0  0  0  0  0  0  0  0
   10.9418   -3.4032   21.2053 O   0  0  0  0  0  0  0  0  0  0  0  0
    1.4797   -8.6258   16.2950 C   0  0  0  0  0  0  0  0  0  0  0  0
    9.2861   -1.2743   25.3585 C   0  0  0  0  0  0  0  0  0  0  0  0
    1.8892  -10.3985   17.7511 N   0  0  0  0  0  0  0  0  0  0  0  0
    9.6210   -0.6952   24.0976 C   0  0  0  0  0  0  0  0  0  0  0  0
    7.0792   -9.0217   17.1429 C   0  0  0  0  0  0  0  0  0  0  0  0
    3.1713  -10.1816   17.6634 C   0  0  0  0  0  0  0  0  0  0  0  0
    2.7878   -8.3822   16.2137 C   0  0  0  0  0  0  0  0  0  0  0  0
    9.4601   -2.6590   25.6528 C   0  0  0  0  0  0  0  0  0  0  0  0
   10.1182   -1.5672   23.1165 C   0  0  0  0  0  0  0  0  0  0  0  0
    1.0552   -9.6360   17.0650 C   0  0  0  0  0  0  0  0  0  0  0  0
    3.6519   -9.1783   16.9039 C   0  0  0  0  0  0  0  0  0  0  0  0
    7.8675   -7.0096   15.9415 C   0  0  0  0  0  0  0  0  0  0  0  0
    5.9733   -9.6553   17.3832 N   0  0  0  0  0  0  0  0  0  0  0  0
   10.2411   -2.9363   23.4301 C   0  0  0  0  0  0  0  0  0  0  0  0
   10.7288   -3.8197   19.9525 C   0  0  0  0  0  0  0  0  0  0  0  0
   10.1189   -5.0054   19.6987 C   0  0  0  0  0  0  0  0  0  0  0  0
  1  3  4  0
  1  7  4  0
  2 21  4  0
  2 27  4  0
  3  9  4  0
  3 10  4  0
  4  8  4  0
  4 18  4  0
  4 25  1  0
  5  9  4  0
  5 12  4  0
  6 13  1  0
  6 27  1  0
  7 28  4  0
  8 11  4  0
  9 29  4  0
 10 12  4  0
 11 24  1  0
 11 26  4  0
 12 25  1  0
 13 28  1  0
 14 20  4  0
 14 23  4  0
 15 17  4  0
 15 21  4  0
 16 19  4  0
 16 23  4  0
 17 22  4  0
 18 26  4  0
 19 24  4  0
 20 24  4  0
 22 27  4  0
 28 29  4  0
M  END
$$$$

 Created by Python create_sdf_string function

 29 33  0  0  0  0  0  0  0  0999 V2000
   10.7215   -3.3326   17.6437 C   0  0  0  0  0  0  0  0  0  0  0  0
    9.9489   -3.4675   24.6487 N   0  0  0  0  0  0  0  0  0  0  0  0
   10.0172   -4.4740   17.4101 C   0  0  0  0  0  0  0  0  0  0  0  0
    6.9051   -7.9575   16.4222 C   0  0  0  0  0  0  0  0  0  0  0  0
    8.9969   -6.3552   17.9668 N   0  0  0  0  0  0  0  0  0  0  0  0
   10.6702   -3.9051   22.4070 C   0  0  0  0  0  0  0  0  0  0  0  0
   11.0625   -3.0028   18.8894 C   0  0  0  0  0  0  0  0  0  0  0  0
    5.6180   -7.9194   16.1754 O   0  0  0  0  0  0  0  0  0  0  0  0
    9.7259   -5.3080   18.4485 C   0  0  0  0  0  0  0  0  0  0  0  0
    9.4578   -5.0200   16.3036 N   0  0  0  0  0  0  0  0  0  0  0  0
    5.0287   -8.9365   16.8223 C   0  0  0  0  0  0  0  0  0  0  0  0
    8.7742   -6.1498   16.6764 C   0  0  0  0  0  0  0  0  0  0  0  0
   10.9418   -3.4032   21.2053 O   0  0  0  0  0  0  0  0  0  0  0  0
    1.4797   -8.6258   16.2950 C   0  0  0  0  0  0  0  0  0  0  0  0
    9.2861   -1.2743   25.3585 C   0  0  0  0  0  0  0  0  0  0  0  0
    1.8892  -10.3985   17.7511 N   0  0  0  0  0  0  0  0  0  0  0  0
    9.6210   -0.6952   24.0976 C   0  0  0  0  0  0  0  0  0  0  0  0
    7.0792   -9.0217   17.1429 C   0  0  0  0  0  0  0  0  0  0  0  0
    3.1713  -10.1816   17.6634 C   0  0  0  0  0  0  0  0  0  0  0  0
    2.7878   -8.3822   16.2137 C   0  0  0  0  0  0  0  0  0  0  0  0
    9.4601   -2.6590   25.6528 C   0  0  0  0  0  0  0  0  0  0  0  0
   10.1182   -1.5672   23.1165 C   0  0  0  0  0  0  0  0  0  0  0  0
    1.0552   -9.6360   17.0650 C   0  0  0  0  0  0  0  0  0  0  0  0
    3.6519   -9.1783   16.9039 C   0  0  0  0  0  0  0  0  0  0  0  0
    7.8675   -7.0096   15.9415 C   0  0  0  0  0  0  0  0  0  0  0  0
    5.9733   -9.6553   17.3832 N   0  0  0  0  0  0  0  0  0  0  0  0
   10.2411   -2.9363   23.4301 C   0  0  0  0  0  0  0  0  0  0  0  0
   10.7288   -3.8197   19.9525 C   0  0  0  0  0  0  0  0  0  0  0  0
   10.1189   -5.0054   19.6987 C   0  0  0  0  0  0  0  0  0  0  0  0
  1  3  4  0
  1  7  4  0
  2 21  4  0
  2 27  4  0
  3  9  4  0
  3 10  4  0
  4  8  4  0
  4 18  4  0
  4 25  1  0
  5  9  4  0
  5 12  4  0
  6 13  1  0
  6 27  1  0
  7 28  4  0
  8 11  4  0
  9 29  4  0
 10 12  4  0
 11 24  1  0
 11 26  4  0
 12 25  1  0
 13 28  1  0
 14 20  4  0
 14 23  4  0
 15 17  4  0
 15 21  4  0
 16 19  4  0
 16 23  4  0
 17 22  4  0
 18 26  4  0
 19 24  4  0
 20 24  4  0
 22 27  4  0
 28 29  4  0
M  END
$$$$

 Created by Python create_sdf_string function

 29 33  0  0  0  0  0  0  0  0999 V2000
   10.7215   -3.3326   17.6437 C   0  0  0  0  0  0  0  0  0  0  0  0
    9.9489   -3.4675   24.6487 N   0  0  0  0  0  0  0  0  0  0  0  0
   10.0172   -4.4740   17.4101 C   0  0  0  0  0  0  0  0  0  0  0  0
    6.9051   -7.9575   16.4222 C   0  0  0  0  0  0  0  0  0  0  0  0
    8.9969   -6.3552   17.9668 N   0  0  0  0  0  0  0  0  0  0  0  0
   10.6702   -3.9051   22.4070 C   0  0  0  0  0  0  0  0  0  0  0  0
   11.0625   -3.0028   18.8894 C   0  0  0  0  0  0  0  0  0  0  0  0
    5.6180   -7.9194   16.1754 O   0  0  0  0  0  0  0  0  0  0  0  0
    9.7259   -5.3080   18.4485 C   0  0  0  0  0  0  0  0  0  0  0  0
    9.4578   -5.0200   16.3036 N   0  0  0  0  0  0  0  0  0  0  0  0
    5.0287   -8.9365   16.8223 C   0  0  0  0  0  0  0  0  0  0  0  0
    8.7742   -6.1498   16.6764 C   0  0  0  0  0  0  0  0  0  0  0  0
   10.9418   -3.4032   21.2053 O   0  0  0  0  0  0  0  0  0  0  0  0
    1.4797   -8.6258   16.2950 C   0  0  0  0  0  0  0  0  0  0  0  0
    9.2861   -1.2743   25.3585 C   0  0  0  0  0  0  0  0  0  0  0  0
    1.8892  -10.3985   17.7511 N   0  0  0  0  0  0  0  0  0  0  0  0
    9.6210   -0.6952   24.0976 C   0  0  0  0  0  0  0  0  0  0  0  0
    7.0792   -9.0217   17.1429 C   0  0  0  0  0  0  0  0  0  0  0  0
    3.1713  -10.1816   17.6634 C   0  0  0  0  0  0  0  0  0  0  0  0
    2.7878   -8.3822   16.2137 C   0  0  0  0  0  0  0  0  0  0  0  0
    9.4601   -2.6590   25.6528 C   0  0  0  0  0  0  0  0  0  0  0  0
   10.1182   -1.5672   23.1165 C   0  0  0  0  0  0  0  0  0  0  0  0
    1.0552   -9.6360   17.0650 C   0  0  0  0  0  0  0  0  0  0  0  0
    3.6519   -9.1783   16.9039 C   0  0  0  0  0  0  0  0  0  0  0  0
    7.8675   -7.0096   15.9415 C   0  0  0  0  0  0  0  0  0  0  0  0
    5.9733   -9.6553   17.3832 N   0  0  0  0  0  0  0  0  0  0  0  0
   10.2411   -2.9363   23.4301 C   0  0  0  0  0  0  0  0  0  0  0  0
   10.7288   -3.8197   19.9525 C   0  0  0  0  0  0  0  0  0  0  0  0
   10.1189   -5.0054   19.6987 C   0  0  0  0  0  0  0  0  0  0  0  0
  1  3  4  0
  1  7  4  0
  2 21  4  0
  2 27  4  0
  3  9  4  0
  3 10  4  0
  4  8  4  0
  4 18  4  0
  4 25  1  0
  5  9  4  0
  5 12  4  0
  6 13  1  0
  6 27  1  0
  7 28  4  0
  8 11  4  0
  9 29  4  0
 10 12  4  0
 11 24  1  0
 11 26  4  0
 12 25  1  0
 13 28  1  0
 14 20  4  0
 14 23  4  0
 15 17  4  0
 15 21  4  0
 16 19  4  0
 16 23  4  0
 17 22  4  0
 18 26  4  0
 19 24  4  0
 20 24  4  0
 22 27  4  0
 28 29  4  0
M  END
$$$$

 Created by Python create_sdf_string function

 29 33  0  0  0  0  0  0  0  0999 V2000
   10.7215   -3.3326   17.6437 C   0  0  0  0  0  0  0  0  0  0  0  0
    9.9489   -3.4675   24.6487 N   0  0  0  0  0  0  0  0  0  0  0  0
   10.0172   -4.4740   17.4101 C   0  0  0  0  0  0  0  0  0  0  0  0
    6.9051   -7.9575   16.4222 C   0  0  0  0  0  0  0  0  0  0  0  0
    8.9969   -6.3552   17.9668 N   0  0  0  0  0  0  0  0  0  0  0  0
   10.6702   -3.9051   22.4070 C   0  0  0  0  0  0  0  0  0  0  0  0
   11.0625   -3.0028   18.8894 C   0  0  0  0  0  0  0  0  0  0  0  0
    5.6180   -7.9194   16.1754 O   0  0  0  0  0  0  0  0  0  0  0  0
    9.7259   -5.3080   18.4485 C   0  0  0  0  0  0  0  0  0  0  0  0
    9.4578   -5.0200   16.3036 N   0  0  0  0  0  0  0  0  0  0  0  0
    5.0287   -8.9365   16.8223 C   0  0  0  0  0  0  0  0  0  0  0  0
    8.7742   -6.1498   16.6764 C   0  0  0  0  0  0  0  0  0  0  0  0
   10.9418   -3.4032   21.2053 O   0  0  0  0  0  0  0  0  0  0  0  0
    1.4797   -8.6258   16.2950 C   0  0  0  0  0  0  0  0  0  0  0  0
    9.2861   -1.2743   25.3585 C   0  0  0  0  0  0  0  0  0  0  0  0
    1.8892  -10.3985   17.7511 N   0  0  0  0  0  0  0  0  0  0  0  0
    9.6210   -0.6952   24.0976 C   0  0  0  0  0  0  0  0  0  0  0  0
    7.0792   -9.0217   17.1429 C   0  0  0  0  0  0  0  0  0  0  0  0
    3.1713  -10.1816   17.6634 C   0  0  0  0  0  0  0  0  0  0  0  0
    2.7878   -8.3822   16.2137 C   0  0  0  0  0  0  0  0  0  0  0  0
    9.4601   -2.6590   25.6528 C   0  0  0  0  0  0  0  0  0  0  0  0
   10.1182   -1.5672   23.1165 C   0  0  0  0  0  0  0  0  0  0  0  0
    1.0552   -9.6360   17.0650 C   0  0  0  0  0  0  0  0  0  0  0  0
    3.6519   -9.1783   16.9039 C   0  0  0  0  0  0  0  0  0  0  0  0
    7.8675   -7.0096   15.9415 C   0  0  0  0  0  0  0  0  0  0  0  0
    5.9733   -9.6553   17.3832 N   0  0  0  0  0  0  0  0  0  0  0  0
   10.2411   -2.9363   23.4301 C   0  0  0  0  0  0  0  0  0  0  0  0
   10.7288   -3.8197   19.9525 C   0  0  0  0  0  0  0  0  0  0  0  0
   10.1189   -5.0054   19.6987 C   0  0  0  0  0  0  0  0  0  0  0  0
  1  3  4  0
  1  7  4  0
  2 21  4  0
  2 27  4  0
  3  9  4  0
  3 10  4  0
  4  8  4  0
  4 18  4  0
  4 25  1  0
  5  9  4  0
  5 12  4  0
  6 13  1  0
  6 27  1  0
  7 28  4  0
  8 11  4  0
  9 29  4  0
 10 12  4  0
 11 24  1  0
 11 26  4  0
 12 25  1  0
 13 28  1  0
 14 20  4  0
 14 23  4  0
 15 17  4  0
 15 21  4  0
 16 19  4  0
 16 23  4  0
 17 22  4  0
 18 26  4  0
 19 24  4  0
 20 24  4  0
 22 27  4  0
 28 29  4  0
M  END
$$$$

 Created by Python create_sdf_string function

 29 33  0  0  0  0  0  0  0  0999 V2000
   10.7215   -3.3326   17.6437 C   0  0  0  0  0  0  0  0  0  0  0  0
    9.9489   -3.4675   24.6487 N   0  0  0  0  0  0  0  0  0  0  0  0
   10.0172   -4.4740   17.4101 C   0  0  0  0  0  0  0  0  0  0  0  0
    6.9051   -7.9575   16.4222 C   0  0  0  0  0  0  0  0  0  0  0  0
    8.9969   -6.3552   17.9668 N   0  0  0  0  0  0  0  0  0  0  0  0
   10.6702   -3.9051   22.4070 C   0  0  0  0  0  0  0  0  0  0  0  0
   11.0625   -3.0028   18.8894 C   0  0  0  0  0  0  0  0  0  0  0  0
    5.6180   -7.9194   16.1754 O   0  0  0  0  0  0  0  0  0  0  0  0
    9.7259   -5.3080   18.4485 C   0  0  0  0  0  0  0  0  0  0  0  0
    9.4578   -5.0200   16.3036 N   0  0  0  0  0  0  0  0  0  0  0  0
    5.0287   -8.9365   16.8223 C   0  0  0  0  0  0  0  0  0  0  0  0
    8.7742   -6.1498   16.6764 C   0  0  0  0  0  0  0  0  0  0  0  0
   10.9418   -3.4032   21.2053 O   0  0  0  0  0  0  0  0  0  0  0  0
    1.4797   -8.6258   16.2950 C   0  0  0  0  0  0  0  0  0  0  0  0
    9.2861   -1.2743   25.3585 C   0  0  0  0  0  0  0  0  0  0  0  0
    1.8892  -10.3985   17.7511 N   0  0  0  0  0  0  0  0  0  0  0  0
    9.6210   -0.6952   24.0976 C   0  0  0  0  0  0  0  0  0  0  0  0
    7.0792   -9.0217   17.1429 C   0  0  0  0  0  0  0  0  0  0  0  0
    3.1713  -10.1816   17.6634 C   0  0  0  0  0  0  0  0  0  0  0  0
    2.7878   -8.3822   16.2137 C   0  0  0  0  0  0  0  0  0  0  0  0
    9.4601   -2.6590   25.6528 C   0  0  0  0  0  0  0  0  0  0  0  0
   10.1182   -1.5672   23.1165 C   0  0  0  0  0  0  0  0  0  0  0  0
    1.0552   -9.6360   17.0650 C   0  0  0  0  0  0  0  0  0  0  0  0
    3.6519   -9.1783   16.9039 C   0  0  0  0  0  0  0  0  0  0  0  0
    7.8675   -7.0096   15.9415 C   0  0  0  0  0  0  0  0  0  0  0  0
    5.9733   -9.6553   17.3832 N   0  0  0  0  0  0  0  0  0  0  0  0
   10.2411   -2.9363   23.4301 C   0  0  0  0  0  0  0  0  0  0  0  0
   10.7288   -3.8197   19.9525 C   0  0  0  0  0  0  0  0  0  0  0  0
   10.1189   -5.0054   19.6987 C   0  0  0  0  0  0  0  0  0  0  0  0
  1  3  4  0
  1  7  4  0
  2 21  4  0
  2 27  4  0
  3  9  4  0
  3 10  4  0
  4  8  4  0
  4 18  4  0
  4 25  1  0
  5  9  4  0
  5 12  4  0
  6 13  1  0
  6 27  1  0
  7 28  4  0
  8 11  4  0
  9 29  4  0
 10 12  4  0
 11 24  1  0
 11 26  4  0
 12 25  1  0
 13 28  1  0
 14 20  4  0
 14 23  4  0
 15 17  4  0
 15 21  4  0
 16 19  4  0
 16 23  4  0
 17 22  4  0
 18 26  4  0
 19 24  4  0
 20 24  4  0
 22 27  4  0
 28 29  4  0
M  END
$$$$

 Created by Python create_sdf_string function

 29 33  0  0  0  0  0  0  0  0999 V2000
   10.7215   -3.3326   17.6437 C   0  0  0  0  0  0  0  0  0  0  0  0
    9.9489   -3.4675   24.6487 N   0  0  0  0  0  0  0  0  0  0  0  0
   10.0172   -4.4740   17.4101 C   0  0  0  0  0  0  0  0  0  0  0  0
    6.9051   -7.9575   16.4222 C   0  0  0  0  0  0  0  0  0  0  0  0
    8.9969   -6.3552   17.9668 N   0  0  0  0  0  0  0  0  0  0  0  0
   10.6702   -3.9051   22.4070 C   0  0  0  0  0  0  0  0  0  0  0  0
   11.0625   -3.0028   18.8894 C   0  0  0  0  0  0  0  0  0  0  0  0
    5.6180   -7.9194   16.1754 O   0  0  0  0  0  0  0  0  0  0  0  0
    9.7259   -5.3080   18.4485 C   0  0  0  0  0  0  0  0  0  0  0  0
    9.4578   -5.0200   16.3036 N   0  0  0  0  0  0  0  0  0  0  0  0
    5.0287   -8.9365   16.8223 C   0  0  0  0  0  0  0  0  0  0  0  0
    8.7742   -6.1498   16.6764 C   0  0  0  0  0  0  0  0  0  0  0  0
   10.9418   -3.4032   21.2053 O   0  0  0  0  0  0  0  0  0  0  0  0
    1.4797   -8.6258   16.2950 C   0  0  0  0  0  0  0  0  0  0  0  0
    9.2861   -1.2743   25.3585 C   0  0  0  0  0  0  0  0  0  0  0  0
    1.8892  -10.3985   17.7511 N   0  0  0  0  0  0  0  0  0  0  0  0
    9.6210   -0.6952   24.0976 C   0  0  0  0  0  0  0  0  0  0  0  0
    7.0792   -9.0217   17.1429 C   0  0  0  0  0  0  0  0  0  0  0  0
    3.1713  -10.1816   17.6634 C   0  0  0  0  0  0  0  0  0  0  0  0
    2.7878   -8.3822   16.2137 C   0  0  0  0  0  0  0  0  0  0  0  0
    9.4601   -2.6590   25.6528 C   0  0  0  0  0  0  0  0  0  0  0  0
   10.1182   -1.5672   23.1165 C   0  0  0  0  0  0  0  0  0  0  0  0
    1.0552   -9.6360   17.0650 C   0  0  0  0  0  0  0  0  0  0  0  0
    3.6519   -9.1783   16.9039 C   0  0  0  0  0  0  0  0  0  0  0  0
    7.8675   -7.0096   15.9415 C   0  0  0  0  0  0  0  0  0  0  0  0
    5.9733   -9.6553   17.3832 N   0  0  0  0  0  0  0  0  0  0  0  0
   10.2411   -2.9363   23.4301 C   0  0  0  0  0  0  0  0  0  0  0  0
   10.7288   -3.8197   19.9525 C   0  0  0  0  0  0  0  0  0  0  0  0
   10.1189   -5.0054   19.6987 C   0  0  0  0  0  0  0  0  0  0  0  0
  1  3  4  0
  1  7  4  0
  2 21  4  0
  2 27  4  0
  3  9  4  0
  3 10  4  0
  4  8  4  0
  4 18  4  0
  4 25  1  0
  5  9  4  0
  5 12  4  0
  6 13  1  0
  6 27  1  0
  7 28  4  0
  8 11  4  0
  9 29  4  0
 10 12  4  0
 11 24  1  0
 11 26  4  0
 12 25  1  0
 13 28  1  0
 14 20  4  0
 14 23  4  0
 15 17  4  0
 15 21  4  0
 16 19  4  0
 16 23  4  0
 17 22  4  0
 18 26  4  0
 19 24  4  0
 20 24  4  0
 22 27  4  0
 28 29  4  0
M  END
$$$$

 Created by Python create_sdf_string function

 29 33  0  0  0  0  0  0  0  0999 V2000
   10.7215   -3.3326   17.6437 C   0  0  0  0  0  0  0  0  0  0  0  0
    9.9489   -3.4675   24.6487 N   0  0  0  0  0  0  0  0  0  0  0  0
   10.0172   -4.4740   17.4101 C   0  0  0  0  0  0  0  0  0  0  0  0
    6.9051   -7.9575   16.4222 C   0  0  0  0  0  0  0  0  0  0  0  0
    8.9969   -6.3552   17.9668 N   0  0  0  0  0  0  0  0  0  0  0  0
   10.6702   -3.9051   22.4070 C   0  0  0  0  0  0  0  0  0  0  0  0
   11.0625   -3.0028   18.8894 C   0  0  0  0  0  0  0  0  0  0  0  0
    5.6180   -7.9194   16.1754 O   0  0  0  0  0  0  0  0  0  0  0  0
    9.7259   -5.3080   18.4485 C   0  0  0  0  0  0  0  0  0  0  0  0
    9.4578   -5.0200   16.3036 N   0  0  0  0  0  0  0  0  0  0  0  0
    5.0287   -8.9365   16.8223 C   0  0  0  0  0  0  0  0  0  0  0  0
    8.7742   -6.1498   16.6764 C   0  0  0  0  0  0  0  0  0  0  0  0
   10.9418   -3.4032   21.2053 O   0  0  0  0  0  0  0  0  0  0  0  0
    1.4797   -8.6258   16.2950 C   0  0  0  0  0  0  0  0  0  0  0  0
    9.2861   -1.2743   25.3585 C   0  0  0  0  0  0  0  0  0  0  0  0
    1.8892  -10.3985   17.7511 N   0  0  0  0  0  0  0  0  0  0  0  0
    9.6210   -0.6952   24.0976 C   0  0  0  0  0  0  0  0  0  0  0  0
    7.0792   -9.0217   17.1429 C   0  0  0  0  0  0  0  0  0  0  0  0
    3.1713  -10.1816   17.6634 C   0  0  0  0  0  0  0  0  0  0  0  0
    2.7878   -8.3822   16.2137 C   0  0  0  0  0  0  0  0  0  0  0  0
    9.4601   -2.6590   25.6528 C   0  0  0  0  0  0  0  0  0  0  0  0
   10.1182   -1.5672   23.1165 C   0  0  0  0  0  0  0  0  0  0  0  0
    1.0552   -9.6360   17.0650 C   0  0  0  0  0  0  0  0  0  0  0  0
    3.6519   -9.1783   16.9039 C   0  0  0  0  0  0  0  0  0  0  0  0
    7.8675   -7.0096   15.9415 C   0  0  0  0  0  0  0  0  0  0  0  0
    5.9733   -9.6553   17.3832 N   0  0  0  0  0  0  0  0  0  0  0  0
   10.2411   -2.9363   23.4301 C   0  0  0  0  0  0  0  0  0  0  0  0
   10.7288   -3.8197   19.9525 C   0  0  0  0  0  0  0  0  0  0  0  0
   10.1189   -5.0054   19.6987 C   0  0  0  0  0  0  0  0  0  0  0  0
  1  3  4  0
  1  7  4  0
  2 21  4  0
  2 27  4  0
  3  9  4  0
  3 10  4  0
  4  8  4  0
  4 18  4  0
  4 25  1  0
  5  9  4  0
  5 12  4  0
  6 13  1  0
  6 27  1  0
  7 28  4  0
  8 11  4  0
  9 29  4  0
 10 12  4  0
 11 24  1  0
 11 26  4  0
 12 25  1  0
 13 28  1  0
 14 20  4  0
 14 23  4  0
 15 17  4  0
 15 21  4  0
 16 19  4  0
 16 23  4  0
 17 22  4  0
 18 26  4  0
 19 24  4  0
 20 24  4  0
 22 27  4  0
 28 29  4  0
M  END
$$$$

 Created by Python create_sdf_string function

 29 33  0  0  0  0  0  0  0  0999 V2000
   10.7215   -3.3326   17.6437 C   0  0  0  0  0  0  0  0  0  0  0  0
    9.9489   -3.4675   24.6487 N   0  0  0  0  0  0  0  0  0  0  0  0
   10.0172   -4.4740   17.4101 C   0  0  0  0  0  0  0  0  0  0  0  0
    6.9051   -7.9575   16.4222 C   0  0  0  0  0  0  0  0  0  0  0  0
    8.9969   -6.3552   17.9668 N   0  0  0  0  0  0  0  0  0  0  0  0
   10.6702   -3.9051   22.4070 C   0  0  0  0  0  0  0  0  0  0  0  0
   11.0625   -3.0028   18.8894 C   0  0  0  0  0  0  0  0  0  0  0  0
    5.6180   -7.9194   16.1754 O   0  0  0  0  0  0  0  0  0  0  0  0
    9.7259   -5.3080   18.4485 C   0  0  0  0  0  0  0  0  0  0  0  0
    9.4578   -5.0200   16.3036 N   0  0  0  0  0  0  0  0  0  0  0  0
    5.0287   -8.9365   16.8223 C   0  0  0  0  0  0  0  0  0  0  0  0
    8.7742   -6.1498   16.6764 C   0  0  0  0  0  0  0  0  0  0  0  0
   10.9418   -3.4032   21.2053 O   0  0  0  0  0  0  0  0  0  0  0  0
    1.4797   -8.6258   16.2950 C   0  0  0  0  0  0  0  0  0  0  0  0
    9.2861   -1.2743   25.3585 C   0  0  0  0  0  0  0  0  0  0  0  0
    1.8892  -10.3985   17.7511 N   0  0  0  0  0  0  0  0  0  0  0  0
    9.6210   -0.6952   24.0976 C   0  0  0  0  0  0  0  0  0  0  0  0
    7.0792   -9.0217   17.1429 C   0  0  0  0  0  0  0  0  0  0  0  0
    3.1713  -10.1816   17.6634 C   0  0  0  0  0  0  0  0  0  0  0  0
    2.7878   -8.3822   16.2137 C   0  0  0  0  0  0  0  0  0  0  0  0
    9.4601   -2.6590   25.6528 C   0  0  0  0  0  0  0  0  0  0  0  0
   10.1182   -1.5672   23.1165 C   0  0  0  0  0  0  0  0  0  0  0  0
    1.0552   -9.6360   17.0650 C   0  0  0  0  0  0  0  0  0  0  0  0
    3.6519   -9.1783   16.9039 C   0  0  0  0  0  0  0  0  0  0  0  0
    7.8675   -7.0096   15.9415 C   0  0  0  0  0  0  0  0  0  0  0  0
    5.9733   -9.6553   17.3832 N   0  0  0  0  0  0  0  0  0  0  0  0
   10.2411   -2.9363   23.4301 C   0  0  0  0  0  0  0  0  0  0  0  0
   10.7288   -3.8197   19.9525 C   0  0  0  0  0  0  0  0  0  0  0  0
   10.1189   -5.0054   19.6987 C   0  0  0  0  0  0  0  0  0  0  0  0
  1  3  4  0
  1  7  4  0
  2 21  4  0
  2 27  4  0
  3  9  4  0
  3 10  4  0
  4  8  4  0
  4 18  4  0
  4 25  1  0
  5  9  4  0
  5 12  4  0
  6 13  1  0
  6 27  1  0
  7 28  4  0
  8 11  4  0
  9 29  4  0
 10 12  4  0
 11 24  1  0
 11 26  4  0
 12 25  1  0
 13 28  1  0
 14 20  4  0
 14 23  4  0
 15 17  4  0
 15 21  4  0
 16 19  4  0
 16 23  4  0
 17 22  4  0
 18 26  4  0
 19 24  4  0
 20 24  4  0
 22 27  4  0
 28 29  4  0
M  END
$$$$

 Created by Python create_sdf_string function

 29 33  0  0  0  0  0  0  0  0999 V2000
   10.7215   -3.3326   17.6437 C   0  0  0  0  0  0  0  0  0  0  0  0
    9.9489   -3.4675   24.6487 N   0  0  0  0  0  0  0  0  0  0  0  0
   10.0172   -4.4740   17.4101 C   0  0  0  0  0  0  0  0  0  0  0  0
    6.9051   -7.9575   16.4222 C   0  0  0  0  0  0  0  0  0  0  0  0
    8.9969   -6.3552   17.9668 N   0  0  0  0  0  0  0  0  0  0  0  0
   10.6702   -3.9051   22.4070 C   0  0  0  0  0  0  0  0  0  0  0  0
   11.0625   -3.0028   18.8894 C   0  0  0  0  0  0  0  0  0  0  0  0
    5.6180   -7.9194   16.1754 O   0  0  0  0  0  0  0  0  0  0  0  0
    9.7259   -5.3080   18.4485 C   0  0  0  0  0  0  0  0  0  0  0  0
    9.4578   -5.0200   16.3036 N   0  0  0  0  0  0  0  0  0  0  0  0
    5.0287   -8.9365   16.8223 C   0  0  0  0  0  0  0  0  0  0  0  0
    8.7742   -6.1498   16.6764 C   0  0  0  0  0  0  0  0  0  0  0  0
   10.9418   -3.4032   21.2053 O   0  0  0  0  0  0  0  0  0  0  0  0
    1.4797   -8.6258   16.2950 C   0  0  0  0  0  0  0  0  0  0  0  0
    9.2861   -1.2743   25.3585 C   0  0  0  0  0  0  0  0  0  0  0  0
    1.8892  -10.3985   17.7511 N   0  0  0  0  0  0  0  0  0  0  0  0
    9.6210   -0.6952   24.0976 C   0  0  0  0  0  0  0  0  0  0  0  0
    7.0792   -9.0217   17.1429 C   0  0  0  0  0  0  0  0  0  0  0  0
    3.1713  -10.1816   17.6634 C   0  0  0  0  0  0  0  0  0  0  0  0
    2.7878   -8.3822   16.2137 C   0  0  0  0  0  0  0  0  0  0  0  0
    9.4601   -2.6590   25.6528 C   0  0  0  0  0  0  0  0  0  0  0  0
   10.1182   -1.5672   23.1165 C   0  0  0  0  0  0  0  0  0  0  0  0
    1.0552   -9.6360   17.0650 C   0  0  0  0  0  0  0  0  0  0  0  0
    3.6519   -9.1783   16.9039 C   0  0  0  0  0  0  0  0  0  0  0  0
    7.8675   -7.0096   15.9415 C   0  0  0  0  0  0  0  0  0  0  0  0
    5.9733   -9.6553   17.3832 N   0  0  0  0  0  0  0  0  0  0  0  0
   10.2411   -2.9363   23.4301 C   0  0  0  0  0  0  0  0  0  0  0  0
   10.7288   -3.8197   19.9525 C   0  0  0  0  0  0  0  0  0  0  0  0
   10.1189   -5.0054   19.6987 C   0  0  0  0  0  0  0  0  0  0  0  0
  1  3  4  0
  1  7  4  0
  2 21  4  0
  2 27  4  0
  3  9  4  0
  3 10  4  0
  4  8  4  0
  4 18  4  0
  4 25  1  0
  5  9  4  0
  5 12  4  0
  6 13  1  0
  6 27  1  0
  7 28  4  0
  8 11  4  0
  9 29  4  0
 10 12  4  0
 11 24  1  0
 11 26  4  0
 12 25  1  0
 13 28  1  0
 14 20  4  0
 14 23  4  0
 15 17  4  0
 15 21  4  0
 16 19  4  0
 16 23  4  0
 17 22  4  0
 18 26  4  0
 19 24  4  0
 20 24  4  0
 22 27  4  0
 28 29  4  0
M  END
$$$$

 Created by Python create_sdf_string function

 29 33  0  0  0  0  0  0  0  0999 V2000
   10.7215   -3.3326   17.6437 C   0  0  0  0  0  0  0  0  0  0  0  0
    9.9489   -3.4675   24.6487 N   0  0  0  0  0  0  0  0  0  0  0  0
   10.0172   -4.4740   17.4101 C   0  0  0  0  0  0  0  0  0  0  0  0
    6.9051   -7.9575   16.4222 C   0  0  0  0  0  0  0  0  0  0  0  0
    8.9969   -6.3552   17.9668 N   0  0  0  0  0  0  0  0  0  0  0  0
   10.6702   -3.9051   22.4070 C   0  0  0  0  0  0  0  0  0  0  0  0
   11.0625   -3.0028   18.8894 C   0  0  0  0  0  0  0  0  0  0  0  0
    5.6180   -7.9194   16.1754 O   0  0  0  0  0  0  0  0  0  0  0  0
    9.7259   -5.3080   18.4485 C   0  0  0  0  0  0  0  0  0  0  0  0
    9.4578   -5.0200   16.3036 N   0  0  0  0  0  0  0  0  0  0  0  0
    5.0287   -8.9365   16.8223 C   0  0  0  0  0  0  0  0  0  0  0  0
    8.7742   -6.1498   16.6764 C   0  0  0  0  0  0  0  0  0  0  0  0
   10.9418   -3.4032   21.2053 O   0  0  0  0  0  0  0  0  0  0  0  0
    1.4797   -8.6258   16.2950 C   0  0  0  0  0  0  0  0  0  0  0  0
    9.2861   -1.2743   25.3585 C   0  0  0  0  0  0  0  0  0  0  0  0
    1.8892  -10.3985   17.7511 N   0  0  0  0  0  0  0  0  0  0  0  0
    9.6210   -0.6952   24.0976 C   0  0  0  0  0  0  0  0  0  0  0  0
    7.0792   -9.0217   17.1429 C   0  0  0  0  0  0  0  0  0  0  0  0
    3.1713  -10.1816   17.6634 C   0  0  0  0  0  0  0  0  0  0  0  0
    2.7878   -8.3822   16.2137 C   0  0  0  0  0  0  0  0  0  0  0  0
    9.4601   -2.6590   25.6528 C   0  0  0  0  0  0  0  0  0  0  0  0
   10.1182   -1.5672   23.1165 C   0  0  0  0  0  0  0  0  0  0  0  0
    1.0552   -9.6360   17.0650 C   0  0  0  0  0  0  0  0  0  0  0  0
    3.6519   -9.1783   16.9039 C   0  0  0  0  0  0  0  0  0  0  0  0
    7.8675   -7.0096   15.9415 C   0  0  0  0  0  0  0  0  0  0  0  0
    5.9733   -9.6553   17.3832 N   0  0  0  0  0  0  0  0  0  0  0  0
   10.2411   -2.9363   23.4301 C   0  0  0  0  0  0  0  0  0  0  0  0
   10.7288   -3.8197   19.9525 C   0  0  0  0  0  0  0  0  0  0  0  0
   10.1189   -5.0054   19.6987 C   0  0  0  0  0  0  0  0  0  0  0  0
  1  3  4  0
  1  7  4  0
  2 21  4  0
  2 27  4  0
  3  9  4  0
  3 10  4  0
  4  8  4  0
  4 18  4  0
  4 25  1  0
  5  9  4  0
  5 12  4  0
  6 13  1  0
  6 27  1  0
  7 28  4  0
  8 11  4  0
  9 29  4  0
 10 12  4  0
 11 24  1  0
 11 26  4  0
 12 25  1  0
 13 28  1  0
 14 20  4  0
 14 23  4  0
 15 17  4  0
 15 21  4  0
 16 19  4  0
 16 23  4  0
 17 22  4  0
 18 26  4  0
 19 24  4  0
 20 24  4  0
 22 27  4  0
 28 29  4  0
M  END
$$$$

 Created by Python create_sdf_string function

 29 33  0  0  0  0  0  0  0  0999 V2000
   10.7215   -3.3326   17.6437 C   0  0  0  0  0  0  0  0  0  0  0  0
    9.9489   -3.4675   24.6487 N   0  0  0  0  0  0  0  0  0  0  0  0
   10.0172   -4.4740   17.4101 C   0  0  0  0  0  0  0  0  0  0  0  0
    6.9051   -7.9575   16.4222 C   0  0  0  0  0  0  0  0  0  0  0  0
    8.9969   -6.3552   17.9668 N   0  0  0  0  0  0  0  0  0  0  0  0
   10.6702   -3.9051   22.4070 C   0  0  0  0  0  0  0  0  0  0  0  0
   11.0625   -3.0028   18.8894 C   0  0  0  0  0  0  0  0  0  0  0  0
    5.6180   -7.9194   16.1754 O   0  0  0  0  0  0  0  0  0  0  0  0
    9.7259   -5.3080   18.4485 C   0  0  0  0  0  0  0  0  0  0  0  0
    9.4578   -5.0200   16.3036 N   0  0  0  0  0  0  0  0  0  0  0  0
    5.0287   -8.9365   16.8223 C   0  0  0  0  0  0  0  0  0  0  0  0
    8.7742   -6.1498   16.6764 C   0  0  0  0  0  0  0  0  0  0  0  0
   10.9418   -3.4032   21.2053 O   0  0  0  0  0  0  0  0  0  0  0  0
    1.4797   -8.6258   16.2950 C   0  0  0  0  0  0  0  0  0  0  0  0
    9.2861   -1.2743   25.3585 C   0  0  0  0  0  0  0  0  0  0  0  0
    1.8892  -10.3985   17.7511 N   0  0  0  0  0  0  0  0  0  0  0  0
    9.6210   -0.6952   24.0976 C   0  0  0  0  0  0  0  0  0  0  0  0
    7.0792   -9.0217   17.1429 C   0  0  0  0  0  0  0  0  0  0  0  0
    3.1713  -10.1816   17.6634 C   0  0  0  0  0  0  0  0  0  0  0  0
    2.7878   -8.3822   16.2137 C   0  0  0  0  0  0  0  0  0  0  0  0
    9.4601   -2.6590   25.6528 C   0  0  0  0  0  0  0  0  0  0  0  0
   10.1182   -1.5672   23.1165 C   0  0  0  0  0  0  0  0  0  0  0  0
    1.0552   -9.6360   17.0650 C   0  0  0  0  0  0  0  0  0  0  0  0
    3.6519   -9.1783   16.9039 C   0  0  0  0  0  0  0  0  0  0  0  0
    7.8675   -7.0096   15.9415 C   0  0  0  0  0  0  0  0  0  0  0  0
    5.9733   -9.6553   17.3832 N   0  0  0  0  0  0  0  0  0  0  0  0
   10.2411   -2.9363   23.4301 C   0  0  0  0  0  0  0  0  0  0  0  0
   10.7288   -3.8197   19.9525 C   0  0  0  0  0  0  0  0  0  0  0  0
   10.1189   -5.0054   19.6987 C   0  0  0  0  0  0  0  0  0  0  0  0
  1  3  4  0
  1  7  4  0
  2 21  4  0
  2 27  4  0
  3  9  4  0
  3 10  4  0
  4  8  4  0
  4 18  4  0
  4 25  1  0
  5  9  4  0
  5 12  4  0
  6 13  1  0
  6 27  1  0
  7 28  4  0
  8 11  4  0
  9 29  4  0
 10 12  4  0
 11 24  1  0
 11 26  4  0
 12 25  1  0
 13 28  1  0
 14 20  4  0
 14 23  4  0
 15 17  4  0
 15 21  4  0
 16 19  4  0
 16 23  4  0
 17 22  4  0
 18 26  4  0
 19 24  4  0
 20 24  4  0
 22 27  4  0
 28 29  4  0
M  END
$$$$

 Created by Python create_sdf_string function

 29 33  0  0  0  0  0  0  0  0999 V2000
   10.7215   -3.3326   17.6437 C   0  0  0  0  0  0  0  0  0  0  0  0
    9.9489   -3.4675   24.6487 N   0  0  0  0  0  0  0  0  0  0  0  0
   10.0172   -4.4740   17.4101 C   0  0  0  0  0  0  0  0  0  0  0  0
    6.9051   -7.9575   16.4222 C   0  0  0  0  0  0  0  0  0  0  0  0
    8.9969   -6.3552   17.9668 N   0  0  0  0  0  0  0  0  0  0  0  0
   10.6702   -3.9051   22.4070 C   0  0  0  0  0  0  0  0  0  0  0  0
   11.0625   -3.0028   18.8894 C   0  0  0  0  0  0  0  0  0  0  0  0
    5.6180   -7.9194   16.1754 O   0  0  0  0  0  0  0  0  0  0  0  0
    9.7259   -5.3080   18.4485 C   0  0  0  0  0  0  0  0  0  0  0  0
    9.4578   -5.0200   16.3036 N   0  0  0  0  0  0  0  0  0  0  0  0
    5.0287   -8.9365   16.8223 C   0  0  0  0  0  0  0  0  0  0  0  0
    8.7742   -6.1498   16.6764 C   0  0  0  0  0  0  0  0  0  0  0  0
   10.9418   -3.4032   21.2053 O   0  0  0  0  0  0  0  0  0  0  0  0
    1.4797   -8.6258   16.2950 C   0  0  0  0  0  0  0  0  0  0  0  0
    9.2861   -1.2743   25.3585 C   0  0  0  0  0  0  0  0  0  0  0  0
    1.8892  -10.3985   17.7511 N   0  0  0  0  0  0  0  0  0  0  0  0
    9.6210   -0.6952   24.0976 C   0  0  0  0  0  0  0  0  0  0  0  0
    7.0792   -9.0217   17.1429 C   0  0  0  0  0  0  0  0  0  0  0  0
    3.1713  -10.1816   17.6634 C   0  0  0  0  0  0  0  0  0  0  0  0
    2.7878   -8.3822   16.2137 C   0  0  0  0  0  0  0  0  0  0  0  0
    9.4601   -2.6590   25.6528 C   0  0  0  0  0  0  0  0  0  0  0  0
   10.1182   -1.5672   23.1165 C   0  0  0  0  0  0  0  0  0  0  0  0
    1.0552   -9.6360   17.0650 C   0  0  0  0  0  0  0  0  0  0  0  0
    3.6519   -9.1783   16.9039 C   0  0  0  0  0  0  0  0  0  0  0  0
    7.8675   -7.0096   15.9415 C   0  0  0  0  0  0  0  0  0  0  0  0
    5.9733   -9.6553   17.3832 N   0  0  0  0  0  0  0  0  0  0  0  0
   10.2411   -2.9363   23.4301 C   0  0  0  0  0  0  0  0  0  0  0  0
   10.7288   -3.8197   19.9525 C   0  0  0  0  0  0  0  0  0  0  0  0
   10.1189   -5.0054   19.6987 C   0  0  0  0  0  0  0  0  0  0  0  0
  1  3  4  0
  1  7  4  0
  2 21  4  0
  2 27  4  0
  3  9  4  0
  3 10  4  0
  4  8  4  0
  4 18  4  0
  4 25  1  0
  5  9  4  0
  5 12  4  0
  6 13  1  0
  6 27  1  0
  7 28  4  0
  8 11  4  0
  9 29  4  0
 10 12  4  0
 11 24  1  0
 11 26  4  0
 12 25  1  0
 13 28  1  0
 14 20  4  0
 14 23  4  0
 15 17  4  0
 15 21  4  0
 16 19  4  0
 16 23  4  0
 17 22  4  0
 18 26  4  0
 19 24  4  0
 20 24  4  0
 22 27  4  0
 28 29  4  0
M  END
$$$$

 Created by Python create_sdf_string function

 29 33  0  0  0  0  0  0  0  0999 V2000
   10.7215   -3.3326   17.6437 C   0  0  0  0  0  0  0  0  0  0  0  0
    9.9489   -3.4675   24.6487 N   0  0  0  0  0  0  0  0  0  0  0  0
   10.0172   -4.4740   17.4101 C   0  0  0  0  0  0  0  0  0  0  0  0
    6.9051   -7.9575   16.4222 C   0  0  0  0  0  0  0  0  0  0  0  0
    8.9969   -6.3552   17.9668 N   0  0  0  0  0  0  0  0  0  0  0  0
   10.6702   -3.9051   22.4070 C   0  0  0  0  0  0  0  0  0  0  0  0
   11.0625   -3.0028   18.8894 C   0  0  0  0  0  0  0  0  0  0  0  0
    5.6180   -7.9194   16.1754 O   0  0  0  0  0  0  0  0  0  0  0  0
    9.7259   -5.3080   18.4485 C   0  0  0  0  0  0  0  0  0  0  0  0
    9.4578   -5.0200   16.3036 N   0  0  0  0  0  0  0  0  0  0  0  0
    5.0287   -8.9365   16.8223 C   0  0  0  0  0  0  0  0  0  0  0  0
    8.7742   -6.1498   16.6764 C   0  0  0  0  0  0  0  0  0  0  0  0
   10.9418   -3.4032   21.2053 O   0  0  0  0  0  0  0  0  0  0  0  0
    1.4797   -8.6258   16.2950 C   0  0  0  0  0  0  0  0  0  0  0  0
    9.2861   -1.2743   25.3585 C   0  0  0  0  0  0  0  0  0  0  0  0
    1.8892  -10.3985   17.7511 N   0  0  0  0  0  0  0  0  0  0  0  0
    9.6210   -0.6952   24.0976 C   0  0  0  0  0  0  0  0  0  0  0  0
    7.0792   -9.0217   17.1429 C   0  0  0  0  0  0  0  0  0  0  0  0
    3.1713  -10.1816   17.6634 C   0  0  0  0  0  0  0  0  0  0  0  0
    2.7878   -8.3822   16.2137 C   0  0  0  0  0  0  0  0  0  0  0  0
    9.4601   -2.6590   25.6528 C   0  0  0  0  0  0  0  0  0  0  0  0
   10.1182   -1.5672   23.1165 C   0  0  0  0  0  0  0  0  0  0  0  0
    1.0552   -9.6360   17.0650 C   0  0  0  0  0  0  0  0  0  0  0  0
    3.6519   -9.1783   16.9039 C   0  0  0  0  0  0  0  0  0  0  0  0
    7.8675   -7.0096   15.9415 C   0  0  0  0  0  0  0  0  0  0  0  0
    5.9733   -9.6553   17.3832 N   0  0  0  0  0  0  0  0  0  0  0  0
   10.2411   -2.9363   23.4301 C   0  0  0  0  0  0  0  0  0  0  0  0
   10.7288   -3.8197   19.9525 C   0  0  0  0  0  0  0  0  0  0  0  0
   10.1189   -5.0054   19.6987 C   0  0  0  0  0  0  0  0  0  0  0  0
  1  3  4  0
  1  7  4  0
  2 21  4  0
  2 27  4  0
  3  9  4  0
  3 10  4  0
  4  8  4  0
  4 18  4  0
  4 25  1  0
  5  9  4  0
  5 12  4  0
  6 13  1  0
  6 27  1  0
  7 28  4  0
  8 11  4  0
  9 29  4  0
 10 12  4  0
 11 24  1  0
 11 26  4  0
 12 25  1  0
 13 28  1  0
 14 20  4  0
 14 23  4  0
 15 17  4  0
 15 21  4  0
 16 19  4  0
 16 23  4  0
 17 22  4  0
 18 26  4  0
 19 24  4  0
 20 24  4  0
 22 27  4  0
 28 29  4  0
M  END
$$$$

 Created by Python create_sdf_string function

 29 33  0  0  0  0  0  0  0  0999 V2000
   10.7215   -3.3326   17.6437 C   0  0  0  0  0  0  0  0  0  0  0  0
    9.9489   -3.4675   24.6487 N   0  0  0  0  0  0  0  0  0  0  0  0
   10.0172   -4.4740   17.4101 C   0  0  0  0  0  0  0  0  0  0  0  0
    6.9051   -7.9575   16.4222 C   0  0  0  0  0  0  0  0  0  0  0  0
    8.9969   -6.3552   17.9668 N   0  0  0  0  0  0  0  0  0  0  0  0
   10.6702   -3.9051   22.4070 C   0  0  0  0  0  0  0  0  0  0  0  0
   11.0625   -3.0028   18.8894 C   0  0  0  0  0  0  0  0  0  0  0  0
    5.6180   -7.9194   16.1754 O   0  0  0  0  0  0  0  0  0  0  0  0
    9.7259   -5.3080   18.4485 C   0  0  0  0  0  0  0  0  0  0  0  0
    9.4578   -5.0200   16.3036 N   0  0  0  0  0  0  0  0  0  0  0  0
    5.0287   -8.9365   16.8223 C   0  0  0  0  0  0  0  0  0  0  0  0
    8.7742   -6.1498   16.6764 C   0  0  0  0  0  0  0  0  0  0  0  0
   10.9418   -3.4032   21.2053 O   0  0  0  0  0  0  0  0  0  0  0  0
    1.4797   -8.6258   16.2950 C   0  0  0  0  0  0  0  0  0  0  0  0
    9.2861   -1.2743   25.3585 C   0  0  0  0  0  0  0  0  0  0  0  0
    1.8892  -10.3985   17.7511 N   0  0  0  0  0  0  0  0  0  0  0  0
    9.6210   -0.6952   24.0976 C   0  0  0  0  0  0  0  0  0  0  0  0
    7.0792   -9.0217   17.1429 C   0  0  0  0  0  0  0  0  0  0  0  0
    3.1713  -10.1816   17.6634 C   0  0  0  0  0  0  0  0  0  0  0  0
    2.7878   -8.3822   16.2137 C   0  0  0  0  0  0  0  0  0  0  0  0
    9.4601   -2.6590   25.6528 C   0  0  0  0  0  0  0  0  0  0  0  0
   10.1182   -1.5672   23.1165 C   0  0  0  0  0  0  0  0  0  0  0  0
    1.0552   -9.6360   17.0650 C   0  0  0  0  0  0  0  0  0  0  0  0
    3.6519   -9.1783   16.9039 C   0  0  0  0  0  0  0  0  0  0  0  0
    7.8675   -7.0096   15.9415 C   0  0  0  0  0  0  0  0  0  0  0  0
    5.9733   -9.6553   17.3832 N   0  0  0  0  0  0  0  0  0  0  0  0
   10.2411   -2.9363   23.4301 C   0  0  0  0  0  0  0  0  0  0  0  0
   10.7288   -3.8197   19.9525 C   0  0  0  0  0  0  0  0  0  0  0  0
   10.1189   -5.0054   19.6987 C   0  0  0  0  0  0  0  0  0  0  0  0
  1  3  4  0
  1  7  4  0
  2 21  4  0
  2 27  4  0
  3  9  4  0
  3 10  4  0
  4  8  4  0
  4 18  4  0
  4 25  1  0
  5  9  4  0
  5 12  4  0
  6 13  1  0
  6 27  1  0
  7 28  4  0
  8 11  4  0
  9 29  4  0
 10 12  4  0
 11 24  1  0
 11 26  4  0
 12 25  1  0
 13 28  1  0
 14 20  4  0
 14 23  4  0
 15 17  4  0
 15 21  4  0
 16 19  4  0
 16 23  4  0
 17 22  4  0
 18 26  4  0
 19 24  4  0
 20 24  4  0
 22 27  4  0
 28 29  4  0
M  END
$$$$

 Created by Python create_sdf_string function

 29 33  0  0  0  0  0  0  0  0999 V2000
   10.7215   -3.3326   17.6437 C   0  0  0  0  0  0  0  0  0  0  0  0
    9.9489   -3.4675   24.6487 N   0  0  0  0  0  0  0  0  0  0  0  0
   10.0172   -4.4740   17.4101 C   0  0  0  0  0  0  0  0  0  0  0  0
    6.9051   -7.9575   16.4222 C   0  0  0  0  0  0  0  0  0  0  0  0
    8.9969   -6.3552   17.9668 N   0  0  0  0  0  0  0  0  0  0  0  0
   10.6702   -3.9051   22.4070 C   0  0  0  0  0  0  0  0  0  0  0  0
   11.0625   -3.0028   18.8894 C   0  0  0  0  0  0  0  0  0  0  0  0
    5.6180   -7.9194   16.1754 O   0  0  0  0  0  0  0  0  0  0  0  0
    9.7259   -5.3080   18.4485 C   0  0  0  0  0  0  0  0  0  0  0  0
    9.4578   -5.0200   16.3036 N   0  0  0  0  0  0  0  0  0  0  0  0
    5.0287   -8.9365   16.8223 C   0  0  0  0  0  0  0  0  0  0  0  0
    8.7742   -6.1498   16.6764 C   0  0  0  0  0  0  0  0  0  0  0  0
   10.9418   -3.4032   21.2053 O   0  0  0  0  0  0  0  0  0  0  0  0
    1.4797   -8.6258   16.2950 C   0  0  0  0  0  0  0  0  0  0  0  0
    9.2861   -1.2743   25.3585 C   0  0  0  0  0  0  0  0  0  0  0  0
    1.8892  -10.3985   17.7511 N   0  0  0  0  0  0  0  0  0  0  0  0
    9.6210   -0.6952   24.0976 C   0  0  0  0  0  0  0  0  0  0  0  0
    7.0792   -9.0217   17.1429 C   0  0  0  0  0  0  0  0  0  0  0  0
    3.1713  -10.1816   17.6634 C   0  0  0  0  0  0  0  0  0  0  0  0
    2.7878   -8.3822   16.2137 C   0  0  0  0  0  0  0  0  0  0  0  0
    9.4601   -2.6590   25.6528 C   0  0  0  0  0  0  0  0  0  0  0  0
   10.1182   -1.5672   23.1165 C   0  0  0  0  0  0  0  0  0  0  0  0
    1.0552   -9.6360   17.0650 C   0  0  0  0  0  0  0  0  0  0  0  0
    3.6519   -9.1783   16.9039 C   0  0  0  0  0  0  0  0  0  0  0  0
    7.8675   -7.0096   15.9415 C   0  0  0  0  0  0  0  0  0  0  0  0
    5.9733   -9.6553   17.3832 N   0  0  0  0  0  0  0  0  0  0  0  0
   10.2411   -2.9363   23.4301 C   0  0  0  0  0  0  0  0  0  0  0  0
   10.7288   -3.8197   19.9525 C   0  0  0  0  0  0  0  0  0  0  0  0
   10.1189   -5.0054   19.6987 C   0  0  0  0  0  0  0  0  0  0  0  0
  1  3  4  0
  1  7  4  0
  2 21  4  0
  2 27  4  0
  3  9  4  0
  3 10  4  0
  4  8  4  0
  4 18  4  0
  4 25  1  0
  5  9  4  0
  5 12  4  0
  6 13  1  0
  6 27  1  0
  7 28  4  0
  8 11  4  0
  9 29  4  0
 10 12  4  0
 11 24  1  0
 11 26  4  0
 12 25  1  0
 13 28  1  0
 14 20  4  0
 14 23  4  0
 15 17  4  0
 15 21  4  0
 16 19  4  0
 16 23  4  0
 17 22  4  0
 18 26  4  0
 19 24  4  0
 20 24  4  0
 22 27  4  0
 28 29  4  0
M  END
$$$$

 Created by Python create_sdf_string function

 29 33  0  0  0  0  0  0  0  0999 V2000
   10.7215   -3.3326   17.6437 C   0  0  0  0  0  0  0  0  0  0  0  0
    9.9489   -3.4675   24.6487 N   0  0  0  0  0  0  0  0  0  0  0  0
   10.0172   -4.4740   17.4101 C   0  0  0  0  0  0  0  0  0  0  0  0
    6.9051   -7.9575   16.4222 C   0  0  0  0  0  0  0  0  0  0  0  0
    8.9969   -6.3552   17.9668 N   0  0  0  0  0  0  0  0  0  0  0  0
   10.6702   -3.9051   22.4070 C   0  0  0  0  0  0  0  0  0  0  0  0
   11.0625   -3.0028   18.8894 C   0  0  0  0  0  0  0  0  0  0  0  0
    5.6180   -7.9194   16.1754 O   0  0  0  0  0  0  0  0  0  0  0  0
    9.7259   -5.3080   18.4485 C   0  0  0  0  0  0  0  0  0  0  0  0
    9.4578   -5.0200   16.3036 N   0  0  0  0  0  0  0  0  0  0  0  0
    5.0287   -8.9365   16.8223 C   0  0  0  0  0  0  0  0  0  0  0  0
    8.7742   -6.1498   16.6764 C   0  0  0  0  0  0  0  0  0  0  0  0
   10.9418   -3.4032   21.2053 O   0  0  0  0  0  0  0  0  0  0  0  0
    1.4797   -8.6258   16.2950 C   0  0  0  0  0  0  0  0  0  0  0  0
    9.2861   -1.2743   25.3585 C   0  0  0  0  0  0  0  0  0  0  0  0
    1.8892  -10.3985   17.7511 N   0  0  0  0  0  0  0  0  0  0  0  0
    9.6210   -0.6952   24.0976 C   0  0  0  0  0  0  0  0  0  0  0  0
    7.0792   -9.0217   17.1429 C   0  0  0  0  0  0  0  0  0  0  0  0
    3.1713  -10.1816   17.6634 C   0  0  0  0  0  0  0  0  0  0  0  0
    2.7878   -8.3822   16.2137 C   0  0  0  0  0  0  0  0  0  0  0  0
    9.4601   -2.6590   25.6528 C   0  0  0  0  0  0  0  0  0  0  0  0
   10.1182   -1.5672   23.1165 C   0  0  0  0  0  0  0  0  0  0  0  0
    1.0552   -9.6360   17.0650 C   0  0  0  0  0  0  0  0  0  0  0  0
    3.6519   -9.1783   16.9039 C   0  0  0  0  0  0  0  0  0  0  0  0
    7.8675   -7.0096   15.9415 C   0  0  0  0  0  0  0  0  0  0  0  0
    5.9733   -9.6553   17.3832 N   0  0  0  0  0  0  0  0  0  0  0  0
   10.2411   -2.9363   23.4301 C   0  0  0  0  0  0  0  0  0  0  0  0
   10.7288   -3.8197   19.9525 C   0  0  0  0  0  0  0  0  0  0  0  0
   10.1189   -5.0054   19.6987 C   0  0  0  0  0  0  0  0  0  0  0  0
  1  3  4  0
  1  7  4  0
  2 21  4  0
  2 27  4  0
  3  9  4  0
  3 10  4  0
  4  8  4  0
  4 18  4  0
  4 25  1  0
  5  9  4  0
  5 12  4  0
  6 13  1  0
  6 27  1  0
  7 28  4  0
  8 11  4  0
  9 29  4  0
 10 12  4  0
 11 24  1  0
 11 26  4  0
 12 25  1  0
 13 28  1  0
 14 20  4  0
 14 23  4  0
 15 17  4  0
 15 21  4  0
 16 19  4  0
 16 23  4  0
 17 22  4  0
 18 26  4  0
 19 24  4  0
 20 24  4  0
 22 27  4  0
 28 29  4  0
M  END
$$$$

 Created by Python create_sdf_string function

 29 33  0  0  0  0  0  0  0  0999 V2000
   10.7215   -3.3326   17.6437 C   0  0  0  0  0  0  0  0  0  0  0  0
    9.9489   -3.4675   24.6487 N   0  0  0  0  0  0  0  0  0  0  0  0
   10.0172   -4.4740   17.4101 C   0  0  0  0  0  0  0  0  0  0  0  0
    6.9051   -7.9575   16.4222 C   0  0  0  0  0  0  0  0  0  0  0  0
    8.9969   -6.3552   17.9668 N   0  0  0  0  0  0  0  0  0  0  0  0
   10.6702   -3.9051   22.4070 C   0  0  0  0  0  0  0  0  0  0  0  0
   11.0625   -3.0028   18.8894 C   0  0  0  0  0  0  0  0  0  0  0  0
    5.6180   -7.9194   16.1754 O   0  0  0  0  0  0  0  0  0  0  0  0
    9.7259   -5.3080   18.4485 C   0  0  0  0  0  0  0  0  0  0  0  0
    9.4578   -5.0200   16.3036 N   0  0  0  0  0  0  0  0  0  0  0  0
    5.0287   -8.9365   16.8223 C   0  0  0  0  0  0  0  0  0  0  0  0
    8.7742   -6.1498   16.6764 C   0  0  0  0  0  0  0  0  0  0  0  0
   10.9418   -3.4032   21.2053 O   0  0  0  0  0  0  0  0  0  0  0  0
    1.4797   -8.6258   16.2950 C   0  0  0  0  0  0  0  0  0  0  0  0
    9.2861   -1.2743   25.3585 C   0  0  0  0  0  0  0  0  0  0  0  0
    1.8892  -10.3985   17.7511 N   0  0  0  0  0  0  0  0  0  0  0  0
    9.6210   -0.6952   24.0976 C   0  0  0  0  0  0  0  0  0  0  0  0
    7.0792   -9.0217   17.1429 C   0  0  0  0  0  0  0  0  0  0  0  0
    3.1713  -10.1816   17.6634 C   0  0  0  0  0  0  0  0  0  0  0  0
    2.7878   -8.3822   16.2137 C   0  0  0  0  0  0  0  0  0  0  0  0
    9.4601   -2.6590   25.6528 C   0  0  0  0  0  0  0  0  0  0  0  0
   10.1182   -1.5672   23.1165 C   0  0  0  0  0  0  0  0  0  0  0  0
    1.0552   -9.6360   17.0650 C   0  0  0  0  0  0  0  0  0  0  0  0
    3.6519   -9.1783   16.9039 C   0  0  0  0  0  0  0  0  0  0  0  0
    7.8675   -7.0096   15.9415 C   0  0  0  0  0  0  0  0  0  0  0  0
    5.9733   -9.6553   17.3832 N   0  0  0  0  0  0  0  0  0  0  0  0
   10.2411   -2.9363   23.4301 C   0  0  0  0  0  0  0  0  0  0  0  0
   10.7288   -3.8197   19.9525 C   0  0  0  0  0  0  0  0  0  0  0  0
   10.1189   -5.0054   19.6987 C   0  0  0  0  0  0  0  0  0  0  0  0
  1  3  4  0
  1  7  4  0
  2 21  4  0
  2 27  4  0
  3  9  4  0
  3 10  4  0
  4  8  4  0
  4 18  4  0
  4 25  1  0
  5  9  4  0
  5 12  4  0
  6 13  1  0
  6 27  1  0
  7 28  4  0
  8 11  4  0
  9 29  4  0
 10 12  4  0
 11 24  1  0
 11 26  4  0
 12 25  1  0
 13 28  1  0
 14 20  4  0
 14 23  4  0
 15 17  4  0
 15 21  4  0
 16 19  4  0
 16 23  4  0
 17 22  4  0
 18 26  4  0
 19 24  4  0
 20 24  4  0
 22 27  4  0
 28 29  4  0
M  END
$$$$

 Created by Python create_sdf_string function

 29 33  0  0  0  0  0  0  0  0999 V2000
   10.7215   -3.3326   17.6437 C   0  0  0  0  0  0  0  0  0  0  0  0
    9.9489   -3.4675   24.6487 N   0  0  0  0  0  0  0  0  0  0  0  0
   10.0172   -4.4740   17.4101 C   0  0  0  0  0  0  0  0  0  0  0  0
    6.9051   -7.9575   16.4222 C   0  0  0  0  0  0  0  0  0  0  0  0
    8.9969   -6.3552   17.9668 N   0  0  0  0  0  0  0  0  0  0  0  0
   10.6702   -3.9051   22.4070 C   0  0  0  0  0  0  0  0  0  0  0  0
   11.0625   -3.0028   18.8894 C   0  0  0  0  0  0  0  0  0  0  0  0
    5.6180   -7.9194   16.1754 O   0  0  0  0  0  0  0  0  0  0  0  0
    9.7259   -5.3080   18.4485 C   0  0  0  0  0  0  0  0  0  0  0  0
    9.4578   -5.0200   16.3036 N   0  0  0  0  0  0  0  0  0  0  0  0
    5.0287   -8.9365   16.8223 C   0  0  0  0  0  0  0  0  0  0  0  0
    8.7742   -6.1498   16.6764 C   0  0  0  0  0  0  0  0  0  0  0  0
   10.9418   -3.4032   21.2053 O   0  0  0  0  0  0  0  0  0  0  0  0
    1.4797   -8.6258   16.2950 C   0  0  0  0  0  0  0  0  0  0  0  0
    9.2861   -1.2743   25.3585 C   0  0  0  0  0  0  0  0  0  0  0  0
    1.8892  -10.3985   17.7511 N   0  0  0  0  0  0  0  0  0  0  0  0
    9.6210   -0.6952   24.0976 C   0  0  0  0  0  0  0  0  0  0  0  0
    7.0792   -9.0217   17.1429 C   0  0  0  0  0  0  0  0  0  0  0  0
    3.1713  -10.1816   17.6634 C   0  0  0  0  0  0  0  0  0  0  0  0
    2.7878   -8.3822   16.2137 C   0  0  0  0  0  0  0  0  0  0  0  0
    9.4601   -2.6590   25.6528 C   0  0  0  0  0  0  0  0  0  0  0  0
   10.1182   -1.5672   23.1165 C   0  0  0  0  0  0  0  0  0  0  0  0
    1.0552   -9.6360   17.0650 C   0  0  0  0  0  0  0  0  0  0  0  0
    3.6519   -9.1783   16.9039 C   0  0  0  0  0  0  0  0  0  0  0  0
    7.8675   -7.0096   15.9415 C   0  0  0  0  0  0  0  0  0  0  0  0
    5.9733   -9.6553   17.3832 N   0  0  0  0  0  0  0  0  0  0  0  0
   10.2411   -2.9363   23.4301 C   0  0  0  0  0  0  0  0  0  0  0  0
   10.7288   -3.8197   19.9525 C   0  0  0  0  0  0  0  0  0  0  0  0
   10.1189   -5.0054   19.6987 C   0  0  0  0  0  0  0  0  0  0  0  0
  1  3  4  0
  1  7  4  0
  2 21  4  0
  2 27  4  0
  3  9  4  0
  3 10  4  0
  4  8  4  0
  4 18  4  0
  4 25  1  0
  5  9  4  0
  5 12  4  0
  6 13  1  0
  6 27  1  0
  7 28  4  0
  8 11  4  0
  9 29  4  0
 10 12  4  0
 11 24  1  0
 11 26  4  0
 12 25  1  0
 13 28  1  0
 14 20  4  0
 14 23  4  0
 15 17  4  0
 15 21  4  0
 16 19  4  0
 16 23  4  0
 17 22  4  0
 18 26  4  0
 19 24  4  0
 20 24  4  0
 22 27  4  0
 28 29  4  0
M  END
$$$$

 Created by Python create_sdf_string function

 29 33  0  0  0  0  0  0  0  0999 V2000
   10.7215   -3.3326   17.6437 C   0  0  0  0  0  0  0  0  0  0  0  0
    9.9489   -3.4675   24.6487 N   0  0  0  0  0  0  0  0  0  0  0  0
   10.0172   -4.4740   17.4101 C   0  0  0  0  0  0  0  0  0  0  0  0
    6.9051   -7.9575   16.4222 C   0  0  0  0  0  0  0  0  0  0  0  0
    8.9969   -6.3552   17.9668 N   0  0  0  0  0  0  0  0  0  0  0  0
   10.6702   -3.9051   22.4070 C   0  0  0  0  0  0  0  0  0  0  0  0
   11.0625   -3.0028   18.8894 C   0  0  0  0  0  0  0  0  0  0  0  0
    5.6180   -7.9194   16.1754 O   0  0  0  0  0  0  0  0  0  0  0  0
    9.7259   -5.3080   18.4485 C   0  0  0  0  0  0  0  0  0  0  0  0
    9.4578   -5.0200   16.3036 N   0  0  0  0  0  0  0  0  0  0  0  0
    5.0287   -8.9365   16.8223 C   0  0  0  0  0  0  0  0  0  0  0  0
    8.7742   -6.1498   16.6764 C   0  0  0  0  0  0  0  0  0  0  0  0
   10.9418   -3.4032   21.2053 O   0  0  0  0  0  0  0  0  0  0  0  0
    1.4797   -8.6258   16.2950 C   0  0  0  0  0  0  0  0  0  0  0  0
    9.2861   -1.2743   25.3585 C   0  0  0  0  0  0  0  0  0  0  0  0
    1.8892  -10.3985   17.7511 N   0  0  0  0  0  0  0  0  0  0  0  0
    9.6210   -0.6952   24.0976 C   0  0  0  0  0  0  0  0  0  0  0  0
    7.0792   -9.0217   17.1429 C   0  0  0  0  0  0  0  0  0  0  0  0
    3.1713  -10.1816   17.6634 C   0  0  0  0  0  0  0  0  0  0  0  0
    2.7878   -8.3822   16.2137 C   0  0  0  0  0  0  0  0  0  0  0  0
    9.4601   -2.6590   25.6528 C   0  0  0  0  0  0  0  0  0  0  0  0
   10.1182   -1.5672   23.1165 C   0  0  0  0  0  0  0  0  0  0  0  0
    1.0552   -9.6360   17.0650 C   0  0  0  0  0  0  0  0  0  0  0  0
    3.6519   -9.1783   16.9039 C   0  0  0  0  0  0  0  0  0  0  0  0
    7.8675   -7.0096   15.9415 C   0  0  0  0  0  0  0  0  0  0  0  0
    5.9733   -9.6553   17.3832 N   0  0  0  0  0  0  0  0  0  0  0  0
   10.2411   -2.9363   23.4301 C   0  0  0  0  0  0  0  0  0  0  0  0
   10.7288   -3.8197   19.9525 C   0  0  0  0  0  0  0  0  0  0  0  0
   10.1189   -5.0054   19.6987 C   0  0  0  0  0  0  0  0  0  0  0  0
  1  3  4  0
  1  7  4  0
  2 21  4  0
  2 27  4  0
  3  9  4  0
  3 10  4  0
  4  8  4  0
  4 18  4  0
  4 25  1  0
  5  9  4  0
  5 12  4  0
  6 13  1  0
  6 27  1  0
  7 28  4  0
  8 11  4  0
  9 29  4  0
 10 12  4  0
 11 24  1  0
 11 26  4  0
 12 25  1  0
 13 28  1  0
 14 20  4  0
 14 23  4  0
 15 17  4  0
 15 21  4  0
 16 19  4  0
 16 23  4  0
 17 22  4  0
 18 26  4  0
 19 24  4  0
 20 24  4  0
 22 27  4  0
 28 29  4  0
M  END
$$$$

 Created by Python create_sdf_string function

 29 33  0  0  0  0  0  0  0  0999 V2000
   10.7215   -3.3326   17.6437 C   0  0  0  0  0  0  0  0  0  0  0  0
    9.9489   -3.4675   24.6487 N   0  0  0  0  0  0  0  0  0  0  0  0
   10.0172   -4.4740   17.4101 C   0  0  0  0  0  0  0  0  0  0  0  0
    6.9051   -7.9575   16.4222 C   0  0  0  0  0  0  0  0  0  0  0  0
    8.9969   -6.3552   17.9668 N   0  0  0  0  0  0  0  0  0  0  0  0
   10.6702   -3.9051   22.4070 C   0  0  0  0  0  0  0  0  0  0  0  0
   11.0625   -3.0028   18.8894 C   0  0  0  0  0  0  0  0  0  0  0  0
    5.6180   -7.9194   16.1754 O   0  0  0  0  0  0  0  0  0  0  0  0
    9.7259   -5.3080   18.4485 C   0  0  0  0  0  0  0  0  0  0  0  0
    9.4578   -5.0200   16.3036 N   0  0  0  0  0  0  0  0  0  0  0  0
    5.0287   -8.9365   16.8223 C   0  0  0  0  0  0  0  0  0  0  0  0
    8.7742   -6.1498   16.6764 C   0  0  0  0  0  0  0  0  0  0  0  0
   10.9418   -3.4032   21.2053 O   0  0  0  0  0  0  0  0  0  0  0  0
    1.4797   -8.6258   16.2950 C   0  0  0  0  0  0  0  0  0  0  0  0
    9.2861   -1.2743   25.3585 C   0  0  0  0  0  0  0  0  0  0  0  0
    1.8892  -10.3985   17.7511 N   0  0  0  0  0  0  0  0  0  0  0  0
    9.6210   -0.6952   24.0976 C   0  0  0  0  0  0  0  0  0  0  0  0
    7.0792   -9.0217   17.1429 C   0  0  0  0  0  0  0  0  0  0  0  0
    3.1713  -10.1816   17.6634 C   0  0  0  0  0  0  0  0  0  0  0  0
    2.7878   -8.3822   16.2137 C   0  0  0  0  0  0  0  0  0  0  0  0
    9.4601   -2.6590   25.6528 C   0  0  0  0  0  0  0  0  0  0  0  0
   10.1182   -1.5672   23.1165 C   0  0  0  0  0  0  0  0  0  0  0  0
    1.0552   -9.6360   17.0650 C   0  0  0  0  0  0  0  0  0  0  0  0
    3.6519   -9.1783   16.9039 C   0  0  0  0  0  0  0  0  0  0  0  0
    7.8675   -7.0096   15.9415 C   0  0  0  0  0  0  0  0  0  0  0  0
    5.9733   -9.6553   17.3832 N   0  0  0  0  0  0  0  0  0  0  0  0
   10.2411   -2.9363   23.4301 C   0  0  0  0  0  0  0  0  0  0  0  0
   10.7288   -3.8197   19.9525 C   0  0  0  0  0  0  0  0  0  0  0  0
   10.1189   -5.0054   19.6987 C   0  0  0  0  0  0  0  0  0  0  0  0
  1  3  4  0
  1  7  4  0
  2 21  4  0
  2 27  4  0
  3  9  4  0
  3 10  4  0
  4  8  4  0
  4 18  4  0
  4 25  1  0
  5  9  4  0
  5 12  4  0
  6 13  1  0
  6 27  1  0
  7 28  4  0
  8 11  4  0
  9 29  4  0
 10 12  4  0
 11 24  1  0
 11 26  4  0
 12 25  1  0
 13 28  1  0
 14 20  4  0
 14 23  4  0
 15 17  4  0
 15 21  4  0
 16 19  4  0
 16 23  4  0
 17 22  4  0
 18 26  4  0
 19 24  4  0
 20 24  4  0
 22 27  4  0
 28 29  4  0
M  END
$$$$

 Created by Python create_sdf_string function

 29 33  0  0  0  0  0  0  0  0999 V2000
   10.7215   -3.3326   17.6437 C   0  0  0  0  0  0  0  0  0  0  0  0
    9.9489   -3.4675   24.6487 N   0  0  0  0  0  0  0  0  0  0  0  0
   10.0172   -4.4740   17.4101 C   0  0  0  0  0  0  0  0  0  0  0  0
    6.9051   -7.9575   16.4222 C   0  0  0  0  0  0  0  0  0  0  0  0
    8.9969   -6.3552   17.9668 N   0  0  0  0  0  0  0  0  0  0  0  0
   10.6702   -3.9051   22.4070 C   0  0  0  0  0  0  0  0  0  0  0  0
   11.0625   -3.0028   18.8894 C   0  0  0  0  0  0  0  0  0  0  0  0
    5.6180   -7.9194   16.1754 O   0  0  0  0  0  0  0  0  0  0  0  0
    9.7259   -5.3080   18.4485 C   0  0  0  0  0  0  0  0  0  0  0  0
    9.4578   -5.0200   16.3036 N   0  0  0  0  0  0  0  0  0  0  0  0
    5.0287   -8.9365   16.8223 C   0  0  0  0  0  0  0  0  0  0  0  0
    8.7742   -6.1498   16.6764 C   0  0  0  0  0  0  0  0  0  0  0  0
   10.9418   -3.4032   21.2053 O   0  0  0  0  0  0  0  0  0  0  0  0
    1.4797   -8.6258   16.2950 C   0  0  0  0  0  0  0  0  0  0  0  0
    9.2861   -1.2743   25.3585 C   0  0  0  0  0  0  0  0  0  0  0  0
    1.8892  -10.3985   17.7511 N   0  0  0  0  0  0  0  0  0  0  0  0
    9.6210   -0.6952   24.0976 C   0  0  0  0  0  0  0  0  0  0  0  0
    7.0792   -9.0217   17.1429 C   0  0  0  0  0  0  0  0  0  0  0  0
    3.1713  -10.1816   17.6634 C   0  0  0  0  0  0  0  0  0  0  0  0
    2.7878   -8.3822   16.2137 C   0  0  0  0  0  0  0  0  0  0  0  0
    9.4601   -2.6590   25.6528 C   0  0  0  0  0  0  0  0  0  0  0  0
   10.1182   -1.5672   23.1165 C   0  0  0  0  0  0  0  0  0  0  0  0
    1.0552   -9.6360   17.0650 C   0  0  0  0  0  0  0  0  0  0  0  0
    3.6519   -9.1783   16.9039 C   0  0  0  0  0  0  0  0  0  0  0  0
    7.8675   -7.0096   15.9415 C   0  0  0  0  0  0  0  0  0  0  0  0
    5.9733   -9.6553   17.3832 N   0  0  0  0  0  0  0  0  0  0  0  0
   10.2411   -2.9363   23.4301 C   0  0  0  0  0  0  0  0  0  0  0  0
   10.7288   -3.8197   19.9525 C   0  0  0  0  0  0  0  0  0  0  0  0
   10.1189   -5.0054   19.6987 C   0  0  0  0  0  0  0  0  0  0  0  0
  1  3  4  0
  1  7  4  0
  2 21  4  0
  2 27  4  0
  3  9  4  0
  3 10  4  0
  4  8  4  0
  4 18  4  0
  4 25  1  0
  5  9  4  0
  5 12  4  0
  6 13  1  0
  6 27  1  0
  7 28  4  0
  8 11  4  0
  9 29  4  0
 10 12  4  0
 11 24  1  0
 11 26  4  0
 12 25  1  0
 13 28  1  0
 14 20  4  0
 14 23  4  0
 15 17  4  0
 15 21  4  0
 16 19  4  0
 16 23  4  0
 17 22  4  0
 18 26  4  0
 19 24  4  0
 20 24  4  0
 22 27  4  0
 28 29  4  0
M  END
$$$$

 Created by Python create_sdf_string function

 29 33  0  0  0  0  0  0  0  0999 V2000
   10.7215   -3.3326   17.6437 C   0  0  0  0  0  0  0  0  0  0  0  0
    9.9489   -3.4675   24.6487 N   0  0  0  0  0  0  0  0  0  0  0  0
   10.0172   -4.4740   17.4101 C   0  0  0  0  0  0  0  0  0  0  0  0
    6.9051   -7.9575   16.4222 C   0  0  0  0  0  0  0  0  0  0  0  0
    8.9969   -6.3552   17.9668 N   0  0  0  0  0  0  0  0  0  0  0  0
   10.6702   -3.9051   22.4070 C   0  0  0  0  0  0  0  0  0  0  0  0
   11.0625   -3.0028   18.8894 C   0  0  0  0  0  0  0  0  0  0  0  0
    5.6180   -7.9194   16.1754 O   0  0  0  0  0  0  0  0  0  0  0  0
    9.7259   -5.3080   18.4485 C   0  0  0  0  0  0  0  0  0  0  0  0
    9.4578   -5.0200   16.3036 N   0  0  0  0  0  0  0  0  0  0  0  0
    5.0287   -8.9365   16.8223 C   0  0  0  0  0  0  0  0  0  0  0  0
    8.7742   -6.1498   16.6764 C   0  0  0  0  0  0  0  0  0  0  0  0
   10.9418   -3.4032   21.2053 O   0  0  0  0  0  0  0  0  0  0  0  0
    1.4797   -8.6258   16.2950 C   0  0  0  0  0  0  0  0  0  0  0  0
    9.2861   -1.2743   25.3585 C   0  0  0  0  0  0  0  0  0  0  0  0
    1.8892  -10.3985   17.7511 N   0  0  0  0  0  0  0  0  0  0  0  0
    9.6210   -0.6952   24.0976 C   0  0  0  0  0  0  0  0  0  0  0  0
    7.0792   -9.0217   17.1429 C   0  0  0  0  0  0  0  0  0  0  0  0
    3.1713  -10.1816   17.6634 C   0  0  0  0  0  0  0  0  0  0  0  0
    2.7878   -8.3822   16.2137 C   0  0  0  0  0  0  0  0  0  0  0  0
    9.4601   -2.6590   25.6528 C   0  0  0  0  0  0  0  0  0  0  0  0
   10.1182   -1.5672   23.1165 C   0  0  0  0  0  0  0  0  0  0  0  0
    1.0552   -9.6360   17.0650 C   0  0  0  0  0  0  0  0  0  0  0  0
    3.6519   -9.1783   16.9039 C   0  0  0  0  0  0  0  0  0  0  0  0
    7.8675   -7.0096   15.9415 C   0  0  0  0  0  0  0  0  0  0  0  0
    5.9733   -9.6553   17.3832 N   0  0  0  0  0  0  0  0  0  0  0  0
   10.2411   -2.9363   23.4301 C   0  0  0  0  0  0  0  0  0  0  0  0
   10.7288   -3.8197   19.9525 C   0  0  0  0  0  0  0  0  0  0  0  0
   10.1189   -5.0054   19.6987 C   0  0  0  0  0  0  0  0  0  0  0  0
  1  3  4  0
  1  7  4  0
  2 21  4  0
  2 27  4  0
  3  9  4  0
  3 10  4  0
  4  8  4  0
  4 18  4  0
  4 25  1  0
  5  9  4  0
  5 12  4  0
  6 13  1  0
  6 27  1  0
  7 28  4  0
  8 11  4  0
  9 29  4  0
 10 12  4  0
 11 24  1  0
 11 26  4  0
 12 25  1  0
 13 28  1  0
 14 20  4  0
 14 23  4  0
 15 17  4  0
 15 21  4  0
 16 19  4  0
 16 23  4  0
 17 22  4  0
 18 26  4  0
 19 24  4  0
 20 24  4  0
 22 27  4  0
 28 29  4  0
M  END
$$$$

 Created by Python create_sdf_string function

 29 33  0  0  0  0  0  0  0  0999 V2000
   10.7215   -3.3326   17.6437 C   0  0  0  0  0  0  0  0  0  0  0  0
    9.9489   -3.4675   24.6487 N   0  0  0  0  0  0  0  0  0  0  0  0
   10.0172   -4.4740   17.4101 C   0  0  0  0  0  0  0  0  0  0  0  0
    6.9051   -7.9575   16.4222 C   0  0  0  0  0  0  0  0  0  0  0  0
    8.9969   -6.3552   17.9668 N   0  0  0  0  0  0  0  0  0  0  0  0
   10.6702   -3.9051   22.4070 C   0  0  0  0  0  0  0  0  0  0  0  0
   11.0625   -3.0028   18.8894 C   0  0  0  0  0  0  0  0  0  0  0  0
    5.6180   -7.9194   16.1754 O   0  0  0  0  0  0  0  0  0  0  0  0
    9.7259   -5.3080   18.4485 C   0  0  0  0  0  0  0  0  0  0  0  0
    9.4578   -5.0200   16.3036 N   0  0  0  0  0  0  0  0  0  0  0  0
    5.0287   -8.9365   16.8223 C   0  0  0  0  0  0  0  0  0  0  0  0
    8.7742   -6.1498   16.6764 C   0  0  0  0  0  0  0  0  0  0  0  0
   10.9418   -3.4032   21.2053 O   0  0  0  0  0  0  0  0  0  0  0  0
    1.4797   -8.6258   16.2950 C   0  0  0  0  0  0  0  0  0  0  0  0
    9.2861   -1.2743   25.3585 C   0  0  0  0  0  0  0  0  0  0  0  0
    1.8892  -10.3985   17.7511 N   0  0  0  0  0  0  0  0  0  0  0  0
    9.6210   -0.6952   24.0976 C   0  0  0  0  0  0  0  0  0  0  0  0
    7.0792   -9.0217   17.1429 C   0  0  0  0  0  0  0  0  0  0  0  0
    3.1713  -10.1816   17.6634 C   0  0  0  0  0  0  0  0  0  0  0  0
    2.7878   -8.3822   16.2137 C   0  0  0  0  0  0  0  0  0  0  0  0
    9.4601   -2.6590   25.6528 C   0  0  0  0  0  0  0  0  0  0  0  0
   10.1182   -1.5672   23.1165 C   0  0  0  0  0  0  0  0  0  0  0  0
    1.0552   -9.6360   17.0650 C   0  0  0  0  0  0  0  0  0  0  0  0
    3.6519   -9.1783   16.9039 C   0  0  0  0  0  0  0  0  0  0  0  0
    7.8675   -7.0096   15.9415 C   0  0  0  0  0  0  0  0  0  0  0  0
    5.9733   -9.6553   17.3832 N   0  0  0  0  0  0  0  0  0  0  0  0
   10.2411   -2.9363   23.4301 C   0  0  0  0  0  0  0  0  0  0  0  0
   10.7288   -3.8197   19.9525 C   0  0  0  0  0  0  0  0  0  0  0  0
   10.1189   -5.0054   19.6987 C   0  0  0  0  0  0  0  0  0  0  0  0
  1  3  4  0
  1  7  4  0
  2 21  4  0
  2 27  4  0
  3  9  4  0
  3 10  4  0
  4  8  4  0
  4 18  4  0
  4 25  1  0
  5  9  4  0
  5 12  4  0
  6 13  1  0
  6 27  1  0
  7 28  4  0
  8 11  4  0
  9 29  4  0
 10 12  4  0
 11 24  1  0
 11 26  4  0
 12 25  1  0
 13 28  1  0
 14 20  4  0
 14 23  4  0
 15 17  4  0
 15 21  4  0
 16 19  4  0
 16 23  4  0
 17 22  4  0
 18 26  4  0
 19 24  4  0
 20 24  4  0
 22 27  4  0
 28 29  4  0
M  END
$$$$

 Created by Python create_sdf_string function

 29 33  0  0  0  0  0  0  0  0999 V2000
   10.7215   -3.3326   17.6437 C   0  0  0  0  0  0  0  0  0  0  0  0
    9.9489   -3.4675   24.6487 N   0  0  0  0  0  0  0  0  0  0  0  0
   10.0172   -4.4740   17.4101 C   0  0  0  0  0  0  0  0  0  0  0  0
    6.9051   -7.9575   16.4222 C   0  0  0  0  0  0  0  0  0  0  0  0
    8.9969   -6.3552   17.9668 N   0  0  0  0  0  0  0  0  0  0  0  0
   10.6702   -3.9051   22.4070 C   0  0  0  0  0  0  0  0  0  0  0  0
   11.0625   -3.0028   18.8894 C   0  0  0  0  0  0  0  0  0  0  0  0
    5.6180   -7.9194   16.1754 O   0  0  0  0  0  0  0  0  0  0  0  0
    9.7259   -5.3080   18.4485 C   0  0  0  0  0  0  0  0  0  0  0  0
    9.4578   -5.0200   16.3036 N   0  0  0  0  0  0  0  0  0  0  0  0
    5.0287   -8.9365   16.8223 C   0  0  0  0  0  0  0  0  0  0  0  0
    8.7742   -6.1498   16.6764 C   0  0  0  0  0  0  0  0  0  0  0  0
   10.9418   -3.4032   21.2053 O   0  0  0  0  0  0  0  0  0  0  0  0
    1.4797   -8.6258   16.2950 C   0  0  0  0  0  0  0  0  0  0  0  0
    9.2861   -1.2743   25.3585 C   0  0  0  0  0  0  0  0  0  0  0  0
    1.8892  -10.3985   17.7511 N   0  0  0  0  0  0  0  0  0  0  0  0
    9.6210   -0.6952   24.0976 C   0  0  0  0  0  0  0  0  0  0  0  0
    7.0792   -9.0217   17.1429 C   0  0  0  0  0  0  0  0  0  0  0  0
    3.1713  -10.1816   17.6634 C   0  0  0  0  0  0  0  0  0  0  0  0
    2.7878   -8.3822   16.2137 C   0  0  0  0  0  0  0  0  0  0  0  0
    9.4601   -2.6590   25.6528 C   0  0  0  0  0  0  0  0  0  0  0  0
   10.1182   -1.5672   23.1165 C   0  0  0  0  0  0  0  0  0  0  0  0
    1.0552   -9.6360   17.0650 C   0  0  0  0  0  0  0  0  0  0  0  0
    3.6519   -9.1783   16.9039 C   0  0  0  0  0  0  0  0  0  0  0  0
    7.8675   -7.0096   15.9415 C   0  0  0  0  0  0  0  0  0  0  0  0
    5.9733   -9.6553   17.3832 N   0  0  0  0  0  0  0  0  0  0  0  0
   10.2411   -2.9363   23.4301 C   0  0  0  0  0  0  0  0  0  0  0  0
   10.7288   -3.8197   19.9525 C   0  0  0  0  0  0  0  0  0  0  0  0
   10.1189   -5.0054   19.6987 C   0  0  0  0  0  0  0  0  0  0  0  0
  1  3  4  0
  1  7  4  0
  2 21  4  0
  2 27  4  0
  3  9  4  0
  3 10  4  0
  4  8  4  0
  4 18  4  0
  4 25  1  0
  5  9  4  0
  5 12  4  0
  6 13  1  0
  6 27  1  0
  7 28  4  0
  8 11  4  0
  9 29  4  0
 10 12  4  0
 11 24  1  0
 11 26  4  0
 12 25  1  0
 13 28  1  0
 14 20  4  0
 14 23  4  0
 15 17  4  0
 15 21  4  0
 16 19  4  0
 16 23  4  0
 17 22  4  0
 18 26  4  0
 19 24  4  0
 20 24  4  0
 22 27  4  0
 28 29  4  0
M  END
$$$$

 Created by Python create_sdf_string function

 29 33  0  0  0  0  0  0  0  0999 V2000
   10.7215   -3.3326   17.6437 C   0  0  0  0  0  0  0  0  0  0  0  0
    9.9489   -3.4675   24.6487 N   0  0  0  0  0  0  0  0  0  0  0  0
   10.0172   -4.4740   17.4101 C   0  0  0  0  0  0  0  0  0  0  0  0
    6.9051   -7.9575   16.4222 C   0  0  0  0  0  0  0  0  0  0  0  0
    8.9969   -6.3552   17.9668 N   0  0  0  0  0  0  0  0  0  0  0  0
   10.6702   -3.9051   22.4070 C   0  0  0  0  0  0  0  0  0  0  0  0
   11.0625   -3.0028   18.8894 C   0  0  0  0  0  0  0  0  0  0  0  0
    5.6180   -7.9194   16.1754 O   0  0  0  0  0  0  0  0  0  0  0  0
    9.7259   -5.3080   18.4485 C   0  0  0  0  0  0  0  0  0  0  0  0
    9.4578   -5.0200   16.3036 N   0  0  0  0  0  0  0  0  0  0  0  0
    5.0287   -8.9365   16.8223 C   0  0  0  0  0  0  0  0  0  0  0  0
    8.7742   -6.1498   16.6764 C   0  0  0  0  0  0  0  0  0  0  0  0
   10.9418   -3.4032   21.2053 O   0  0  0  0  0  0  0  0  0  0  0  0
    1.4797   -8.6258   16.2950 C   0  0  0  0  0  0  0  0  0  0  0  0
    9.2861   -1.2743   25.3585 C   0  0  0  0  0  0  0  0  0  0  0  0
    1.8892  -10.3985   17.7511 N   0  0  0  0  0  0  0  0  0  0  0  0
    9.6210   -0.6952   24.0976 C   0  0  0  0  0  0  0  0  0  0  0  0
    7.0792   -9.0217   17.1429 C   0  0  0  0  0  0  0  0  0  0  0  0
    3.1713  -10.1816   17.6634 C   0  0  0  0  0  0  0  0  0  0  0  0
    2.7878   -8.3822   16.2137 C   0  0  0  0  0  0  0  0  0  0  0  0
    9.4601   -2.6590   25.6528 C   0  0  0  0  0  0  0  0  0  0  0  0
   10.1182   -1.5672   23.1165 C   0  0  0  0  0  0  0  0  0  0  0  0
    1.0552   -9.6360   17.0650 C   0  0  0  0  0  0  0  0  0  0  0  0
    3.6519   -9.1783   16.9039 C   0  0  0  0  0  0  0  0  0  0  0  0
    7.8675   -7.0096   15.9415 C   0  0  0  0  0  0  0  0  0  0  0  0
    5.9733   -9.6553   17.3832 N   0  0  0  0  0  0  0  0  0  0  0  0
   10.2411   -2.9363   23.4301 C   0  0  0  0  0  0  0  0  0  0  0  0
   10.7288   -3.8197   19.9525 C   0  0  0  0  0  0  0  0  0  0  0  0
   10.1189   -5.0054   19.6987 C   0  0  0  0  0  0  0  0  0  0  0  0
  1  3  4  0
  1  7  4  0
  2 21  4  0
  2 27  4  0
  3  9  4  0
  3 10  4  0
  4  8  4  0
  4 18  4  0
  4 25  1  0
  5  9  4  0
  5 12  4  0
  6 13  1  0
  6 27  1  0
  7 28  4  0
  8 11  4  0
  9 29  4  0
 10 12  4  0
 11 24  1  0
 11 26  4  0
 12 25  1  0
 13 28  1  0
 14 20  4  0
 14 23  4  0
 15 17  4  0
 15 21  4  0
 16 19  4  0
 16 23  4  0
 17 22  4  0
 18 26  4  0
 19 24  4  0
 20 24  4  0
 22 27  4  0
 28 29  4  0
M  END
$$$$

 Created by Python create_sdf_string function

 29 33  0  0  0  0  0  0  0  0999 V2000
   10.7215   -3.3326   17.6437 C   0  0  0  0  0  0  0  0  0  0  0  0
    9.9489   -3.4675   24.6487 N   0  0  0  0  0  0  0  0  0  0  0  0
   10.0172   -4.4740   17.4101 C   0  0  0  0  0  0  0  0  0  0  0  0
    6.9051   -7.9575   16.4222 C   0  0  0  0  0  0  0  0  0  0  0  0
    8.9969   -6.3552   17.9668 N   0  0  0  0  0  0  0  0  0  0  0  0
   10.6702   -3.9051   22.4070 C   0  0  0  0  0  0  0  0  0  0  0  0
   11.0625   -3.0028   18.8894 C   0  0  0  0  0  0  0  0  0  0  0  0
    5.6180   -7.9194   16.1754 O   0  0  0  0  0  0  0  0  0  0  0  0
    9.7259   -5.3080   18.4485 C   0  0  0  0  0  0  0  0  0  0  0  0
    9.4578   -5.0200   16.3036 N   0  0  0  0  0  0  0  0  0  0  0  0
    5.0287   -8.9365   16.8223 C   0  0  0  0  0  0  0  0  0  0  0  0
    8.7742   -6.1498   16.6764 C   0  0  0  0  0  0  0  0  0  0  0  0
   10.9418   -3.4032   21.2053 O   0  0  0  0  0  0  0  0  0  0  0  0
    1.4797   -8.6258   16.2950 C   0  0  0  0  0  0  0  0  0  0  0  0
    9.2861   -1.2743   25.3585 C   0  0  0  0  0  0  0  0  0  0  0  0
    1.8892  -10.3985   17.7511 N   0  0  0  0  0  0  0  0  0  0  0  0
    9.6210   -0.6952   24.0976 C   0  0  0  0  0  0  0  0  0  0  0  0
    7.0792   -9.0217   17.1429 C   0  0  0  0  0  0  0  0  0  0  0  0
    3.1713  -10.1816   17.6634 C   0  0  0  0  0  0  0  0  0  0  0  0
    2.7878   -8.3822   16.2137 C   0  0  0  0  0  0  0  0  0  0  0  0
    9.4601   -2.6590   25.6528 C   0  0  0  0  0  0  0  0  0  0  0  0
   10.1182   -1.5672   23.1165 C   0  0  0  0  0  0  0  0  0  0  0  0
    1.0552   -9.6360   17.0650 C   0  0  0  0  0  0  0  0  0  0  0  0
    3.6519   -9.1783   16.9039 C   0  0  0  0  0  0  0  0  0  0  0  0
    7.8675   -7.0096   15.9415 C   0  0  0  0  0  0  0  0  0  0  0  0
    5.9733   -9.6553   17.3832 N   0  0  0  0  0  0  0  0  0  0  0  0
   10.2411   -2.9363   23.4301 C   0  0  0  0  0  0  0  0  0  0  0  0
   10.7288   -3.8197   19.9525 C   0  0  0  0  0  0  0  0  0  0  0  0
   10.1189   -5.0054   19.6987 C   0  0  0  0  0  0  0  0  0  0  0  0
  1  3  4  0
  1  7  4  0
  2 21  4  0
  2 27  4  0
  3  9  4  0
  3 10  4  0
  4  8  4  0
  4 18  4  0
  4 25  1  0
  5  9  4  0
  5 12  4  0
  6 13  1  0
  6 27  1  0
  7 28  4  0
  8 11  4  0
  9 29  4  0
 10 12  4  0
 11 24  1  0
 11 26  4  0
 12 25  1  0
 13 28  1  0
 14 20  4  0
 14 23  4  0
 15 17  4  0
 15 21  4  0
 16 19  4  0
 16 23  4  0
 17 22  4  0
 18 26  4  0
 19 24  4  0
 20 24  4  0
 22 27  4  0
 28 29  4  0
M  END
$$$$

 Created by Python create_sdf_string function

 29 33  0  0  0  0  0  0  0  0999 V2000
   10.7215   -3.3326   17.6437 C   0  0  0  0  0  0  0  0  0  0  0  0
    9.9489   -3.4675   24.6487 N   0  0  0  0  0  0  0  0  0  0  0  0
   10.0172   -4.4740   17.4101 C   0  0  0  0  0  0  0  0  0  0  0  0
    6.9051   -7.9575   16.4222 C   0  0  0  0  0  0  0  0  0  0  0  0
    8.9969   -6.3552   17.9668 N   0  0  0  0  0  0  0  0  0  0  0  0
   10.6702   -3.9051   22.4070 C   0  0  0  0  0  0  0  0  0  0  0  0
   11.0625   -3.0028   18.8894 C   0  0  0  0  0  0  0  0  0  0  0  0
    5.6180   -7.9194   16.1754 O   0  0  0  0  0  0  0  0  0  0  0  0
    9.7259   -5.3080   18.4485 C   0  0  0  0  0  0  0  0  0  0  0  0
    9.4578   -5.0200   16.3036 N   0  0  0  0  0  0  0  0  0  0  0  0
    5.0287   -8.9365   16.8223 C   0  0  0  0  0  0  0  0  0  0  0  0
    8.7742   -6.1498   16.6764 C   0  0  0  0  0  0  0  0  0  0  0  0
   10.9418   -3.4032   21.2053 O   0  0  0  0  0  0  0  0  0  0  0  0
    1.4797   -8.6258   16.2950 C   0  0  0  0  0  0  0  0  0  0  0  0
    9.2861   -1.2743   25.3585 C   0  0  0  0  0  0  0  0  0  0  0  0
    1.8892  -10.3985   17.7511 N   0  0  0  0  0  0  0  0  0  0  0  0
    9.6210   -0.6952   24.0976 C   0  0  0  0  0  0  0  0  0  0  0  0
    7.0792   -9.0217   17.1429 C   0  0  0  0  0  0  0  0  0  0  0  0
    3.1713  -10.1816   17.6634 C   0  0  0  0  0  0  0  0  0  0  0  0
    2.7878   -8.3822   16.2137 C   0  0  0  0  0  0  0  0  0  0  0  0
    9.4601   -2.6590   25.6528 C   0  0  0  0  0  0  0  0  0  0  0  0
   10.1182   -1.5672   23.1165 C   0  0  0  0  0  0  0  0  0  0  0  0
    1.0552   -9.6360   17.0650 C   0  0  0  0  0  0  0  0  0  0  0  0
    3.6519   -9.1783   16.9039 C   0  0  0  0  0  0  0  0  0  0  0  0
    7.8675   -7.0096   15.9415 C   0  0  0  0  0  0  0  0  0  0  0  0
    5.9733   -9.6553   17.3832 N   0  0  0  0  0  0  0  0  0  0  0  0
   10.2411   -2.9363   23.4301 C   0  0  0  0  0  0  0  0  0  0  0  0
   10.7288   -3.8197   19.9525 C   0  0  0  0  0  0  0  0  0  0  0  0
   10.1189   -5.0054   19.6987 C   0  0  0  0  0  0  0  0  0  0  0  0
  1  3  4  0
  1  7  4  0
  2 21  4  0
  2 27  4  0
  3  9  4  0
  3 10  4  0
  4  8  4  0
  4 18  4  0
  4 25  1  0
  5  9  4  0
  5 12  4  0
  6 13  1  0
  6 27  1  0
  7 28  4  0
  8 11  4  0
  9 29  4  0
 10 12  4  0
 11 24  1  0
 11 26  4  0
 12 25  1  0
 13 28  1  0
 14 20  4  0
 14 23  4  0
 15 17  4  0
 15 21  4  0
 16 19  4  0
 16 23  4  0
 17 22  4  0
 18 26  4  0
 19 24  4  0
 20 24  4  0
 22 27  4  0
 28 29  4  0
M  END
$$$$

 Created by Python create_sdf_string function

 29 33  0  0  0  0  0  0  0  0999 V2000
   10.7215   -3.3326   17.6437 C   0  0  0  0  0  0  0  0  0  0  0  0
    9.9489   -3.4675   24.6487 N   0  0  0  0  0  0  0  0  0  0  0  0
   10.0172   -4.4740   17.4101 C   0  0  0  0  0  0  0  0  0  0  0  0
    6.9051   -7.9575   16.4222 C   0  0  0  0  0  0  0  0  0  0  0  0
    8.9969   -6.3552   17.9668 N   0  0  0  0  0  0  0  0  0  0  0  0
   10.6702   -3.9051   22.4070 C   0  0  0  0  0  0  0  0  0  0  0  0
   11.0625   -3.0028   18.8894 C   0  0  0  0  0  0  0  0  0  0  0  0
    5.6180   -7.9194   16.1754 O   0  0  0  0  0  0  0  0  0  0  0  0
    9.7259   -5.3080   18.4485 C   0  0  0  0  0  0  0  0  0  0  0  0
    9.4578   -5.0200   16.3036 N   0  0  0  0  0  0  0  0  0  0  0  0
    5.0287   -8.9365   16.8223 C   0  0  0  0  0  0  0  0  0  0  0  0
    8.7742   -6.1498   16.6764 C   0  0  0  0  0  0  0  0  0  0  0  0
   10.9418   -3.4032   21.2053 O   0  0  0  0  0  0  0  0  0  0  0  0
    1.4797   -8.6258   16.2950 C   0  0  0  0  0  0  0  0  0  0  0  0
    9.2861   -1.2743   25.3585 C   0  0  0  0  0  0  0  0  0  0  0  0
    1.8892  -10.3985   17.7511 N   0  0  0  0  0  0  0  0  0  0  0  0
    9.6210   -0.6952   24.0976 C   0  0  0  0  0  0  0  0  0  0  0  0
    7.0792   -9.0217   17.1429 C   0  0  0  0  0  0  0  0  0  0  0  0
    3.1713  -10.1816   17.6634 C   0  0  0  0  0  0  0  0  0  0  0  0
    2.7878   -8.3822   16.2137 C   0  0  0  0  0  0  0  0  0  0  0  0
    9.4601   -2.6590   25.6528 C   0  0  0  0  0  0  0  0  0  0  0  0
   10.1182   -1.5672   23.1165 C   0  0  0  0  0  0  0  0  0  0  0  0
    1.0552   -9.6360   17.0650 C   0  0  0  0  0  0  0  0  0  0  0  0
    3.6519   -9.1783   16.9039 C   0  0  0  0  0  0  0  0  0  0  0  0
    7.8675   -7.0096   15.9415 C   0  0  0  0  0  0  0  0  0  0  0  0
    5.9733   -9.6553   17.3832 N   0  0  0  0  0  0  0  0  0  0  0  0
   10.2411   -2.9363   23.4301 C   0  0  0  0  0  0  0  0  0  0  0  0
   10.7288   -3.8197   19.9525 C   0  0  0  0  0  0  0  0  0  0  0  0
   10.1189   -5.0054   19.6987 C   0  0  0  0  0  0  0  0  0  0  0  0
  1  3  4  0
  1  7  4  0
  2 21  4  0
  2 27  4  0
  3  9  4  0
  3 10  4  0
  4  8  4  0
  4 18  4  0
  4 25  1  0
  5  9  4  0
  5 12  4  0
  6 13  1  0
  6 27  1  0
  7 28  4  0
  8 11  4  0
  9 29  4  0
 10 12  4  0
 11 24  1  0
 11 26  4  0
 12 25  1  0
 13 28  1  0
 14 20  4  0
 14 23  4  0
 15 17  4  0
 15 21  4  0
 16 19  4  0
 16 23  4  0
 17 22  4  0
 18 26  4  0
 19 24  4  0
 20 24  4  0
 22 27  4  0
 28 29  4  0
M  END
$$$$

 Created by Python create_sdf_string function

 29 33  0  0  0  0  0  0  0  0999 V2000
   10.7215   -3.3326   17.6437 C   0  0  0  0  0  0  0  0  0  0  0  0
    9.9489   -3.4675   24.6487 N   0  0  0  0  0  0  0  0  0  0  0  0
   10.0172   -4.4740   17.4101 C   0  0  0  0  0  0  0  0  0  0  0  0
    6.9051   -7.9575   16.4222 C   0  0  0  0  0  0  0  0  0  0  0  0
    8.9969   -6.3552   17.9668 N   0  0  0  0  0  0  0  0  0  0  0  0
   10.6702   -3.9051   22.4070 C   0  0  0  0  0  0  0  0  0  0  0  0
   11.0625   -3.0028   18.8894 C   0  0  0  0  0  0  0  0  0  0  0  0
    5.6180   -7.9194   16.1754 O   0  0  0  0  0  0  0  0  0  0  0  0
    9.7259   -5.3080   18.4485 C   0  0  0  0  0  0  0  0  0  0  0  0
    9.4578   -5.0200   16.3036 N   0  0  0  0  0  0  0  0  0  0  0  0
    5.0287   -8.9365   16.8223 C   0  0  0  0  0  0  0  0  0  0  0  0
    8.7742   -6.1498   16.6764 C   0  0  0  0  0  0  0  0  0  0  0  0
   10.9418   -3.4032   21.2053 O   0  0  0  0  0  0  0  0  0  0  0  0
    1.4797   -8.6258   16.2950 C   0  0  0  0  0  0  0  0  0  0  0  0
    9.2861   -1.2743   25.3585 C   0  0  0  0  0  0  0  0  0  0  0  0
    1.8892  -10.3985   17.7511 N   0  0  0  0  0  0  0  0  0  0  0  0
    9.6210   -0.6952   24.0976 C   0  0  0  0  0  0  0  0  0  0  0  0
    7.0792   -9.0217   17.1429 C   0  0  0  0  0  0  0  0  0  0  0  0
    3.1713  -10.1816   17.6634 C   0  0  0  0  0  0  0  0  0  0  0  0
    2.7878   -8.3822   16.2137 C   0  0  0  0  0  0  0  0  0  0  0  0
    9.4601   -2.6590   25.6528 C   0  0  0  0  0  0  0  0  0  0  0  0
   10.1182   -1.5672   23.1165 C   0  0  0  0  0  0  0  0  0  0  0  0
    1.0552   -9.6360   17.0650 C   0  0  0  0  0  0  0  0  0  0  0  0
    3.6519   -9.1783   16.9039 C   0  0  0  0  0  0  0  0  0  0  0  0
    7.8675   -7.0096   15.9415 C   0  0  0  0  0  0  0  0  0  0  0  0
    5.9733   -9.6553   17.3832 N   0  0  0  0  0  0  0  0  0  0  0  0
   10.2411   -2.9363   23.4301 C   0  0  0  0  0  0  0  0  0  0  0  0
   10.7288   -3.8197   19.9525 C   0  0  0  0  0  0  0  0  0  0  0  0
   10.1189   -5.0054   19.6987 C   0  0  0  0  0  0  0  0  0  0  0  0
  1  3  4  0
  1  7  4  0
  2 21  4  0
  2 27  4  0
  3  9  4  0
  3 10  4  0
  4  8  4  0
  4 18  4  0
  4 25  1  0
  5  9  4  0
  5 12  4  0
  6 13  1  0
  6 27  1  0
  7 28  4  0
  8 11  4  0
  9 29  4  0
 10 12  4  0
 11 24  1  0
 11 26  4  0
 12 25  1  0
 13 28  1  0
 14 20  4  0
 14 23  4  0
 15 17  4  0
 15 21  4  0
 16 19  4  0
 16 23  4  0
 17 22  4  0
 18 26  4  0
 19 24  4  0
 20 24  4  0
 22 27  4  0
 28 29  4  0
M  END
$$$$

 Created by Python create_sdf_string function

 29 33  0  0  0  0  0  0  0  0999 V2000
   10.7215   -3.3326   17.6437 C   0  0  0  0  0  0  0  0  0  0  0  0
    9.9489   -3.4675   24.6487 N   0  0  0  0  0  0  0  0  0  0  0  0
   10.0172   -4.4740   17.4101 C   0  0  0  0  0  0  0  0  0  0  0  0
    6.9051   -7.9575   16.4222 C   0  0  0  0  0  0  0  0  0  0  0  0
    8.9969   -6.3552   17.9668 N   0  0  0  0  0  0  0  0  0  0  0  0
   10.6702   -3.9051   22.4070 C   0  0  0  0  0  0  0  0  0  0  0  0
   11.0625   -3.0028   18.8894 C   0  0  0  0  0  0  0  0  0  0  0  0
    5.6180   -7.9194   16.1754 O   0  0  0  0  0  0  0  0  0  0  0  0
    9.7259   -5.3080   18.4485 C   0  0  0  0  0  0  0  0  0  0  0  0
    9.4578   -5.0200   16.3036 N   0  0  0  0  0  0  0  0  0  0  0  0
    5.0287   -8.9365   16.8223 C   0  0  0  0  0  0  0  0  0  0  0  0
    8.7742   -6.1498   16.6764 C   0  0  0  0  0  0  0  0  0  0  0  0
   10.9418   -3.4032   21.2053 O   0  0  0  0  0  0  0  0  0  0  0  0
    1.4797   -8.6258   16.2950 C   0  0  0  0  0  0  0  0  0  0  0  0
    9.2861   -1.2743   25.3585 C   0  0  0  0  0  0  0  0  0  0  0  0
    1.8892  -10.3985   17.7511 N   0  0  0  0  0  0  0  0  0  0  0  0
    9.6210   -0.6952   24.0976 C   0  0  0  0  0  0  0  0  0  0  0  0
    7.0792   -9.0217   17.1429 C   0  0  0  0  0  0  0  0  0  0  0  0
    3.1713  -10.1816   17.6634 C   0  0  0  0  0  0  0  0  0  0  0  0
    2.7878   -8.3822   16.2137 C   0  0  0  0  0  0  0  0  0  0  0  0
    9.4601   -2.6590   25.6528 C   0  0  0  0  0  0  0  0  0  0  0  0
   10.1182   -1.5672   23.1165 C   0  0  0  0  0  0  0  0  0  0  0  0
    1.0552   -9.6360   17.0650 C   0  0  0  0  0  0  0  0  0  0  0  0
    3.6519   -9.1783   16.9039 C   0  0  0  0  0  0  0  0  0  0  0  0
    7.8675   -7.0096   15.9415 C   0  0  0  0  0  0  0  0  0  0  0  0
    5.9733   -9.6553   17.3832 N   0  0  0  0  0  0  0  0  0  0  0  0
   10.2411   -2.9363   23.4301 C   0  0  0  0  0  0  0  0  0  0  0  0
   10.7288   -3.8197   19.9525 C   0  0  0  0  0  0  0  0  0  0  0  0
   10.1189   -5.0054   19.6987 C   0  0  0  0  0  0  0  0  0  0  0  0
  1  3  4  0
  1  7  4  0
  2 21  4  0
  2 27  4  0
  3  9  4  0
  3 10  4  0
  4  8  4  0
  4 18  4  0
  4 25  1  0
  5  9  4  0
  5 12  4  0
  6 13  1  0
  6 27  1  0
  7 28  4  0
  8 11  4  0
  9 29  4  0
 10 12  4  0
 11 24  1  0
 11 26  4  0
 12 25  1  0
 13 28  1  0
 14 20  4  0
 14 23  4  0
 15 17  4  0
 15 21  4  0
 16 19  4  0
 16 23  4  0
 17 22  4  0
 18 26  4  0
 19 24  4  0
 20 24  4  0
 22 27  4  0
 28 29  4  0
M  END
$$$$

 Created by Python create_sdf_string function

 29 33  0  0  0  0  0  0  0  0999 V2000
   10.7215   -3.3326   17.6437 C   0  0  0  0  0  0  0  0  0  0  0  0
    9.9489   -3.4675   24.6487 N   0  0  0  0  0  0  0  0  0  0  0  0
   10.0172   -4.4740   17.4101 C   0  0  0  0  0  0  0  0  0  0  0  0
    6.9051   -7.9575   16.4222 C   0  0  0  0  0  0  0  0  0  0  0  0
    8.9969   -6.3552   17.9668 N   0  0  0  0  0  0  0  0  0  0  0  0
   10.6702   -3.9051   22.4070 C   0  0  0  0  0  0  0  0  0  0  0  0
   11.0625   -3.0028   18.8894 C   0  0  0  0  0  0  0  0  0  0  0  0
    5.6180   -7.9194   16.1754 O   0  0  0  0  0  0  0  0  0  0  0  0
    9.7259   -5.3080   18.4485 C   0  0  0  0  0  0  0  0  0  0  0  0
    9.4578   -5.0200   16.3036 N   0  0  0  0  0  0  0  0  0  0  0  0
    5.0287   -8.9365   16.8223 C   0  0  0  0  0  0  0  0  0  0  0  0
    8.7742   -6.1498   16.6764 C   0  0  0  0  0  0  0  0  0  0  0  0
   10.9418   -3.4032   21.2053 O   0  0  0  0  0  0  0  0  0  0  0  0
    1.4797   -8.6258   16.2950 C   0  0  0  0  0  0  0  0  0  0  0  0
    9.2861   -1.2743   25.3585 C   0  0  0  0  0  0  0  0  0  0  0  0
    1.8892  -10.3985   17.7511 N   0  0  0  0  0  0  0  0  0  0  0  0
    9.6210   -0.6952   24.0976 C   0  0  0  0  0  0  0  0  0  0  0  0
    7.0792   -9.0217   17.1429 C   0  0  0  0  0  0  0  0  0  0  0  0
    3.1713  -10.1816   17.6634 C   0  0  0  0  0  0  0  0  0  0  0  0
    2.7878   -8.3822   16.2137 C   0  0  0  0  0  0  0  0  0  0  0  0
    9.4601   -2.6590   25.6528 C   0  0  0  0  0  0  0  0  0  0  0  0
   10.1182   -1.5672   23.1165 C   0  0  0  0  0  0  0  0  0  0  0  0
    1.0552   -9.6360   17.0650 C   0  0  0  0  0  0  0  0  0  0  0  0
    3.6519   -9.1783   16.9039 C   0  0  0  0  0  0  0  0  0  0  0  0
    7.8675   -7.0096   15.9415 C   0  0  0  0  0  0  0  0  0  0  0  0
    5.9733   -9.6553   17.3832 N   0  0  0  0  0  0  0  0  0  0  0  0
   10.2411   -2.9363   23.4301 C   0  0  0  0  0  0  0  0  0  0  0  0
   10.7288   -3.8197   19.9525 C   0  0  0  0  0  0  0  0  0  0  0  0
   10.1189   -5.0054   19.6987 C   0  0  0  0  0  0  0  0  0  0  0  0
  1  3  4  0
  1  7  4  0
  2 21  4  0
  2 27  4  0
  3  9  4  0
  3 10  4  0
  4  8  4  0
  4 18  4  0
  4 25  1  0
  5  9  4  0
  5 12  4  0
  6 13  1  0
  6 27  1  0
  7 28  4  0
  8 11  4  0
  9 29  4  0
 10 12  4  0
 11 24  1  0
 11 26  4  0
 12 25  1  0
 13 28  1  0
 14 20  4  0
 14 23  4  0
 15 17  4  0
 15 21  4  0
 16 19  4  0
 16 23  4  0
 17 22  4  0
 18 26  4  0
 19 24  4  0
 20 24  4  0
 22 27  4  0
 28 29  4  0
M  END
$$$$

 Created by Python create_sdf_string function

 29 33  0  0  0  0  0  0  0  0999 V2000
   10.7215   -3.3326   17.6437 C   0  0  0  0  0  0  0  0  0  0  0  0
    9.9489   -3.4675   24.6487 N   0  0  0  0  0  0  0  0  0  0  0  0
   10.0172   -4.4740   17.4101 C   0  0  0  0  0  0  0  0  0  0  0  0
    6.9051   -7.9575   16.4222 C   0  0  0  0  0  0  0  0  0  0  0  0
    8.9969   -6.3552   17.9668 N   0  0  0  0  0  0  0  0  0  0  0  0
   10.6702   -3.9051   22.4070 C   0  0  0  0  0  0  0  0  0  0  0  0
   11.0625   -3.0028   18.8894 C   0  0  0  0  0  0  0  0  0  0  0  0
    5.6180   -7.9194   16.1754 O   0  0  0  0  0  0  0  0  0  0  0  0
    9.7259   -5.3080   18.4485 C   0  0  0  0  0  0  0  0  0  0  0  0
    9.4578   -5.0200   16.3036 N   0  0  0  0  0  0  0  0  0  0  0  0
    5.0287   -8.9365   16.8223 C   0  0  0  0  0  0  0  0  0  0  0  0
    8.7742   -6.1498   16.6764 C   0  0  0  0  0  0  0  0  0  0  0  0
   10.9418   -3.4032   21.2053 O   0  0  0  0  0  0  0  0  0  0  0  0
    1.4797   -8.6258   16.2950 C   0  0  0  0  0  0  0  0  0  0  0  0
    9.2861   -1.2743   25.3585 C   0  0  0  0  0  0  0  0  0  0  0  0
    1.8892  -10.3985   17.7511 N   0  0  0  0  0  0  0  0  0  0  0  0
    9.6210   -0.6952   24.0976 C   0  0  0  0  0  0  0  0  0  0  0  0
    7.0792   -9.0217   17.1429 C   0  0  0  0  0  0  0  0  0  0  0  0
    3.1713  -10.1816   17.6634 C   0  0  0  0  0  0  0  0  0  0  0  0
    2.7878   -8.3822   16.2137 C   0  0  0  0  0  0  0  0  0  0  0  0
    9.4601   -2.6590   25.6528 C   0  0  0  0  0  0  0  0  0  0  0  0
   10.1182   -1.5672   23.1165 C   0  0  0  0  0  0  0  0  0  0  0  0
    1.0552   -9.6360   17.0650 C   0  0  0  0  0  0  0  0  0  0  0  0
    3.6519   -9.1783   16.9039 C   0  0  0  0  0  0  0  0  0  0  0  0
    7.8675   -7.0096   15.9415 C   0  0  0  0  0  0  0  0  0  0  0  0
    5.9733   -9.6553   17.3832 N   0  0  0  0  0  0  0  0  0  0  0  0
   10.2411   -2.9363   23.4301 C   0  0  0  0  0  0  0  0  0  0  0  0
   10.7288   -3.8197   19.9525 C   0  0  0  0  0  0  0  0  0  0  0  0
   10.1189   -5.0054   19.6987 C   0  0  0  0  0  0  0  0  0  0  0  0
  1  3  4  0
  1  7  4  0
  2 21  4  0
  2 27  4  0
  3  9  4  0
  3 10  4  0
  4  8  4  0
  4 18  4  0
  4 25  1  0
  5  9  4  0
  5 12  4  0
  6 13  1  0
  6 27  1  0
  7 28  4  0
  8 11  4  0
  9 29  4  0
 10 12  4  0
 11 24  1  0
 11 26  4  0
 12 25  1  0
 13 28  1  0
 14 20  4  0
 14 23  4  0
 15 17  4  0
 15 21  4  0
 16 19  4  0
 16 23  4  0
 17 22  4  0
 18 26  4  0
 19 24  4  0
 20 24  4  0
 22 27  4  0
 28 29  4  0
M  END
$$$$

 Created by Python create_sdf_string function

 29 33  0  0  0  0  0  0  0  0999 V2000
   10.7215   -3.3326   17.6437 C   0  0  0  0  0  0  0  0  0  0  0  0
    9.9489   -3.4675   24.6487 N   0  0  0  0  0  0  0  0  0  0  0  0
   10.0172   -4.4740   17.4101 C   0  0  0  0  0  0  0  0  0  0  0  0
    6.9051   -7.9575   16.4222 C   0  0  0  0  0  0  0  0  0  0  0  0
    8.9969   -6.3552   17.9668 N   0  0  0  0  0  0  0  0  0  0  0  0
   10.6702   -3.9051   22.4070 C   0  0  0  0  0  0  0  0  0  0  0  0
   11.0625   -3.0028   18.8894 C   0  0  0  0  0  0  0  0  0  0  0  0
    5.6180   -7.9194   16.1754 O   0  0  0  0  0  0  0  0  0  0  0  0
    9.7259   -5.3080   18.4485 C   0  0  0  0  0  0  0  0  0  0  0  0
    9.4578   -5.0200   16.3036 N   0  0  0  0  0  0  0  0  0  0  0  0
    5.0287   -8.9365   16.8223 C   0  0  0  0  0  0  0  0  0  0  0  0
    8.7742   -6.1498   16.6764 C   0  0  0  0  0  0  0  0  0  0  0  0
   10.9418   -3.4032   21.2053 O   0  0  0  0  0  0  0  0  0  0  0  0
    1.4797   -8.6258   16.2950 C   0  0  0  0  0  0  0  0  0  0  0  0
    9.2861   -1.2743   25.3585 C   0  0  0  0  0  0  0  0  0  0  0  0
    1.8892  -10.3985   17.7511 N   0  0  0  0  0  0  0  0  0  0  0  0
    9.6210   -0.6952   24.0976 C   0  0  0  0  0  0  0  0  0  0  0  0
    7.0792   -9.0217   17.1429 C   0  0  0  0  0  0  0  0  0  0  0  0
    3.1713  -10.1816   17.6634 C   0  0  0  0  0  0  0  0  0  0  0  0
    2.7878   -8.3822   16.2137 C   0  0  0  0  0  0  0  0  0  0  0  0
    9.4601   -2.6590   25.6528 C   0  0  0  0  0  0  0  0  0  0  0  0
   10.1182   -1.5672   23.1165 C   0  0  0  0  0  0  0  0  0  0  0  0
    1.0552   -9.6360   17.0650 C   0  0  0  0  0  0  0  0  0  0  0  0
    3.6519   -9.1783   16.9039 C   0  0  0  0  0  0  0  0  0  0  0  0
    7.8675   -7.0096   15.9415 C   0  0  0  0  0  0  0  0  0  0  0  0
    5.9733   -9.6553   17.3832 N   0  0  0  0  0  0  0  0  0  0  0  0
   10.2411   -2.9363   23.4301 C   0  0  0  0  0  0  0  0  0  0  0  0
   10.7288   -3.8197   19.9525 C   0  0  0  0  0  0  0  0  0  0  0  0
   10.1189   -5.0054   19.6987 C   0  0  0  0  0  0  0  0  0  0  0  0
  1  3  4  0
  1  7  4  0
  2 21  4  0
  2 27  4  0
  3  9  4  0
  3 10  4  0
  4  8  4  0
  4 18  4  0
  4 25  1  0
  5  9  4  0
  5 12  4  0
  6 13  1  0
  6 27  1  0
  7 28  4  0
  8 11  4  0
  9 29  4  0
 10 12  4  0
 11 24  1  0
 11 26  4  0
 12 25  1  0
 13 28  1  0
 14 20  4  0
 14 23  4  0
 15 17  4  0
 15 21  4  0
 16 19  4  0
 16 23  4  0
 17 22  4  0
 18 26  4  0
 19 24  4  0
 20 24  4  0
 22 27  4  0
 28 29  4  0
M  END
$$$$

 Created by Python create_sdf_string function

 29 33  0  0  0  0  0  0  0  0999 V2000
   10.7215   -3.3326   17.6437 C   0  0  0  0  0  0  0  0  0  0  0  0
    9.9489   -3.4675   24.6487 N   0  0  0  0  0  0  0  0  0  0  0  0
   10.0172   -4.4740   17.4101 C   0  0  0  0  0  0  0  0  0  0  0  0
    6.9051   -7.9575   16.4222 C   0  0  0  0  0  0  0  0  0  0  0  0
    8.9969   -6.3552   17.9668 N   0  0  0  0  0  0  0  0  0  0  0  0
   10.6702   -3.9051   22.4070 C   0  0  0  0  0  0  0  0  0  0  0  0
   11.0625   -3.0028   18.8894 C   0  0  0  0  0  0  0  0  0  0  0  0
    5.6180   -7.9194   16.1754 O   0  0  0  0  0  0  0  0  0  0  0  0
    9.7259   -5.3080   18.4485 C   0  0  0  0  0  0  0  0  0  0  0  0
    9.4578   -5.0200   16.3036 N   0  0  0  0  0  0  0  0  0  0  0  0
    5.0287   -8.9365   16.8223 C   0  0  0  0  0  0  0  0  0  0  0  0
    8.7742   -6.1498   16.6764 C   0  0  0  0  0  0  0  0  0  0  0  0
   10.9418   -3.4032   21.2053 O   0  0  0  0  0  0  0  0  0  0  0  0
    1.4797   -8.6258   16.2950 C   0  0  0  0  0  0  0  0  0  0  0  0
    9.2861   -1.2743   25.3585 C   0  0  0  0  0  0  0  0  0  0  0  0
    1.8892  -10.3985   17.7511 N   0  0  0  0  0  0  0  0  0  0  0  0
    9.6210   -0.6952   24.0976 C   0  0  0  0  0  0  0  0  0  0  0  0
    7.0792   -9.0217   17.1429 C   0  0  0  0  0  0  0  0  0  0  0  0
    3.1713  -10.1816   17.6634 C   0  0  0  0  0  0  0  0  0  0  0  0
    2.7878   -8.3822   16.2137 C   0  0  0  0  0  0  0  0  0  0  0  0
    9.4601   -2.6590   25.6528 C   0  0  0  0  0  0  0  0  0  0  0  0
   10.1182   -1.5672   23.1165 C   0  0  0  0  0  0  0  0  0  0  0  0
    1.0552   -9.6360   17.0650 C   0  0  0  0  0  0  0  0  0  0  0  0
    3.6519   -9.1783   16.9039 C   0  0  0  0  0  0  0  0  0  0  0  0
    7.8675   -7.0096   15.9415 C   0  0  0  0  0  0  0  0  0  0  0  0
    5.9733   -9.6553   17.3832 N   0  0  0  0  0  0  0  0  0  0  0  0
   10.2411   -2.9363   23.4301 C   0  0  0  0  0  0  0  0  0  0  0  0
   10.7288   -3.8197   19.9525 C   0  0  0  0  0  0  0  0  0  0  0  0
   10.1189   -5.0054   19.6987 C   0  0  0  0  0  0  0  0  0  0  0  0
  1  3  4  0
  1  7  4  0
  2 21  4  0
  2 27  4  0
  3  9  4  0
  3 10  4  0
  4  8  4  0
  4 18  4  0
  4 25  1  0
  5  9  4  0
  5 12  4  0
  6 13  1  0
  6 27  1  0
  7 28  4  0
  8 11  4  0
  9 29  4  0
 10 12  4  0
 11 24  1  0
 11 26  4  0
 12 25  1  0
 13 28  1  0
 14 20  4  0
 14 23  4  0
 15 17  4  0
 15 21  4  0
 16 19  4  0
 16 23  4  0
 17 22  4  0
 18 26  4  0
 19 24  4  0
 20 24  4  0
 22 27  4  0
 28 29  4  0
M  END
$$$$

 Created by Python create_sdf_string function

 29 33  0  0  0  0  0  0  0  0999 V2000
   10.7215   -3.3326   17.6437 C   0  0  0  0  0  0  0  0  0  0  0  0
    9.9489   -3.4675   24.6487 N   0  0  0  0  0  0  0  0  0  0  0  0
   10.0172   -4.4740   17.4101 C   0  0  0  0  0  0  0  0  0  0  0  0
    6.9051   -7.9575   16.4222 C   0  0  0  0  0  0  0  0  0  0  0  0
    8.9969   -6.3552   17.9668 N   0  0  0  0  0  0  0  0  0  0  0  0
   10.6702   -3.9051   22.4070 C   0  0  0  0  0  0  0  0  0  0  0  0
   11.0625   -3.0028   18.8894 C   0  0  0  0  0  0  0  0  0  0  0  0
    5.6180   -7.9194   16.1754 O   0  0  0  0  0  0  0  0  0  0  0  0
    9.7259   -5.3080   18.4485 C   0  0  0  0  0  0  0  0  0  0  0  0
    9.4578   -5.0200   16.3036 N   0  0  0  0  0  0  0  0  0  0  0  0
    5.0287   -8.9365   16.8223 C   0  0  0  0  0  0  0  0  0  0  0  0
    8.7742   -6.1498   16.6764 C   0  0  0  0  0  0  0  0  0  0  0  0
   10.9418   -3.4032   21.2053 O   0  0  0  0  0  0  0  0  0  0  0  0
    1.4797   -8.6258   16.2950 C   0  0  0  0  0  0  0  0  0  0  0  0
    9.2861   -1.2743   25.3585 C   0  0  0  0  0  0  0  0  0  0  0  0
    1.8892  -10.3985   17.7511 N   0  0  0  0  0  0  0  0  0  0  0  0
    9.6210   -0.6952   24.0976 C   0  0  0  0  0  0  0  0  0  0  0  0
    7.0792   -9.0217   17.1429 C   0  0  0  0  0  0  0  0  0  0  0  0
    3.1713  -10.1816   17.6634 C   0  0  0  0  0  0  0  0  0  0  0  0
    2.7878   -8.3822   16.2137 C   0  0  0  0  0  0  0  0  0  0  0  0
    9.4601   -2.6590   25.6528 C   0  0  0  0  0  0  0  0  0  0  0  0
   10.1182   -1.5672   23.1165 C   0  0  0  0  0  0  0  0  0  0  0  0
    1.0552   -9.6360   17.0650 C   0  0  0  0  0  0  0  0  0  0  0  0
    3.6519   -9.1783   16.9039 C   0  0  0  0  0  0  0  0  0  0  0  0
    7.8675   -7.0096   15.9415 C   0  0  0  0  0  0  0  0  0  0  0  0
    5.9733   -9.6553   17.3832 N   0  0  0  0  0  0  0  0  0  0  0  0
   10.2411   -2.9363   23.4301 C   0  0  0  0  0  0  0  0  0  0  0  0
   10.7288   -3.8197   19.9525 C   0  0  0  0  0  0  0  0  0  0  0  0
   10.1189   -5.0054   19.6987 C   0  0  0  0  0  0  0  0  0  0  0  0
  1  3  4  0
  1  7  4  0
  2 21  4  0
  2 27  4  0
  3  9  4  0
  3 10  4  0
  4  8  4  0
  4 18  4  0
  4 25  1  0
  5  9  4  0
  5 12  4  0
  6 13  1  0
  6 27  1  0
  7 28  4  0
  8 11  4  0
  9 29  4  0
 10 12  4  0
 11 24  1  0
 11 26  4  0
 12 25  1  0
 13 28  1  0
 14 20  4  0
 14 23  4  0
 15 17  4  0
 15 21  4  0
 16 19  4  0
 16 23  4  0
 17 22  4  0
 18 26  4  0
 19 24  4  0
 20 24  4  0
 22 27  4  0
 28 29  4  0
M  END
$$$$

 Created by Python create_sdf_string function

 29 33  0  0  0  0  0  0  0  0999 V2000
   10.7215   -3.3326   17.6437 C   0  0  0  0  0  0  0  0  0  0  0  0
    9.9489   -3.4675   24.6487 N   0  0  0  0  0  0  0  0  0  0  0  0
   10.0172   -4.4740   17.4101 C   0  0  0  0  0  0  0  0  0  0  0  0
    6.9051   -7.9575   16.4222 C   0  0  0  0  0  0  0  0  0  0  0  0
    8.9969   -6.3552   17.9668 N   0  0  0  0  0  0  0  0  0  0  0  0
   10.6702   -3.9051   22.4070 C   0  0  0  0  0  0  0  0  0  0  0  0
   11.0625   -3.0028   18.8894 C   0  0  0  0  0  0  0  0  0  0  0  0
    5.6180   -7.9194   16.1754 O   0  0  0  0  0  0  0  0  0  0  0  0
    9.7259   -5.3080   18.4485 C   0  0  0  0  0  0  0  0  0  0  0  0
    9.4578   -5.0200   16.3036 N   0  0  0  0  0  0  0  0  0  0  0  0
    5.0287   -8.9365   16.8223 C   0  0  0  0  0  0  0  0  0  0  0  0
    8.7742   -6.1498   16.6764 C   0  0  0  0  0  0  0  0  0  0  0  0
   10.9418   -3.4032   21.2053 O   0  0  0  0  0  0  0  0  0  0  0  0
    1.4797   -8.6258   16.2950 C   0  0  0  0  0  0  0  0  0  0  0  0
    9.2861   -1.2743   25.3585 C   0  0  0  0  0  0  0  0  0  0  0  0
    1.8892  -10.3985   17.7511 N   0  0  0  0  0  0  0  0  0  0  0  0
    9.6210   -0.6952   24.0976 C   0  0  0  0  0  0  0  0  0  0  0  0
    7.0792   -9.0217   17.1429 C   0  0  0  0  0  0  0  0  0  0  0  0
    3.1713  -10.1816   17.6634 C   0  0  0  0  0  0  0  0  0  0  0  0
    2.7878   -8.3822   16.2137 C   0  0  0  0  0  0  0  0  0  0  0  0
    9.4601   -2.6590   25.6528 C   0  0  0  0  0  0  0  0  0  0  0  0
   10.1182   -1.5672   23.1165 C   0  0  0  0  0  0  0  0  0  0  0  0
    1.0552   -9.6360   17.0650 C   0  0  0  0  0  0  0  0  0  0  0  0
    3.6519   -9.1783   16.9039 C   0  0  0  0  0  0  0  0  0  0  0  0
    7.8675   -7.0096   15.9415 C   0  0  0  0  0  0  0  0  0  0  0  0
    5.9733   -9.6553   17.3832 N   0  0  0  0  0  0  0  0  0  0  0  0
   10.2411   -2.9363   23.4301 C   0  0  0  0  0  0  0  0  0  0  0  0
   10.7288   -3.8197   19.9525 C   0  0  0  0  0  0  0  0  0  0  0  0
   10.1189   -5.0054   19.6987 C   0  0  0  0  0  0  0  0  0  0  0  0
  1  3  4  0
  1  7  4  0
  2 21  4  0
  2 27  4  0
  3  9  4  0
  3 10  4  0
  4  8  4  0
  4 18  4  0
  4 25  1  0
  5  9  4  0
  5 12  4  0
  6 13  1  0
  6 27  1  0
  7 28  4  0
  8 11  4  0
  9 29  4  0
 10 12  4  0
 11 24  1  0
 11 26  4  0
 12 25  1  0
 13 28  1  0
 14 20  4  0
 14 23  4  0
 15 17  4  0
 15 21  4  0
 16 19  4  0
 16 23  4  0
 17 22  4  0
 18 26  4  0
 19 24  4  0
 20 24  4  0
 22 27  4  0
 28 29  4  0
M  END
$$$$

 Created by Python create_sdf_string function

 29 33  0  0  0  0  0  0  0  0999 V2000
   10.7215   -3.3326   17.6437 C   0  0  0  0  0  0  0  0  0  0  0  0
    9.9489   -3.4675   24.6487 N   0  0  0  0  0  0  0  0  0  0  0  0
   10.0172   -4.4740   17.4101 C   0  0  0  0  0  0  0  0  0  0  0  0
    6.9051   -7.9575   16.4222 C   0  0  0  0  0  0  0  0  0  0  0  0
    8.9969   -6.3552   17.9668 N   0  0  0  0  0  0  0  0  0  0  0  0
   10.6702   -3.9051   22.4070 C   0  0  0  0  0  0  0  0  0  0  0  0
   11.0625   -3.0028   18.8894 C   0  0  0  0  0  0  0  0  0  0  0  0
    5.6180   -7.9194   16.1754 O   0  0  0  0  0  0  0  0  0  0  0  0
    9.7259   -5.3080   18.4485 C   0  0  0  0  0  0  0  0  0  0  0  0
    9.4578   -5.0200   16.3036 N   0  0  0  0  0  0  0  0  0  0  0  0
    5.0287   -8.9365   16.8223 C   0  0  0  0  0  0  0  0  0  0  0  0
    8.7742   -6.1498   16.6764 C   0  0  0  0  0  0  0  0  0  0  0  0
   10.9418   -3.4032   21.2053 O   0  0  0  0  0  0  0  0  0  0  0  0
    1.4797   -8.6258   16.2950 C   0  0  0  0  0  0  0  0  0  0  0  0
    9.2861   -1.2743   25.3585 C   0  0  0  0  0  0  0  0  0  0  0  0
    1.8892  -10.3985   17.7511 N   0  0  0  0  0  0  0  0  0  0  0  0
    9.6210   -0.6952   24.0976 C   0  0  0  0  0  0  0  0  0  0  0  0
    7.0792   -9.0217   17.1429 C   0  0  0  0  0  0  0  0  0  0  0  0
    3.1713  -10.1816   17.6634 C   0  0  0  0  0  0  0  0  0  0  0  0
    2.7878   -8.3822   16.2137 C   0  0  0  0  0  0  0  0  0  0  0  0
    9.4601   -2.6590   25.6528 C   0  0  0  0  0  0  0  0  0  0  0  0
   10.1182   -1.5672   23.1165 C   0  0  0  0  0  0  0  0  0  0  0  0
    1.0552   -9.6360   17.0650 C   0  0  0  0  0  0  0  0  0  0  0  0
    3.6519   -9.1783   16.9039 C   0  0  0  0  0  0  0  0  0  0  0  0
    7.8675   -7.0096   15.9415 C   0  0  0  0  0  0  0  0  0  0  0  0
    5.9733   -9.6553   17.3832 N   0  0  0  0  0  0  0  0  0  0  0  0
   10.2411   -2.9363   23.4301 C   0  0  0  0  0  0  0  0  0  0  0  0
   10.7288   -3.8197   19.9525 C   0  0  0  0  0  0  0  0  0  0  0  0
   10.1189   -5.0054   19.6987 C   0  0  0  0  0  0  0  0  0  0  0  0
  1  3  4  0
  1  7  4  0
  2 21  4  0
  2 27  4  0
  3  9  4  0
  3 10  4  0
  4  8  4  0
  4 18  4  0
  4 25  1  0
  5  9  4  0
  5 12  4  0
  6 13  1  0
  6 27  1  0
  7 28  4  0
  8 11  4  0
  9 29  4  0
 10 12  4  0
 11 24  1  0
 11 26  4  0
 12 25  1  0
 13 28  1  0
 14 20  4  0
 14 23  4  0
 15 17  4  0
 15 21  4  0
 16 19  4  0
 16 23  4  0
 17 22  4  0
 18 26  4  0
 19 24  4  0
 20 24  4  0
 22 27  4  0
 28 29  4  0
M  END
$$$$

 Created by Python create_sdf_string function

 29 33  0  0  0  0  0  0  0  0999 V2000
   10.7215   -3.3326   17.6437 C   0  0  0  0  0  0  0  0  0  0  0  0
    9.9489   -3.4675   24.6487 N   0  0  0  0  0  0  0  0  0  0  0  0
   10.0172   -4.4740   17.4101 C   0  0  0  0  0  0  0  0  0  0  0  0
    6.9051   -7.9575   16.4222 C   0  0  0  0  0  0  0  0  0  0  0  0
    8.9969   -6.3552   17.9668 N   0  0  0  0  0  0  0  0  0  0  0  0
   10.6702   -3.9051   22.4070 C   0  0  0  0  0  0  0  0  0  0  0  0
   11.0625   -3.0028   18.8894 C   0  0  0  0  0  0  0  0  0  0  0  0
    5.6180   -7.9194   16.1754 O   0  0  0  0  0  0  0  0  0  0  0  0
    9.7259   -5.3080   18.4485 C   0  0  0  0  0  0  0  0  0  0  0  0
    9.4578   -5.0200   16.3036 N   0  0  0  0  0  0  0  0  0  0  0  0
    5.0287   -8.9365   16.8223 C   0  0  0  0  0  0  0  0  0  0  0  0
    8.7742   -6.1498   16.6764 C   0  0  0  0  0  0  0  0  0  0  0  0
   10.9418   -3.4032   21.2053 O   0  0  0  0  0  0  0  0  0  0  0  0
    1.4797   -8.6258   16.2950 C   0  0  0  0  0  0  0  0  0  0  0  0
    9.2861   -1.2743   25.3585 C   0  0  0  0  0  0  0  0  0  0  0  0
    1.8892  -10.3985   17.7511 N   0  0  0  0  0  0  0  0  0  0  0  0
    9.6210   -0.6952   24.0976 C   0  0  0  0  0  0  0  0  0  0  0  0
    7.0792   -9.0217   17.1429 C   0  0  0  0  0  0  0  0  0  0  0  0
    3.1713  -10.1816   17.6634 C   0  0  0  0  0  0  0  0  0  0  0  0
    2.7878   -8.3822   16.2137 C   0  0  0  0  0  0  0  0  0  0  0  0
    9.4601   -2.6590   25.6528 C   0  0  0  0  0  0  0  0  0  0  0  0
   10.1182   -1.5672   23.1165 C   0  0  0  0  0  0  0  0  0  0  0  0
    1.0552   -9.6360   17.0650 C   0  0  0  0  0  0  0  0  0  0  0  0
    3.6519   -9.1783   16.9039 C   0  0  0  0  0  0  0  0  0  0  0  0
    7.8675   -7.0096   15.9415 C   0  0  0  0  0  0  0  0  0  0  0  0
    5.9733   -9.6553   17.3832 N   0  0  0  0  0  0  0  0  0  0  0  0
   10.2411   -2.9363   23.4301 C   0  0  0  0  0  0  0  0  0  0  0  0
   10.7288   -3.8197   19.9525 C   0  0  0  0  0  0  0  0  0  0  0  0
   10.1189   -5.0054   19.6987 C   0  0  0  0  0  0  0  0  0  0  0  0
  1  3  4  0
  1  7  4  0
  2 21  4  0
  2 27  4  0
  3  9  4  0
  3 10  4  0
  4  8  4  0
  4 18  4  0
  4 25  1  0
  5  9  4  0
  5 12  4  0
  6 13  1  0
  6 27  1  0
  7 28  4  0
  8 11  4  0
  9 29  4  0
 10 12  4  0
 11 24  1  0
 11 26  4  0
 12 25  1  0
 13 28  1  0
 14 20  4  0
 14 23  4  0
 15 17  4  0
 15 21  4  0
 16 19  4  0
 16 23  4  0
 17 22  4  0
 18 26  4  0
 19 24  4  0
 20 24  4  0
 22 27  4  0
 28 29  4  0
M  END
$$$$

 Created by Python create_sdf_string function

 29 33  0  0  0  0  0  0  0  0999 V2000
   10.7215   -3.3326   17.6437 C   0  0  0  0  0  0  0  0  0  0  0  0
    9.9489   -3.4675   24.6487 N   0  0  0  0  0  0  0  0  0  0  0  0
   10.0172   -4.4740   17.4101 C   0  0  0  0  0  0  0  0  0  0  0  0
    6.9051   -7.9575   16.4222 C   0  0  0  0  0  0  0  0  0  0  0  0
    8.9969   -6.3552   17.9668 N   0  0  0  0  0  0  0  0  0  0  0  0
   10.6702   -3.9051   22.4070 C   0  0  0  0  0  0  0  0  0  0  0  0
   11.0625   -3.0028   18.8894 C   0  0  0  0  0  0  0  0  0  0  0  0
    5.6180   -7.9194   16.1754 O   0  0  0  0  0  0  0  0  0  0  0  0
    9.7259   -5.3080   18.4485 C   0  0  0  0  0  0  0  0  0  0  0  0
    9.4578   -5.0200   16.3036 N   0  0  0  0  0  0  0  0  0  0  0  0
    5.0287   -8.9365   16.8223 C   0  0  0  0  0  0  0  0  0  0  0  0
    8.7742   -6.1498   16.6764 C   0  0  0  0  0  0  0  0  0  0  0  0
   10.9418   -3.4032   21.2053 O   0  0  0  0  0  0  0  0  0  0  0  0
    1.4797   -8.6258   16.2950 C   0  0  0  0  0  0  0  0  0  0  0  0
    9.2861   -1.2743   25.3585 C   0  0  0  0  0  0  0  0  0  0  0  0
    1.8892  -10.3985   17.7511 N   0  0  0  0  0  0  0  0  0  0  0  0
    9.6210   -0.6952   24.0976 C   0  0  0  0  0  0  0  0  0  0  0  0
    7.0792   -9.0217   17.1429 C   0  0  0  0  0  0  0  0  0  0  0  0
    3.1713  -10.1816   17.6634 C   0  0  0  0  0  0  0  0  0  0  0  0
    2.7878   -8.3822   16.2137 C   0  0  0  0  0  0  0  0  0  0  0  0
    9.4601   -2.6590   25.6528 C   0  0  0  0  0  0  0  0  0  0  0  0
   10.1182   -1.5672   23.1165 C   0  0  0  0  0  0  0  0  0  0  0  0
    1.0552   -9.6360   17.0650 C   0  0  0  0  0  0  0  0  0  0  0  0
    3.6519   -9.1783   16.9039 C   0  0  0  0  0  0  0  0  0  0  0  0
    7.8675   -7.0096   15.9415 C   0  0  0  0  0  0  0  0  0  0  0  0
    5.9733   -9.6553   17.3832 N   0  0  0  0  0  0  0  0  0  0  0  0
   10.2411   -2.9363   23.4301 C   0  0  0  0  0  0  0  0  0  0  0  0
   10.7288   -3.8197   19.9525 C   0  0  0  0  0  0  0  0  0  0  0  0
   10.1189   -5.0054   19.6987 C   0  0  0  0  0  0  0  0  0  0  0  0
  1  3  4  0
  1  7  4  0
  2 21  4  0
  2 27  4  0
  3  9  4  0
  3 10  4  0
  4  8  4  0
  4 18  4  0
  4 25  1  0
  5  9  4  0
  5 12  4  0
  6 13  1  0
  6 27  1  0
  7 28  4  0
  8 11  4  0
  9 29  4  0
 10 12  4  0
 11 24  1  0
 11 26  4  0
 12 25  1  0
 13 28  1  0
 14 20  4  0
 14 23  4  0
 15 17  4  0
 15 21  4  0
 16 19  4  0
 16 23  4  0
 17 22  4  0
 18 26  4  0
 19 24  4  0
 20 24  4  0
 22 27  4  0
 28 29  4  0
M  END
$$$$

 Created by Python create_sdf_string function

 29 33  0  0  0  0  0  0  0  0999 V2000
   10.7215   -3.3326   17.6437 C   0  0  0  0  0  0  0  0  0  0  0  0
    9.9489   -3.4675   24.6487 N   0  0  0  0  0  0  0  0  0  0  0  0
   10.0172   -4.4740   17.4101 C   0  0  0  0  0  0  0  0  0  0  0  0
    6.9051   -7.9575   16.4222 C   0  0  0  0  0  0  0  0  0  0  0  0
    8.9969   -6.3552   17.9668 N   0  0  0  0  0  0  0  0  0  0  0  0
   10.6702   -3.9051   22.4070 C   0  0  0  0  0  0  0  0  0  0  0  0
   11.0625   -3.0028   18.8894 C   0  0  0  0  0  0  0  0  0  0  0  0
    5.6180   -7.9194   16.1754 O   0  0  0  0  0  0  0  0  0  0  0  0
    9.7259   -5.3080   18.4485 C   0  0  0  0  0  0  0  0  0  0  0  0
    9.4578   -5.0200   16.3036 N   0  0  0  0  0  0  0  0  0  0  0  0
    5.0287   -8.9365   16.8223 C   0  0  0  0  0  0  0  0  0  0  0  0
    8.7742   -6.1498   16.6764 C   0  0  0  0  0  0  0  0  0  0  0  0
   10.9418   -3.4032   21.2053 O   0  0  0  0  0  0  0  0  0  0  0  0
    1.4797   -8.6258   16.2950 C   0  0  0  0  0  0  0  0  0  0  0  0
    9.2861   -1.2743   25.3585 C   0  0  0  0  0  0  0  0  0  0  0  0
    1.8892  -10.3985   17.7511 N   0  0  0  0  0  0  0  0  0  0  0  0
    9.6210   -0.6952   24.0976 C   0  0  0  0  0  0  0  0  0  0  0  0
    7.0792   -9.0217   17.1429 C   0  0  0  0  0  0  0  0  0  0  0  0
    3.1713  -10.1816   17.6634 C   0  0  0  0  0  0  0  0  0  0  0  0
    2.7878   -8.3822   16.2137 C   0  0  0  0  0  0  0  0  0  0  0  0
    9.4601   -2.6590   25.6528 C   0  0  0  0  0  0  0  0  0  0  0  0
   10.1182   -1.5672   23.1165 C   0  0  0  0  0  0  0  0  0  0  0  0
    1.0552   -9.6360   17.0650 C   0  0  0  0  0  0  0  0  0  0  0  0
    3.6519   -9.1783   16.9039 C   0  0  0  0  0  0  0  0  0  0  0  0
    7.8675   -7.0096   15.9415 C   0  0  0  0  0  0  0  0  0  0  0  0
    5.9733   -9.6553   17.3832 N   0  0  0  0  0  0  0  0  0  0  0  0
   10.2411   -2.9363   23.4301 C   0  0  0  0  0  0  0  0  0  0  0  0
   10.7288   -3.8197   19.9525 C   0  0  0  0  0  0  0  0  0  0  0  0
   10.1189   -5.0054   19.6987 C   0  0  0  0  0  0  0  0  0  0  0  0
  1  3  4  0
  1  7  4  0
  2 21  4  0
  2 27  4  0
  3  9  4  0
  3 10  4  0
  4  8  4  0
  4 18  4  0
  4 25  1  0
  5  9  4  0
  5 12  4  0
  6 13  1  0
  6 27  1  0
  7 28  4  0
  8 11  4  0
  9 29  4  0
 10 12  4  0
 11 24  1  0
 11 26  4  0
 12 25  1  0
 13 28  1  0
 14 20  4  0
 14 23  4  0
 15 17  4  0
 15 21  4  0
 16 19  4  0
 16 23  4  0
 17 22  4  0
 18 26  4  0
 19 24  4  0
 20 24  4  0
 22 27  4  0
 28 29  4  0
M  END
$$$$

 Created by Python create_sdf_string function

 29 33  0  0  0  0  0  0  0  0999 V2000
   10.7215   -3.3326   17.6437 C   0  0  0  0  0  0  0  0  0  0  0  0
    9.9489   -3.4675   24.6487 N   0  0  0  0  0  0  0  0  0  0  0  0
   10.0172   -4.4740   17.4101 C   0  0  0  0  0  0  0  0  0  0  0  0
    6.9051   -7.9575   16.4222 C   0  0  0  0  0  0  0  0  0  0  0  0
    8.9969   -6.3552   17.9668 N   0  0  0  0  0  0  0  0  0  0  0  0
   10.6702   -3.9051   22.4070 C   0  0  0  0  0  0  0  0  0  0  0  0
   11.0625   -3.0028   18.8894 C   0  0  0  0  0  0  0  0  0  0  0  0
    5.6180   -7.9194   16.1754 O   0  0  0  0  0  0  0  0  0  0  0  0
    9.7259   -5.3080   18.4485 C   0  0  0  0  0  0  0  0  0  0  0  0
    9.4578   -5.0200   16.3036 N   0  0  0  0  0  0  0  0  0  0  0  0
    5.0287   -8.9365   16.8223 C   0  0  0  0  0  0  0  0  0  0  0  0
    8.7742   -6.1498   16.6764 C   0  0  0  0  0  0  0  0  0  0  0  0
   10.9418   -3.4032   21.2053 O   0  0  0  0  0  0  0  0  0  0  0  0
    1.4797   -8.6258   16.2950 C   0  0  0  0  0  0  0  0  0  0  0  0
    9.2861   -1.2743   25.3585 C   0  0  0  0  0  0  0  0  0  0  0  0
    1.8892  -10.3985   17.7511 N   0  0  0  0  0  0  0  0  0  0  0  0
    9.6210   -0.6952   24.0976 C   0  0  0  0  0  0  0  0  0  0  0  0
    7.0792   -9.0217   17.1429 C   0  0  0  0  0  0  0  0  0  0  0  0
    3.1713  -10.1816   17.6634 C   0  0  0  0  0  0  0  0  0  0  0  0
    2.7878   -8.3822   16.2137 C   0  0  0  0  0  0  0  0  0  0  0  0
    9.4601   -2.6590   25.6528 C   0  0  0  0  0  0  0  0  0  0  0  0
   10.1182   -1.5672   23.1165 C   0  0  0  0  0  0  0  0  0  0  0  0
    1.0552   -9.6360   17.0650 C   0  0  0  0  0  0  0  0  0  0  0  0
    3.6519   -9.1783   16.9039 C   0  0  0  0  0  0  0  0  0  0  0  0
    7.8675   -7.0096   15.9415 C   0  0  0  0  0  0  0  0  0  0  0  0
    5.9733   -9.6553   17.3832 N   0  0  0  0  0  0  0  0  0  0  0  0
   10.2411   -2.9363   23.4301 C   0  0  0  0  0  0  0  0  0  0  0  0
   10.7288   -3.8197   19.9525 C   0  0  0  0  0  0  0  0  0  0  0  0
   10.1189   -5.0054   19.6987 C   0  0  0  0  0  0  0  0  0  0  0  0
  1  3  4  0
  1  7  4  0
  2 21  4  0
  2 27  4  0
  3  9  4  0
  3 10  4  0
  4  8  4  0
  4 18  4  0
  4 25  1  0
  5  9  4  0
  5 12  4  0
  6 13  1  0
  6 27  1  0
  7 28  4  0
  8 11  4  0
  9 29  4  0
 10 12  4  0
 11 24  1  0
 11 26  4  0
 12 25  1  0
 13 28  1  0
 14 20  4  0
 14 23  4  0
 15 17  4  0
 15 21  4  0
 16 19  4  0
 16 23  4  0
 17 22  4  0
 18 26  4  0
 19 24  4  0
 20 24  4  0
 22 27  4  0
 28 29  4  0
M  END
$$$$

 Created by Python create_sdf_string function

 29 33  0  0  0  0  0  0  0  0999 V2000
   10.7215   -3.3326   17.6437 C   0  0  0  0  0  0  0  0  0  0  0  0
    9.9489   -3.4675   24.6487 N   0  0  0  0  0  0  0  0  0  0  0  0
   10.0172   -4.4740   17.4101 C   0  0  0  0  0  0  0  0  0  0  0  0
    6.9051   -7.9575   16.4222 C   0  0  0  0  0  0  0  0  0  0  0  0
    8.9969   -6.3552   17.9668 N   0  0  0  0  0  0  0  0  0  0  0  0
   10.6702   -3.9051   22.4070 C   0  0  0  0  0  0  0  0  0  0  0  0
   11.0625   -3.0028   18.8894 C   0  0  0  0  0  0  0  0  0  0  0  0
    5.6180   -7.9194   16.1754 O   0  0  0  0  0  0  0  0  0  0  0  0
    9.7259   -5.3080   18.4485 C   0  0  0  0  0  0  0  0  0  0  0  0
    9.4578   -5.0200   16.3036 N   0  0  0  0  0  0  0  0  0  0  0  0
    5.0287   -8.9365   16.8223 C   0  0  0  0  0  0  0  0  0  0  0  0
    8.7742   -6.1498   16.6764 C   0  0  0  0  0  0  0  0  0  0  0  0
   10.9418   -3.4032   21.2053 O   0  0  0  0  0  0  0  0  0  0  0  0
    1.4797   -8.6258   16.2950 C   0  0  0  0  0  0  0  0  0  0  0  0
    9.2861   -1.2743   25.3585 C   0  0  0  0  0  0  0  0  0  0  0  0
    1.8892  -10.3985   17.7511 N   0  0  0  0  0  0  0  0  0  0  0  0
    9.6210   -0.6952   24.0976 C   0  0  0  0  0  0  0  0  0  0  0  0
    7.0792   -9.0217   17.1429 C   0  0  0  0  0  0  0  0  0  0  0  0
    3.1713  -10.1816   17.6634 C   0  0  0  0  0  0  0  0  0  0  0  0
    2.7878   -8.3822   16.2137 C   0  0  0  0  0  0  0  0  0  0  0  0
    9.4601   -2.6590   25.6528 C   0  0  0  0  0  0  0  0  0  0  0  0
   10.1182   -1.5672   23.1165 C   0  0  0  0  0  0  0  0  0  0  0  0
    1.0552   -9.6360   17.0650 C   0  0  0  0  0  0  0  0  0  0  0  0
    3.6519   -9.1783   16.9039 C   0  0  0  0  0  0  0  0  0  0  0  0
    7.8675   -7.0096   15.9415 C   0  0  0  0  0  0  0  0  0  0  0  0
    5.9733   -9.6553   17.3832 N   0  0  0  0  0  0  0  0  0  0  0  0
   10.2411   -2.9363   23.4301 C   0  0  0  0  0  0  0  0  0  0  0  0
   10.7288   -3.8197   19.9525 C   0  0  0  0  0  0  0  0  0  0  0  0
   10.1189   -5.0054   19.6987 C   0  0  0  0  0  0  0  0  0  0  0  0
  1  3  4  0
  1  7  4  0
  2 21  4  0
  2 27  4  0
  3  9  4  0
  3 10  4  0
  4  8  4  0
  4 18  4  0
  4 25  1  0
  5  9  4  0
  5 12  4  0
  6 13  1  0
  6 27  1  0
  7 28  4  0
  8 11  4  0
  9 29  4  0
 10 12  4  0
 11 24  1  0
 11 26  4  0
 12 25  1  0
 13 28  1  0
 14 20  4  0
 14 23  4  0
 15 17  4  0
 15 21  4  0
 16 19  4  0
 16 23  4  0
 17 22  4  0
 18 26  4  0
 19 24  4  0
 20 24  4  0
 22 27  4  0
 28 29  4  0
M  END
$$$$

 Created by Python create_sdf_string function

 29 33  0  0  0  0  0  0  0  0999 V2000
   10.7215   -3.3326   17.6437 C   0  0  0  0  0  0  0  0  0  0  0  0
    9.9489   -3.4675   24.6487 N   0  0  0  0  0  0  0  0  0  0  0  0
   10.0172   -4.4740   17.4101 C   0  0  0  0  0  0  0  0  0  0  0  0
    6.9051   -7.9575   16.4222 C   0  0  0  0  0  0  0  0  0  0  0  0
    8.9969   -6.3552   17.9668 N   0  0  0  0  0  0  0  0  0  0  0  0
   10.6702   -3.9051   22.4070 C   0  0  0  0  0  0  0  0  0  0  0  0
   11.0625   -3.0028   18.8894 C   0  0  0  0  0  0  0  0  0  0  0  0
    5.6180   -7.9194   16.1754 O   0  0  0  0  0  0  0  0  0  0  0  0
    9.7259   -5.3080   18.4485 C   0  0  0  0  0  0  0  0  0  0  0  0
    9.4578   -5.0200   16.3036 N   0  0  0  0  0  0  0  0  0  0  0  0
    5.0287   -8.9365   16.8223 C   0  0  0  0  0  0  0  0  0  0  0  0
    8.7742   -6.1498   16.6764 C   0  0  0  0  0  0  0  0  0  0  0  0
   10.9418   -3.4032   21.2053 O   0  0  0  0  0  0  0  0  0  0  0  0
    1.4797   -8.6258   16.2950 C   0  0  0  0  0  0  0  0  0  0  0  0
    9.2861   -1.2743   25.3585 C   0  0  0  0  0  0  0  0  0  0  0  0
    1.8892  -10.3985   17.7511 N   0  0  0  0  0  0  0  0  0  0  0  0
    9.6210   -0.6952   24.0976 C   0  0  0  0  0  0  0  0  0  0  0  0
    7.0792   -9.0217   17.1429 C   0  0  0  0  0  0  0  0  0  0  0  0
    3.1713  -10.1816   17.6634 C   0  0  0  0  0  0  0  0  0  0  0  0
    2.7878   -8.3822   16.2137 C   0  0  0  0  0  0  0  0  0  0  0  0
    9.4601   -2.6590   25.6528 C   0  0  0  0  0  0  0  0  0  0  0  0
   10.1182   -1.5672   23.1165 C   0  0  0  0  0  0  0  0  0  0  0  0
    1.0552   -9.6360   17.0650 C   0  0  0  0  0  0  0  0  0  0  0  0
    3.6519   -9.1783   16.9039 C   0  0  0  0  0  0  0  0  0  0  0  0
    7.8675   -7.0096   15.9415 C   0  0  0  0  0  0  0  0  0  0  0  0
    5.9733   -9.6553   17.3832 N   0  0  0  0  0  0  0  0  0  0  0  0
   10.2411   -2.9363   23.4301 C   0  0  0  0  0  0  0  0  0  0  0  0
   10.7288   -3.8197   19.9525 C   0  0  0  0  0  0  0  0  0  0  0  0
   10.1189   -5.0054   19.6987 C   0  0  0  0  0  0  0  0  0  0  0  0
  1  3  4  0
  1  7  4  0
  2 21  4  0
  2 27  4  0
  3  9  4  0
  3 10  4  0
  4  8  4  0
  4 18  4  0
  4 25  1  0
  5  9  4  0
  5 12  4  0
  6 13  1  0
  6 27  1  0
  7 28  4  0
  8 11  4  0
  9 29  4  0
 10 12  4  0
 11 24  1  0
 11 26  4  0
 12 25  1  0
 13 28  1  0
 14 20  4  0
 14 23  4  0
 15 17  4  0
 15 21  4  0
 16 19  4  0
 16 23  4  0
 17 22  4  0
 18 26  4  0
 19 24  4  0
 20 24  4  0
 22 27  4  0
 28 29  4  0
M  END
$$$$

 Created by Python create_sdf_string function

 29 33  0  0  0  0  0  0  0  0999 V2000
   10.7215   -3.3326   17.6437 C   0  0  0  0  0  0  0  0  0  0  0  0
    9.9489   -3.4675   24.6487 N   0  0  0  0  0  0  0  0  0  0  0  0
   10.0172   -4.4740   17.4101 C   0  0  0  0  0  0  0  0  0  0  0  0
    6.9051   -7.9575   16.4222 C   0  0  0  0  0  0  0  0  0  0  0  0
    8.9969   -6.3552   17.9668 N   0  0  0  0  0  0  0  0  0  0  0  0
   10.6702   -3.9051   22.4070 C   0  0  0  0  0  0  0  0  0  0  0  0
   11.0625   -3.0028   18.8894 C   0  0  0  0  0  0  0  0  0  0  0  0
    5.6180   -7.9194   16.1754 O   0  0  0  0  0  0  0  0  0  0  0  0
    9.7259   -5.3080   18.4485 C   0  0  0  0  0  0  0  0  0  0  0  0
    9.4578   -5.0200   16.3036 N   0  0  0  0  0  0  0  0  0  0  0  0
    5.0287   -8.9365   16.8223 C   0  0  0  0  0  0  0  0  0  0  0  0
    8.7742   -6.1498   16.6764 C   0  0  0  0  0  0  0  0  0  0  0  0
   10.9418   -3.4032   21.2053 O   0  0  0  0  0  0  0  0  0  0  0  0
    1.4797   -8.6258   16.2950 C   0  0  0  0  0  0  0  0  0  0  0  0
    9.2861   -1.2743   25.3585 C   0  0  0  0  0  0  0  0  0  0  0  0
    1.8892  -10.3985   17.7511 N   0  0  0  0  0  0  0  0  0  0  0  0
    9.6210   -0.6952   24.0976 C   0  0  0  0  0  0  0  0  0  0  0  0
    7.0792   -9.0217   17.1429 C   0  0  0  0  0  0  0  0  0  0  0  0
    3.1713  -10.1816   17.6634 C   0  0  0  0  0  0  0  0  0  0  0  0
    2.7878   -8.3822   16.2137 C   0  0  0  0  0  0  0  0  0  0  0  0
    9.4601   -2.6590   25.6528 C   0  0  0  0  0  0  0  0  0  0  0  0
   10.1182   -1.5672   23.1165 C   0  0  0  0  0  0  0  0  0  0  0  0
    1.0552   -9.6360   17.0650 C   0  0  0  0  0  0  0  0  0  0  0  0
    3.6519   -9.1783   16.9039 C   0  0  0  0  0  0  0  0  0  0  0  0
    7.8675   -7.0096   15.9415 C   0  0  0  0  0  0  0  0  0  0  0  0
    5.9733   -9.6553   17.3832 N   0  0  0  0  0  0  0  0  0  0  0  0
   10.2411   -2.9363   23.4301 C   0  0  0  0  0  0  0  0  0  0  0  0
   10.7288   -3.8197   19.9525 C   0  0  0  0  0  0  0  0  0  0  0  0
   10.1189   -5.0054   19.6987 C   0  0  0  0  0  0  0  0  0  0  0  0
  1  3  4  0
  1  7  4  0
  2 21  4  0
  2 27  4  0
  3  9  4  0
  3 10  4  0
  4  8  4  0
  4 18  4  0
  4 25  1  0
  5  9  4  0
  5 12  4  0
  6 13  1  0
  6 27  1  0
  7 28  4  0
  8 11  4  0
  9 29  4  0
 10 12  4  0
 11 24  1  0
 11 26  4  0
 12 25  1  0
 13 28  1  0
 14 20  4  0
 14 23  4  0
 15 17  4  0
 15 21  4  0
 16 19  4  0
 16 23  4  0
 17 22  4  0
 18 26  4  0
 19 24  4  0
 20 24  4  0
 22 27  4  0
 28 29  4  0
M  END
$$$$

 Created by Python create_sdf_string function

 29 33  0  0  0  0  0  0  0  0999 V2000
   10.7215   -3.3326   17.6437 C   0  0  0  0  0  0  0  0  0  0  0  0
    9.9489   -3.4675   24.6487 N   0  0  0  0  0  0  0  0  0  0  0  0
   10.0172   -4.4740   17.4101 C   0  0  0  0  0  0  0  0  0  0  0  0
    6.9051   -7.9575   16.4222 C   0  0  0  0  0  0  0  0  0  0  0  0
    8.9969   -6.3552   17.9668 N   0  0  0  0  0  0  0  0  0  0  0  0
   10.6702   -3.9051   22.4070 C   0  0  0  0  0  0  0  0  0  0  0  0
   11.0625   -3.0028   18.8894 C   0  0  0  0  0  0  0  0  0  0  0  0
    5.6180   -7.9194   16.1754 O   0  0  0  0  0  0  0  0  0  0  0  0
    9.7259   -5.3080   18.4485 C   0  0  0  0  0  0  0  0  0  0  0  0
    9.4578   -5.0200   16.3036 N   0  0  0  0  0  0  0  0  0  0  0  0
    5.0287   -8.9365   16.8223 C   0  0  0  0  0  0  0  0  0  0  0  0
    8.7742   -6.1498   16.6764 C   0  0  0  0  0  0  0  0  0  0  0  0
   10.9418   -3.4032   21.2053 O   0  0  0  0  0  0  0  0  0  0  0  0
    1.4797   -8.6258   16.2950 C   0  0  0  0  0  0  0  0  0  0  0  0
    9.2861   -1.2743   25.3585 C   0  0  0  0  0  0  0  0  0  0  0  0
    1.8892  -10.3985   17.7511 N   0  0  0  0  0  0  0  0  0  0  0  0
    9.6210   -0.6952   24.0976 C   0  0  0  0  0  0  0  0  0  0  0  0
    7.0792   -9.0217   17.1429 C   0  0  0  0  0  0  0  0  0  0  0  0
    3.1713  -10.1816   17.6634 C   0  0  0  0  0  0  0  0  0  0  0  0
    2.7878   -8.3822   16.2137 C   0  0  0  0  0  0  0  0  0  0  0  0
    9.4601   -2.6590   25.6528 C   0  0  0  0  0  0  0  0  0  0  0  0
   10.1182   -1.5672   23.1165 C   0  0  0  0  0  0  0  0  0  0  0  0
    1.0552   -9.6360   17.0650 C   0  0  0  0  0  0  0  0  0  0  0  0
    3.6519   -9.1783   16.9039 C   0  0  0  0  0  0  0  0  0  0  0  0
    7.8675   -7.0096   15.9415 C   0  0  0  0  0  0  0  0  0  0  0  0
    5.9733   -9.6553   17.3832 N   0  0  0  0  0  0  0  0  0  0  0  0
   10.2411   -2.9363   23.4301 C   0  0  0  0  0  0  0  0  0  0  0  0
   10.7288   -3.8197   19.9525 C   0  0  0  0  0  0  0  0  0  0  0  0
   10.1189   -5.0054   19.6987 C   0  0  0  0  0  0  0  0  0  0  0  0
  1  3  4  0
  1  7  4  0
  2 21  4  0
  2 27  4  0
  3  9  4  0
  3 10  4  0
  4  8  4  0
  4 18  4  0
  4 25  1  0
  5  9  4  0
  5 12  4  0
  6 13  1  0
  6 27  1  0
  7 28  4  0
  8 11  4  0
  9 29  4  0
 10 12  4  0
 11 24  1  0
 11 26  4  0
 12 25  1  0
 13 28  1  0
 14 20  4  0
 14 23  4  0
 15 17  4  0
 15 21  4  0
 16 19  4  0
 16 23  4  0
 17 22  4  0
 18 26  4  0
 19 24  4  0
 20 24  4  0
 22 27  4  0
 28 29  4  0
M  END
$$$$

 Created by Python create_sdf_string function

 29 33  0  0  0  0  0  0  0  0999 V2000
   10.7215   -3.3326   17.6437 C   0  0  0  0  0  0  0  0  0  0  0  0
    9.9489   -3.4675   24.6487 N   0  0  0  0  0  0  0  0  0  0  0  0
   10.0172   -4.4740   17.4101 C   0  0  0  0  0  0  0  0  0  0  0  0
    6.9051   -7.9575   16.4222 C   0  0  0  0  0  0  0  0  0  0  0  0
    8.9969   -6.3552   17.9668 N   0  0  0  0  0  0  0  0  0  0  0  0
   10.6702   -3.9051   22.4070 C   0  0  0  0  0  0  0  0  0  0  0  0
   11.0625   -3.0028   18.8894 C   0  0  0  0  0  0  0  0  0  0  0  0
    5.6180   -7.9194   16.1754 O   0  0  0  0  0  0  0  0  0  0  0  0
    9.7259   -5.3080   18.4485 C   0  0  0  0  0  0  0  0  0  0  0  0
    9.4578   -5.0200   16.3036 N   0  0  0  0  0  0  0  0  0  0  0  0
    5.0287   -8.9365   16.8223 C   0  0  0  0  0  0  0  0  0  0  0  0
    8.7742   -6.1498   16.6764 C   0  0  0  0  0  0  0  0  0  0  0  0
   10.9418   -3.4032   21.2053 O   0  0  0  0  0  0  0  0  0  0  0  0
    1.4797   -8.6258   16.2950 C   0  0  0  0  0  0  0  0  0  0  0  0
    9.2861   -1.2743   25.3585 C   0  0  0  0  0  0  0  0  0  0  0  0
    1.8892  -10.3985   17.7511 N   0  0  0  0  0  0  0  0  0  0  0  0
    9.6210   -0.6952   24.0976 C   0  0  0  0  0  0  0  0  0  0  0  0
    7.0792   -9.0217   17.1429 C   0  0  0  0  0  0  0  0  0  0  0  0
    3.1713  -10.1816   17.6634 C   0  0  0  0  0  0  0  0  0  0  0  0
    2.7878   -8.3822   16.2137 C   0  0  0  0  0  0  0  0  0  0  0  0
    9.4601   -2.6590   25.6528 C   0  0  0  0  0  0  0  0  0  0  0  0
   10.1182   -1.5672   23.1165 C   0  0  0  0  0  0  0  0  0  0  0  0
    1.0552   -9.6360   17.0650 C   0  0  0  0  0  0  0  0  0  0  0  0
    3.6519   -9.1783   16.9039 C   0  0  0  0  0  0  0  0  0  0  0  0
    7.8675   -7.0096   15.9415 C   0  0  0  0  0  0  0  0  0  0  0  0
    5.9733   -9.6553   17.3832 N   0  0  0  0  0  0  0  0  0  0  0  0
   10.2411   -2.9363   23.4301 C   0  0  0  0  0  0  0  0  0  0  0  0
   10.7288   -3.8197   19.9525 C   0  0  0  0  0  0  0  0  0  0  0  0
   10.1189   -5.0054   19.6987 C   0  0  0  0  0  0  0  0  0  0  0  0
  1  3  4  0
  1  7  4  0
  2 21  4  0
  2 27  4  0
  3  9  4  0
  3 10  4  0
  4  8  4  0
  4 18  4  0
  4 25  1  0
  5  9  4  0
  5 12  4  0
  6 13  1  0
  6 27  1  0
  7 28  4  0
  8 11  4  0
  9 29  4  0
 10 12  4  0
 11 24  1  0
 11 26  4  0
 12 25  1  0
 13 28  1  0
 14 20  4  0
 14 23  4  0
 15 17  4  0
 15 21  4  0
 16 19  4  0
 16 23  4  0
 17 22  4  0
 18 26  4  0
 19 24  4  0
 20 24  4  0
 22 27  4  0
 28 29  4  0
M  END
$$$$

 Created by Python create_sdf_string function

 29 33  0  0  0  0  0  0  0  0999 V2000
   10.7215   -3.3326   17.6437 C   0  0  0  0  0  0  0  0  0  0  0  0
    9.9489   -3.4675   24.6487 N   0  0  0  0  0  0  0  0  0  0  0  0
   10.0172   -4.4740   17.4101 C   0  0  0  0  0  0  0  0  0  0  0  0
    6.9051   -7.9575   16.4222 C   0  0  0  0  0  0  0  0  0  0  0  0
    8.9969   -6.3552   17.9668 N   0  0  0  0  0  0  0  0  0  0  0  0
   10.6702   -3.9051   22.4070 C   0  0  0  0  0  0  0  0  0  0  0  0
   11.0625   -3.0028   18.8894 C   0  0  0  0  0  0  0  0  0  0  0  0
    5.6180   -7.9194   16.1754 O   0  0  0  0  0  0  0  0  0  0  0  0
    9.7259   -5.3080   18.4485 C   0  0  0  0  0  0  0  0  0  0  0  0
    9.4578   -5.0200   16.3036 N   0  0  0  0  0  0  0  0  0  0  0  0
    5.0287   -8.9365   16.8223 C   0  0  0  0  0  0  0  0  0  0  0  0
    8.7742   -6.1498   16.6764 C   0  0  0  0  0  0  0  0  0  0  0  0
   10.9418   -3.4032   21.2053 O   0  0  0  0  0  0  0  0  0  0  0  0
    1.4797   -8.6258   16.2950 C   0  0  0  0  0  0  0  0  0  0  0  0
    9.2861   -1.2743   25.3585 C   0  0  0  0  0  0  0  0  0  0  0  0
    1.8892  -10.3985   17.7511 N   0  0  0  0  0  0  0  0  0  0  0  0
    9.6210   -0.6952   24.0976 C   0  0  0  0  0  0  0  0  0  0  0  0
    7.0792   -9.0217   17.1429 C   0  0  0  0  0  0  0  0  0  0  0  0
    3.1713  -10.1816   17.6634 C   0  0  0  0  0  0  0  0  0  0  0  0
    2.7878   -8.3822   16.2137 C   0  0  0  0  0  0  0  0  0  0  0  0
    9.4601   -2.6590   25.6528 C   0  0  0  0  0  0  0  0  0  0  0  0
   10.1182   -1.5672   23.1165 C   0  0  0  0  0  0  0  0  0  0  0  0
    1.0552   -9.6360   17.0650 C   0  0  0  0  0  0  0  0  0  0  0  0
    3.6519   -9.1783   16.9039 C   0  0  0  0  0  0  0  0  0  0  0  0
    7.8675   -7.0096   15.9415 C   0  0  0  0  0  0  0  0  0  0  0  0
    5.9733   -9.6553   17.3832 N   0  0  0  0  0  0  0  0  0  0  0  0
   10.2411   -2.9363   23.4301 C   0  0  0  0  0  0  0  0  0  0  0  0
   10.7288   -3.8197   19.9525 C   0  0  0  0  0  0  0  0  0  0  0  0
   10.1189   -5.0054   19.6987 C   0  0  0  0  0  0  0  0  0  0  0  0
  1  3  4  0
  1  7  4  0
  2 21  4  0
  2 27  4  0
  3  9  4  0
  3 10  4  0
  4  8  4  0
  4 18  4  0
  4 25  1  0
  5  9  4  0
  5 12  4  0
  6 13  1  0
  6 27  1  0
  7 28  4  0
  8 11  4  0
  9 29  4  0
 10 12  4  0
 11 24  1  0
 11 26  4  0
 12 25  1  0
 13 28  1  0
 14 20  4  0
 14 23  4  0
 15 17  4  0
 15 21  4  0
 16 19  4  0
 16 23  4  0
 17 22  4  0
 18 26  4  0
 19 24  4  0
 20 24  4  0
 22 27  4  0
 28 29  4  0
M  END
$$$$

 Created by Python create_sdf_string function

 29 33  0  0  0  0  0  0  0  0999 V2000
   10.7215   -3.3326   17.6437 C   0  0  0  0  0  0  0  0  0  0  0  0
    9.9489   -3.4675   24.6487 N   0  0  0  0  0  0  0  0  0  0  0  0
   10.0172   -4.4740   17.4101 C   0  0  0  0  0  0  0  0  0  0  0  0
    6.9051   -7.9575   16.4222 C   0  0  0  0  0  0  0  0  0  0  0  0
    8.9969   -6.3552   17.9668 N   0  0  0  0  0  0  0  0  0  0  0  0
   10.6702   -3.9051   22.4070 C   0  0  0  0  0  0  0  0  0  0  0  0
   11.0625   -3.0028   18.8894 C   0  0  0  0  0  0  0  0  0  0  0  0
    5.6180   -7.9194   16.1754 O   0  0  0  0  0  0  0  0  0  0  0  0
    9.7259   -5.3080   18.4485 C   0  0  0  0  0  0  0  0  0  0  0  0
    9.4578   -5.0200   16.3036 N   0  0  0  0  0  0  0  0  0  0  0  0
    5.0287   -8.9365   16.8223 C   0  0  0  0  0  0  0  0  0  0  0  0
    8.7742   -6.1498   16.6764 C   0  0  0  0  0  0  0  0  0  0  0  0
   10.9418   -3.4032   21.2053 O   0  0  0  0  0  0  0  0  0  0  0  0
    1.4797   -8.6258   16.2950 C   0  0  0  0  0  0  0  0  0  0  0  0
    9.2861   -1.2743   25.3585 C   0  0  0  0  0  0  0  0  0  0  0  0
    1.8892  -10.3985   17.7511 N   0  0  0  0  0  0  0  0  0  0  0  0
    9.6210   -0.6952   24.0976 C   0  0  0  0  0  0  0  0  0  0  0  0
    7.0792   -9.0217   17.1429 C   0  0  0  0  0  0  0  0  0  0  0  0
    3.1713  -10.1816   17.6634 C   0  0  0  0  0  0  0  0  0  0  0  0
    2.7878   -8.3822   16.2137 C   0  0  0  0  0  0  0  0  0  0  0  0
    9.4601   -2.6590   25.6528 C   0  0  0  0  0  0  0  0  0  0  0  0
   10.1182   -1.5672   23.1165 C   0  0  0  0  0  0  0  0  0  0  0  0
    1.0552   -9.6360   17.0650 C   0  0  0  0  0  0  0  0  0  0  0  0
    3.6519   -9.1783   16.9039 C   0  0  0  0  0  0  0  0  0  0  0  0
    7.8675   -7.0096   15.9415 C   0  0  0  0  0  0  0  0  0  0  0  0
    5.9733   -9.6553   17.3832 N   0  0  0  0  0  0  0  0  0  0  0  0
   10.2411   -2.9363   23.4301 C   0  0  0  0  0  0  0  0  0  0  0  0
   10.7288   -3.8197   19.9525 C   0  0  0  0  0  0  0  0  0  0  0  0
   10.1189   -5.0054   19.6987 C   0  0  0  0  0  0  0  0  0  0  0  0
  1  3  4  0
  1  7  4  0
  2 21  4  0
  2 27  4  0
  3  9  4  0
  3 10  4  0
  4  8  4  0
  4 18  4  0
  4 25  1  0
  5  9  4  0
  5 12  4  0
  6 13  1  0
  6 27  1  0
  7 28  4  0
  8 11  4  0
  9 29  4  0
 10 12  4  0
 11 24  1  0
 11 26  4  0
 12 25  1  0
 13 28  1  0
 14 20  4  0
 14 23  4  0
 15 17  4  0
 15 21  4  0
 16 19  4  0
 16 23  4  0
 17 22  4  0
 18 26  4  0
 19 24  4  0
 20 24  4  0
 22 27  4  0
 28 29  4  0
M  END
$$$$

 Created by Python create_sdf_string function

 29 33  0  0  0  0  0  0  0  0999 V2000
   10.7215   -3.3326   17.6437 C   0  0  0  0  0  0  0  0  0  0  0  0
    9.9489   -3.4675   24.6487 N   0  0  0  0  0  0  0  0  0  0  0  0
   10.0172   -4.4740   17.4101 C   0  0  0  0  0  0  0  0  0  0  0  0
    6.9051   -7.9575   16.4222 C   0  0  0  0  0  0  0  0  0  0  0  0
    8.9969   -6.3552   17.9668 N   0  0  0  0  0  0  0  0  0  0  0  0
   10.6702   -3.9051   22.4070 C   0  0  0  0  0  0  0  0  0  0  0  0
   11.0625   -3.0028   18.8894 C   0  0  0  0  0  0  0  0  0  0  0  0
    5.6180   -7.9194   16.1754 O   0  0  0  0  0  0  0  0  0  0  0  0
    9.7259   -5.3080   18.4485 C   0  0  0  0  0  0  0  0  0  0  0  0
    9.4578   -5.0200   16.3036 N   0  0  0  0  0  0  0  0  0  0  0  0
    5.0287   -8.9365   16.8223 C   0  0  0  0  0  0  0  0  0  0  0  0
    8.7742   -6.1498   16.6764 C   0  0  0  0  0  0  0  0  0  0  0  0
   10.9418   -3.4032   21.2053 O   0  0  0  0  0  0  0  0  0  0  0  0
    1.4797   -8.6258   16.2950 C   0  0  0  0  0  0  0  0  0  0  0  0
    9.2861   -1.2743   25.3585 C   0  0  0  0  0  0  0  0  0  0  0  0
    1.8892  -10.3985   17.7511 N   0  0  0  0  0  0  0  0  0  0  0  0
    9.6210   -0.6952   24.0976 C   0  0  0  0  0  0  0  0  0  0  0  0
    7.0792   -9.0217   17.1429 C   0  0  0  0  0  0  0  0  0  0  0  0
    3.1713  -10.1816   17.6634 C   0  0  0  0  0  0  0  0  0  0  0  0
    2.7878   -8.3822   16.2137 C   0  0  0  0  0  0  0  0  0  0  0  0
    9.4601   -2.6590   25.6528 C   0  0  0  0  0  0  0  0  0  0  0  0
   10.1182   -1.5672   23.1165 C   0  0  0  0  0  0  0  0  0  0  0  0
    1.0552   -9.6360   17.0650 C   0  0  0  0  0  0  0  0  0  0  0  0
    3.6519   -9.1783   16.9039 C   0  0  0  0  0  0  0  0  0  0  0  0
    7.8675   -7.0096   15.9415 C   0  0  0  0  0  0  0  0  0  0  0  0
    5.9733   -9.6553   17.3832 N   0  0  0  0  0  0  0  0  0  0  0  0
   10.2411   -2.9363   23.4301 C   0  0  0  0  0  0  0  0  0  0  0  0
   10.7288   -3.8197   19.9525 C   0  0  0  0  0  0  0  0  0  0  0  0
   10.1189   -5.0054   19.6987 C   0  0  0  0  0  0  0  0  0  0  0  0
  1  3  4  0
  1  7  4  0
  2 21  4  0
  2 27  4  0
  3  9  4  0
  3 10  4  0
  4  8  4  0
  4 18  4  0
  4 25  1  0
  5  9  4  0
  5 12  4  0
  6 13  1  0
  6 27  1  0
  7 28  4  0
  8 11  4  0
  9 29  4  0
 10 12  4  0
 11 24  1  0
 11 26  4  0
 12 25  1  0
 13 28  1  0
 14 20  4  0
 14 23  4  0
 15 17  4  0
 15 21  4  0
 16 19  4  0
 16 23  4  0
 17 22  4  0
 18 26  4  0
 19 24  4  0
 20 24  4  0
 22 27  4  0
 28 29  4  0
M  END
$$$$

 Created by Python create_sdf_string function

 29 33  0  0  0  0  0  0  0  0999 V2000
   10.7215   -3.3326   17.6437 C   0  0  0  0  0  0  0  0  0  0  0  0
    9.9489   -3.4675   24.6487 N   0  0  0  0  0  0  0  0  0  0  0  0
   10.0172   -4.4740   17.4101 C   0  0  0  0  0  0  0  0  0  0  0  0
    6.9051   -7.9575   16.4222 C   0  0  0  0  0  0  0  0  0  0  0  0
    8.9969   -6.3552   17.9668 N   0  0  0  0  0  0  0  0  0  0  0  0
   10.6702   -3.9051   22.4070 C   0  0  0  0  0  0  0  0  0  0  0  0
   11.0625   -3.0028   18.8894 C   0  0  0  0  0  0  0  0  0  0  0  0
    5.6180   -7.9194   16.1754 O   0  0  0  0  0  0  0  0  0  0  0  0
    9.7259   -5.3080   18.4485 C   0  0  0  0  0  0  0  0  0  0  0  0
    9.4578   -5.0200   16.3036 N   0  0  0  0  0  0  0  0  0  0  0  0
    5.0287   -8.9365   16.8223 C   0  0  0  0  0  0  0  0  0  0  0  0
    8.7742   -6.1498   16.6764 C   0  0  0  0  0  0  0  0  0  0  0  0
   10.9418   -3.4032   21.2053 O   0  0  0  0  0  0  0  0  0  0  0  0
    1.4797   -8.6258   16.2950 C   0  0  0  0  0  0  0  0  0  0  0  0
    9.2861   -1.2743   25.3585 C   0  0  0  0  0  0  0  0  0  0  0  0
    1.8892  -10.3985   17.7511 N   0  0  0  0  0  0  0  0  0  0  0  0
    9.6210   -0.6952   24.0976 C   0  0  0  0  0  0  0  0  0  0  0  0
    7.0792   -9.0217   17.1429 C   0  0  0  0  0  0  0  0  0  0  0  0
    3.1713  -10.1816   17.6634 C   0  0  0  0  0  0  0  0  0  0  0  0
    2.7878   -8.3822   16.2137 C   0  0  0  0  0  0  0  0  0  0  0  0
    9.4601   -2.6590   25.6528 C   0  0  0  0  0  0  0  0  0  0  0  0
   10.1182   -1.5672   23.1165 C   0  0  0  0  0  0  0  0  0  0  0  0
    1.0552   -9.6360   17.0650 C   0  0  0  0  0  0  0  0  0  0  0  0
    3.6519   -9.1783   16.9039 C   0  0  0  0  0  0  0  0  0  0  0  0
    7.8675   -7.0096   15.9415 C   0  0  0  0  0  0  0  0  0  0  0  0
    5.9733   -9.6553   17.3832 N   0  0  0  0  0  0  0  0  0  0  0  0
   10.2411   -2.9363   23.4301 C   0  0  0  0  0  0  0  0  0  0  0  0
   10.7288   -3.8197   19.9525 C   0  0  0  0  0  0  0  0  0  0  0  0
   10.1189   -5.0054   19.6987 C   0  0  0  0  0  0  0  0  0  0  0  0
  1  3  4  0
  1  7  4  0
  2 21  4  0
  2 27  4  0
  3  9  4  0
  3 10  4  0
  4  8  4  0
  4 18  4  0
  4 25  1  0
  5  9  4  0
  5 12  4  0
  6 13  1  0
  6 27  1  0
  7 28  4  0
  8 11  4  0
  9 29  4  0
 10 12  4  0
 11 24  1  0
 11 26  4  0
 12 25  1  0
 13 28  1  0
 14 20  4  0
 14 23  4  0
 15 17  4  0
 15 21  4  0
 16 19  4  0
 16 23  4  0
 17 22  4  0
 18 26  4  0
 19 24  4  0
 20 24  4  0
 22 27  4  0
 28 29  4  0
M  END
$$$$

 Created by Python create_sdf_string function

 29 33  0  0  0  0  0  0  0  0999 V2000
   10.7215   -3.3326   17.6437 C   0  0  0  0  0  0  0  0  0  0  0  0
    9.9489   -3.4675   24.6487 N   0  0  0  0  0  0  0  0  0  0  0  0
   10.0172   -4.4740   17.4101 C   0  0  0  0  0  0  0  0  0  0  0  0
    6.9051   -7.9575   16.4222 C   0  0  0  0  0  0  0  0  0  0  0  0
    8.9969   -6.3552   17.9668 N   0  0  0  0  0  0  0  0  0  0  0  0
   10.6702   -3.9051   22.4070 C   0  0  0  0  0  0  0  0  0  0  0  0
   11.0625   -3.0028   18.8894 C   0  0  0  0  0  0  0  0  0  0  0  0
    5.6180   -7.9194   16.1754 O   0  0  0  0  0  0  0  0  0  0  0  0
    9.7259   -5.3080   18.4485 C   0  0  0  0  0  0  0  0  0  0  0  0
    9.4578   -5.0200   16.3036 N   0  0  0  0  0  0  0  0  0  0  0  0
    5.0287   -8.9365   16.8223 C   0  0  0  0  0  0  0  0  0  0  0  0
    8.7742   -6.1498   16.6764 C   0  0  0  0  0  0  0  0  0  0  0  0
   10.9418   -3.4032   21.2053 O   0  0  0  0  0  0  0  0  0  0  0  0
    1.4797   -8.6258   16.2950 C   0  0  0  0  0  0  0  0  0  0  0  0
    9.2861   -1.2743   25.3585 C   0  0  0  0  0  0  0  0  0  0  0  0
    1.8892  -10.3985   17.7511 N   0  0  0  0  0  0  0  0  0  0  0  0
    9.6210   -0.6952   24.0976 C   0  0  0  0  0  0  0  0  0  0  0  0
    7.0792   -9.0217   17.1429 C   0  0  0  0  0  0  0  0  0  0  0  0
    3.1713  -10.1816   17.6634 C   0  0  0  0  0  0  0  0  0  0  0  0
    2.7878   -8.3822   16.2137 C   0  0  0  0  0  0  0  0  0  0  0  0
    9.4601   -2.6590   25.6528 C   0  0  0  0  0  0  0  0  0  0  0  0
   10.1182   -1.5672   23.1165 C   0  0  0  0  0  0  0  0  0  0  0  0
    1.0552   -9.6360   17.0650 C   0  0  0  0  0  0  0  0  0  0  0  0
    3.6519   -9.1783   16.9039 C   0  0  0  0  0  0  0  0  0  0  0  0
    7.8675   -7.0096   15.9415 C   0  0  0  0  0  0  0  0  0  0  0  0
    5.9733   -9.6553   17.3832 N   0  0  0  0  0  0  0  0  0  0  0  0
   10.2411   -2.9363   23.4301 C   0  0  0  0  0  0  0  0  0  0  0  0
   10.7288   -3.8197   19.9525 C   0  0  0  0  0  0  0  0  0  0  0  0
   10.1189   -5.0054   19.6987 C   0  0  0  0  0  0  0  0  0  0  0  0
  1  3  4  0
  1  7  4  0
  2 21  4  0
  2 27  4  0
  3  9  4  0
  3 10  4  0
  4  8  4  0
  4 18  4  0
  4 25  1  0
  5  9  4  0
  5 12  4  0
  6 13  1  0
  6 27  1  0
  7 28  4  0
  8 11  4  0
  9 29  4  0
 10 12  4  0
 11 24  1  0
 11 26  4  0
 12 25  1  0
 13 28  1  0
 14 20  4  0
 14 23  4  0
 15 17  4  0
 15 21  4  0
 16 19  4  0
 16 23  4  0
 17 22  4  0
 18 26  4  0
 19 24  4  0
 20 24  4  0
 22 27  4  0
 28 29  4  0
M  END
$$$$

 Created by Python create_sdf_string function

 29 33  0  0  0  0  0  0  0  0999 V2000
   10.7215   -3.3326   17.6437 C   0  0  0  0  0  0  0  0  0  0  0  0
    9.9489   -3.4675   24.6487 N   0  0  0  0  0  0  0  0  0  0  0  0
   10.0172   -4.4740   17.4101 C   0  0  0  0  0  0  0  0  0  0  0  0
    6.9051   -7.9575   16.4222 C   0  0  0  0  0  0  0  0  0  0  0  0
    8.9969   -6.3552   17.9668 N   0  0  0  0  0  0  0  0  0  0  0  0
   10.6702   -3.9051   22.4070 C   0  0  0  0  0  0  0  0  0  0  0  0
   11.0625   -3.0028   18.8894 C   0  0  0  0  0  0  0  0  0  0  0  0
    5.6180   -7.9194   16.1754 O   0  0  0  0  0  0  0  0  0  0  0  0
    9.7259   -5.3080   18.4485 C   0  0  0  0  0  0  0  0  0  0  0  0
    9.4578   -5.0200   16.3036 N   0  0  0  0  0  0  0  0  0  0  0  0
    5.0287   -8.9365   16.8223 C   0  0  0  0  0  0  0  0  0  0  0  0
    8.7742   -6.1498   16.6764 C   0  0  0  0  0  0  0  0  0  0  0  0
   10.9418   -3.4032   21.2053 O   0  0  0  0  0  0  0  0  0  0  0  0
    1.4797   -8.6258   16.2950 C   0  0  0  0  0  0  0  0  0  0  0  0
    9.2861   -1.2743   25.3585 C   0  0  0  0  0  0  0  0  0  0  0  0
    1.8892  -10.3985   17.7511 N   0  0  0  0  0  0  0  0  0  0  0  0
    9.6210   -0.6952   24.0976 C   0  0  0  0  0  0  0  0  0  0  0  0
    7.0792   -9.0217   17.1429 C   0  0  0  0  0  0  0  0  0  0  0  0
    3.1713  -10.1816   17.6634 C   0  0  0  0  0  0  0  0  0  0  0  0
    2.7878   -8.3822   16.2137 C   0  0  0  0  0  0  0  0  0  0  0  0
    9.4601   -2.6590   25.6528 C   0  0  0  0  0  0  0  0  0  0  0  0
   10.1182   -1.5672   23.1165 C   0  0  0  0  0  0  0  0  0  0  0  0
    1.0552   -9.6360   17.0650 C   0  0  0  0  0  0  0  0  0  0  0  0
    3.6519   -9.1783   16.9039 C   0  0  0  0  0  0  0  0  0  0  0  0
    7.8675   -7.0096   15.9415 C   0  0  0  0  0  0  0  0  0  0  0  0
    5.9733   -9.6553   17.3832 N   0  0  0  0  0  0  0  0  0  0  0  0
   10.2411   -2.9363   23.4301 C   0  0  0  0  0  0  0  0  0  0  0  0
   10.7288   -3.8197   19.9525 C   0  0  0  0  0  0  0  0  0  0  0  0
   10.1189   -5.0054   19.6987 C   0  0  0  0  0  0  0  0  0  0  0  0
  1  3  4  0
  1  7  4  0
  2 21  4  0
  2 27  4  0
  3  9  4  0
  3 10  4  0
  4  8  4  0
  4 18  4  0
  4 25  1  0
  5  9  4  0
  5 12  4  0
  6 13  1  0
  6 27  1  0
  7 28  4  0
  8 11  4  0
  9 29  4  0
 10 12  4  0
 11 24  1  0
 11 26  4  0
 12 25  1  0
 13 28  1  0
 14 20  4  0
 14 23  4  0
 15 17  4  0
 15 21  4  0
 16 19  4  0
 16 23  4  0
 17 22  4  0
 18 26  4  0
 19 24  4  0
 20 24  4  0
 22 27  4  0
 28 29  4  0
M  END
$$$$

 Created by Python create_sdf_string function

 29 33  0  0  0  0  0  0  0  0999 V2000
   10.7215   -3.3326   17.6437 C   0  0  0  0  0  0  0  0  0  0  0  0
    9.9489   -3.4675   24.6487 N   0  0  0  0  0  0  0  0  0  0  0  0
   10.0172   -4.4740   17.4101 C   0  0  0  0  0  0  0  0  0  0  0  0
    6.9051   -7.9575   16.4222 C   0  0  0  0  0  0  0  0  0  0  0  0
    8.9969   -6.3552   17.9668 N   0  0  0  0  0  0  0  0  0  0  0  0
   10.6702   -3.9051   22.4070 C   0  0  0  0  0  0  0  0  0  0  0  0
   11.0625   -3.0028   18.8894 C   0  0  0  0  0  0  0  0  0  0  0  0
    5.6180   -7.9194   16.1754 O   0  0  0  0  0  0  0  0  0  0  0  0
    9.7259   -5.3080   18.4485 C   0  0  0  0  0  0  0  0  0  0  0  0
    9.4578   -5.0200   16.3036 N   0  0  0  0  0  0  0  0  0  0  0  0
    5.0287   -8.9365   16.8223 C   0  0  0  0  0  0  0  0  0  0  0  0
    8.7742   -6.1498   16.6764 C   0  0  0  0  0  0  0  0  0  0  0  0
   10.9418   -3.4032   21.2053 O   0  0  0  0  0  0  0  0  0  0  0  0
    1.4797   -8.6258   16.2950 C   0  0  0  0  0  0  0  0  0  0  0  0
    9.2861   -1.2743   25.3585 C   0  0  0  0  0  0  0  0  0  0  0  0
    1.8892  -10.3985   17.7511 N   0  0  0  0  0  0  0  0  0  0  0  0
    9.6210   -0.6952   24.0976 C   0  0  0  0  0  0  0  0  0  0  0  0
    7.0792   -9.0217   17.1429 C   0  0  0  0  0  0  0  0  0  0  0  0
    3.1713  -10.1816   17.6634 C   0  0  0  0  0  0  0  0  0  0  0  0
    2.7878   -8.3822   16.2137 C   0  0  0  0  0  0  0  0  0  0  0  0
    9.4601   -2.6590   25.6528 C   0  0  0  0  0  0  0  0  0  0  0  0
   10.1182   -1.5672   23.1165 C   0  0  0  0  0  0  0  0  0  0  0  0
    1.0552   -9.6360   17.0650 C   0  0  0  0  0  0  0  0  0  0  0  0
    3.6519   -9.1783   16.9039 C   0  0  0  0  0  0  0  0  0  0  0  0
    7.8675   -7.0096   15.9415 C   0  0  0  0  0  0  0  0  0  0  0  0
    5.9733   -9.6553   17.3832 N   0  0  0  0  0  0  0  0  0  0  0  0
   10.2411   -2.9363   23.4301 C   0  0  0  0  0  0  0  0  0  0  0  0
   10.7288   -3.8197   19.9525 C   0  0  0  0  0  0  0  0  0  0  0  0
   10.1189   -5.0054   19.6987 C   0  0  0  0  0  0  0  0  0  0  0  0
  1  3  4  0
  1  7  4  0
  2 21  4  0
  2 27  4  0
  3  9  4  0
  3 10  4  0
  4  8  4  0
  4 18  4  0
  4 25  1  0
  5  9  4  0
  5 12  4  0
  6 13  1  0
  6 27  1  0
  7 28  4  0
  8 11  4  0
  9 29  4  0
 10 12  4  0
 11 24  1  0
 11 26  4  0
 12 25  1  0
 13 28  1  0
 14 20  4  0
 14 23  4  0
 15 17  4  0
 15 21  4  0
 16 19  4  0
 16 23  4  0
 17 22  4  0
 18 26  4  0
 19 24  4  0
 20 24  4  0
 22 27  4  0
 28 29  4  0
M  END
$$$$

 Created by Python create_sdf_string function

 29 33  0  0  0  0  0  0  0  0999 V2000
   10.7215   -3.3326   17.6437 C   0  0  0  0  0  0  0  0  0  0  0  0
    9.9489   -3.4675   24.6487 N   0  0  0  0  0  0  0  0  0  0  0  0
   10.0172   -4.4740   17.4101 C   0  0  0  0  0  0  0  0  0  0  0  0
    6.9051   -7.9575   16.4222 C   0  0  0  0  0  0  0  0  0  0  0  0
    8.9969   -6.3552   17.9668 N   0  0  0  0  0  0  0  0  0  0  0  0
   10.6702   -3.9051   22.4070 C   0  0  0  0  0  0  0  0  0  0  0  0
   11.0625   -3.0028   18.8894 C   0  0  0  0  0  0  0  0  0  0  0  0
    5.6180   -7.9194   16.1754 O   0  0  0  0  0  0  0  0  0  0  0  0
    9.7259   -5.3080   18.4485 C   0  0  0  0  0  0  0  0  0  0  0  0
    9.4578   -5.0200   16.3036 N   0  0  0  0  0  0  0  0  0  0  0  0
    5.0287   -8.9365   16.8223 C   0  0  0  0  0  0  0  0  0  0  0  0
    8.7742   -6.1498   16.6764 C   0  0  0  0  0  0  0  0  0  0  0  0
   10.9418   -3.4032   21.2053 O   0  0  0  0  0  0  0  0  0  0  0  0
    1.4797   -8.6258   16.2950 C   0  0  0  0  0  0  0  0  0  0  0  0
    9.2861   -1.2743   25.3585 C   0  0  0  0  0  0  0  0  0  0  0  0
    1.8892  -10.3985   17.7511 N   0  0  0  0  0  0  0  0  0  0  0  0
    9.6210   -0.6952   24.0976 C   0  0  0  0  0  0  0  0  0  0  0  0
    7.0792   -9.0217   17.1429 C   0  0  0  0  0  0  0  0  0  0  0  0
    3.1713  -10.1816   17.6634 C   0  0  0  0  0  0  0  0  0  0  0  0
    2.7878   -8.3822   16.2137 C   0  0  0  0  0  0  0  0  0  0  0  0
    9.4601   -2.6590   25.6528 C   0  0  0  0  0  0  0  0  0  0  0  0
   10.1182   -1.5672   23.1165 C   0  0  0  0  0  0  0  0  0  0  0  0
    1.0552   -9.6360   17.0650 C   0  0  0  0  0  0  0  0  0  0  0  0
    3.6519   -9.1783   16.9039 C   0  0  0  0  0  0  0  0  0  0  0  0
    7.8675   -7.0096   15.9415 C   0  0  0  0  0  0  0  0  0  0  0  0
    5.9733   -9.6553   17.3832 N   0  0  0  0  0  0  0  0  0  0  0  0
   10.2411   -2.9363   23.4301 C   0  0  0  0  0  0  0  0  0  0  0  0
   10.7288   -3.8197   19.9525 C   0  0  0  0  0  0  0  0  0  0  0  0
   10.1189   -5.0054   19.6987 C   0  0  0  0  0  0  0  0  0  0  0  0
  1  3  4  0
  1  7  4  0
  2 21  4  0
  2 27  4  0
  3  9  4  0
  3 10  4  0
  4  8  4  0
  4 18  4  0
  4 25  1  0
  5  9  4  0
  5 12  4  0
  6 13  1  0
  6 27  1  0
  7 28  4  0
  8 11  4  0
  9 29  4  0
 10 12  4  0
 11 24  1  0
 11 26  4  0
 12 25  1  0
 13 28  1  0
 14 20  4  0
 14 23  4  0
 15 17  4  0
 15 21  4  0
 16 19  4  0
 16 23  4  0
 17 22  4  0
 18 26  4  0
 19 24  4  0
 20 24  4  0
 22 27  4  0
 28 29  4  0
M  END
$$$$

 Created by Python create_sdf_string function

 29 33  0  0  0  0  0  0  0  0999 V2000
   10.7215   -3.3326   17.6437 C   0  0  0  0  0  0  0  0  0  0  0  0
    9.9489   -3.4675   24.6487 N   0  0  0  0  0  0  0  0  0  0  0  0
   10.0172   -4.4740   17.4101 C   0  0  0  0  0  0  0  0  0  0  0  0
    6.9051   -7.9575   16.4222 C   0  0  0  0  0  0  0  0  0  0  0  0
    8.9969   -6.3552   17.9668 N   0  0  0  0  0  0  0  0  0  0  0  0
   10.6702   -3.9051   22.4070 C   0  0  0  0  0  0  0  0  0  0  0  0
   11.0625   -3.0028   18.8894 C   0  0  0  0  0  0  0  0  0  0  0  0
    5.6180   -7.9194   16.1754 O   0  0  0  0  0  0  0  0  0  0  0  0
    9.7259   -5.3080   18.4485 C   0  0  0  0  0  0  0  0  0  0  0  0
    9.4578   -5.0200   16.3036 N   0  0  0  0  0  0  0  0  0  0  0  0
    5.0287   -8.9365   16.8223 C   0  0  0  0  0  0  0  0  0  0  0  0
    8.7742   -6.1498   16.6764 C   0  0  0  0  0  0  0  0  0  0  0  0
   10.9418   -3.4032   21.2053 O   0  0  0  0  0  0  0  0  0  0  0  0
    1.4797   -8.6258   16.2950 C   0  0  0  0  0  0  0  0  0  0  0  0
    9.2861   -1.2743   25.3585 C   0  0  0  0  0  0  0  0  0  0  0  0
    1.8892  -10.3985   17.7511 N   0  0  0  0  0  0  0  0  0  0  0  0
    9.6210   -0.6952   24.0976 C   0  0  0  0  0  0  0  0  0  0  0  0
    7.0792   -9.0217   17.1429 C   0  0  0  0  0  0  0  0  0  0  0  0
    3.1713  -10.1816   17.6634 C   0  0  0  0  0  0  0  0  0  0  0  0
    2.7878   -8.3822   16.2137 C   0  0  0  0  0  0  0  0  0  0  0  0
    9.4601   -2.6590   25.6528 C   0  0  0  0  0  0  0  0  0  0  0  0
   10.1182   -1.5672   23.1165 C   0  0  0  0  0  0  0  0  0  0  0  0
    1.0552   -9.6360   17.0650 C   0  0  0  0  0  0  0  0  0  0  0  0
    3.6519   -9.1783   16.9039 C   0  0  0  0  0  0  0  0  0  0  0  0
    7.8675   -7.0096   15.9415 C   0  0  0  0  0  0  0  0  0  0  0  0
    5.9733   -9.6553   17.3832 N   0  0  0  0  0  0  0  0  0  0  0  0
   10.2411   -2.9363   23.4301 C   0  0  0  0  0  0  0  0  0  0  0  0
   10.7288   -3.8197   19.9525 C   0  0  0  0  0  0  0  0  0  0  0  0
   10.1189   -5.0054   19.6987 C   0  0  0  0  0  0  0  0  0  0  0  0
  1  3  4  0
  1  7  4  0
  2 21  4  0
  2 27  4  0
  3  9  4  0
  3 10  4  0
  4  8  4  0
  4 18  4  0
  4 25  1  0
  5  9  4  0
  5 12  4  0
  6 13  1  0
  6 27  1  0
  7 28  4  0
  8 11  4  0
  9 29  4  0
 10 12  4  0
 11 24  1  0
 11 26  4  0
 12 25  1  0
 13 28  1  0
 14 20  4  0
 14 23  4  0
 15 17  4  0
 15 21  4  0
 16 19  4  0
 16 23  4  0
 17 22  4  0
 18 26  4  0
 19 24  4  0
 20 24  4  0
 22 27  4  0
 28 29  4  0
M  END
$$$$

 Created by Python create_sdf_string function

 29 33  0  0  0  0  0  0  0  0999 V2000
   10.7215   -3.3326   17.6437 C   0  0  0  0  0  0  0  0  0  0  0  0
    9.9489   -3.4675   24.6487 N   0  0  0  0  0  0  0  0  0  0  0  0
   10.0172   -4.4740   17.4101 C   0  0  0  0  0  0  0  0  0  0  0  0
    6.9051   -7.9575   16.4222 C   0  0  0  0  0  0  0  0  0  0  0  0
    8.9969   -6.3552   17.9668 N   0  0  0  0  0  0  0  0  0  0  0  0
   10.6702   -3.9051   22.4070 C   0  0  0  0  0  0  0  0  0  0  0  0
   11.0625   -3.0028   18.8894 C   0  0  0  0  0  0  0  0  0  0  0  0
    5.6180   -7.9194   16.1754 O   0  0  0  0  0  0  0  0  0  0  0  0
    9.7259   -5.3080   18.4485 C   0  0  0  0  0  0  0  0  0  0  0  0
    9.4578   -5.0200   16.3036 N   0  0  0  0  0  0  0  0  0  0  0  0
    5.0287   -8.9365   16.8223 C   0  0  0  0  0  0  0  0  0  0  0  0
    8.7742   -6.1498   16.6764 C   0  0  0  0  0  0  0  0  0  0  0  0
   10.9418   -3.4032   21.2053 O   0  0  0  0  0  0  0  0  0  0  0  0
    1.4797   -8.6258   16.2950 C   0  0  0  0  0  0  0  0  0  0  0  0
    9.2861   -1.2743   25.3585 C   0  0  0  0  0  0  0  0  0  0  0  0
    1.8892  -10.3985   17.7511 N   0  0  0  0  0  0  0  0  0  0  0  0
    9.6210   -0.6952   24.0976 C   0  0  0  0  0  0  0  0  0  0  0  0
    7.0792   -9.0217   17.1429 C   0  0  0  0  0  0  0  0  0  0  0  0
    3.1713  -10.1816   17.6634 C   0  0  0  0  0  0  0  0  0  0  0  0
    2.7878   -8.3822   16.2137 C   0  0  0  0  0  0  0  0  0  0  0  0
    9.4601   -2.6590   25.6528 C   0  0  0  0  0  0  0  0  0  0  0  0
   10.1182   -1.5672   23.1165 C   0  0  0  0  0  0  0  0  0  0  0  0
    1.0552   -9.6360   17.0650 C   0  0  0  0  0  0  0  0  0  0  0  0
    3.6519   -9.1783   16.9039 C   0  0  0  0  0  0  0  0  0  0  0  0
    7.8675   -7.0096   15.9415 C   0  0  0  0  0  0  0  0  0  0  0  0
    5.9733   -9.6553   17.3832 N   0  0  0  0  0  0  0  0  0  0  0  0
   10.2411   -2.9363   23.4301 C   0  0  0  0  0  0  0  0  0  0  0  0
   10.7288   -3.8197   19.9525 C   0  0  0  0  0  0  0  0  0  0  0  0
   10.1189   -5.0054   19.6987 C   0  0  0  0  0  0  0  0  0  0  0  0
  1  3  4  0
  1  7  4  0
  2 21  4  0
  2 27  4  0
  3  9  4  0
  3 10  4  0
  4  8  4  0
  4 18  4  0
  4 25  1  0
  5  9  4  0
  5 12  4  0
  6 13  1  0
  6 27  1  0
  7 28  4  0
  8 11  4  0
  9 29  4  0
 10 12  4  0
 11 24  1  0
 11 26  4  0
 12 25  1  0
 13 28  1  0
 14 20  4  0
 14 23  4  0
 15 17  4  0
 15 21  4  0
 16 19  4  0
 16 23  4  0
 17 22  4  0
 18 26  4  0
 19 24  4  0
 20 24  4  0
 22 27  4  0
 28 29  4  0
M  END
$$$$

 Created by Python create_sdf_string function

 29 33  0  0  0  0  0  0  0  0999 V2000
   10.7215   -3.3326   17.6437 C   0  0  0  0  0  0  0  0  0  0  0  0
    9.9489   -3.4675   24.6487 N   0  0  0  0  0  0  0  0  0  0  0  0
   10.0172   -4.4740   17.4101 C   0  0  0  0  0  0  0  0  0  0  0  0
    6.9051   -7.9575   16.4222 C   0  0  0  0  0  0  0  0  0  0  0  0
    8.9969   -6.3552   17.9668 N   0  0  0  0  0  0  0  0  0  0  0  0
   10.6702   -3.9051   22.4070 C   0  0  0  0  0  0  0  0  0  0  0  0
   11.0625   -3.0028   18.8894 C   0  0  0  0  0  0  0  0  0  0  0  0
    5.6180   -7.9194   16.1754 O   0  0  0  0  0  0  0  0  0  0  0  0
    9.7259   -5.3080   18.4485 C   0  0  0  0  0  0  0  0  0  0  0  0
    9.4578   -5.0200   16.3036 N   0  0  0  0  0  0  0  0  0  0  0  0
    5.0287   -8.9365   16.8223 C   0  0  0  0  0  0  0  0  0  0  0  0
    8.7742   -6.1498   16.6764 C   0  0  0  0  0  0  0  0  0  0  0  0
   10.9418   -3.4032   21.2053 O   0  0  0  0  0  0  0  0  0  0  0  0
    1.4797   -8.6258   16.2950 C   0  0  0  0  0  0  0  0  0  0  0  0
    9.2861   -1.2743   25.3585 C   0  0  0  0  0  0  0  0  0  0  0  0
    1.8892  -10.3985   17.7511 N   0  0  0  0  0  0  0  0  0  0  0  0
    9.6210   -0.6952   24.0976 C   0  0  0  0  0  0  0  0  0  0  0  0
    7.0792   -9.0217   17.1429 C   0  0  0  0  0  0  0  0  0  0  0  0
    3.1713  -10.1816   17.6634 C   0  0  0  0  0  0  0  0  0  0  0  0
    2.7878   -8.3822   16.2137 C   0  0  0  0  0  0  0  0  0  0  0  0
    9.4601   -2.6590   25.6528 C   0  0  0  0  0  0  0  0  0  0  0  0
   10.1182   -1.5672   23.1165 C   0  0  0  0  0  0  0  0  0  0  0  0
    1.0552   -9.6360   17.0650 C   0  0  0  0  0  0  0  0  0  0  0  0
    3.6519   -9.1783   16.9039 C   0  0  0  0  0  0  0  0  0  0  0  0
    7.8675   -7.0096   15.9415 C   0  0  0  0  0  0  0  0  0  0  0  0
    5.9733   -9.6553   17.3832 N   0  0  0  0  0  0  0  0  0  0  0  0
   10.2411   -2.9363   23.4301 C   0  0  0  0  0  0  0  0  0  0  0  0
   10.7288   -3.8197   19.9525 C   0  0  0  0  0  0  0  0  0  0  0  0
   10.1189   -5.0054   19.6987 C   0  0  0  0  0  0  0  0  0  0  0  0
  1  3  4  0
  1  7  4  0
  2 21  4  0
  2 27  4  0
  3  9  4  0
  3 10  4  0
  4  8  4  0
  4 18  4  0
  4 25  1  0
  5  9  4  0
  5 12  4  0
  6 13  1  0
  6 27  1  0
  7 28  4  0
  8 11  4  0
  9 29  4  0
 10 12  4  0
 11 24  1  0
 11 26  4  0
 12 25  1  0
 13 28  1  0
 14 20  4  0
 14 23  4  0
 15 17  4  0
 15 21  4  0
 16 19  4  0
 16 23  4  0
 17 22  4  0
 18 26  4  0
 19 24  4  0
 20 24  4  0
 22 27  4  0
 28 29  4  0
M  END
$$$$

 Created by Python create_sdf_string function

 29 33  0  0  0  0  0  0  0  0999 V2000
   10.7215   -3.3326   17.6437 C   0  0  0  0  0  0  0  0  0  0  0  0
    9.9489   -3.4675   24.6487 N   0  0  0  0  0  0  0  0  0  0  0  0
   10.0172   -4.4740   17.4101 C   0  0  0  0  0  0  0  0  0  0  0  0
    6.9051   -7.9575   16.4222 C   0  0  0  0  0  0  0  0  0  0  0  0
    8.9969   -6.3552   17.9668 N   0  0  0  0  0  0  0  0  0  0  0  0
   10.6702   -3.9051   22.4070 C   0  0  0  0  0  0  0  0  0  0  0  0
   11.0625   -3.0028   18.8894 C   0  0  0  0  0  0  0  0  0  0  0  0
    5.6180   -7.9194   16.1754 O   0  0  0  0  0  0  0  0  0  0  0  0
    9.7259   -5.3080   18.4485 C   0  0  0  0  0  0  0  0  0  0  0  0
    9.4578   -5.0200   16.3036 N   0  0  0  0  0  0  0  0  0  0  0  0
    5.0287   -8.9365   16.8223 C   0  0  0  0  0  0  0  0  0  0  0  0
    8.7742   -6.1498   16.6764 C   0  0  0  0  0  0  0  0  0  0  0  0
   10.9418   -3.4032   21.2053 O   0  0  0  0  0  0  0  0  0  0  0  0
    1.4797   -8.6258   16.2950 C   0  0  0  0  0  0  0  0  0  0  0  0
    9.2861   -1.2743   25.3585 C   0  0  0  0  0  0  0  0  0  0  0  0
    1.8892  -10.3985   17.7511 N   0  0  0  0  0  0  0  0  0  0  0  0
    9.6210   -0.6952   24.0976 C   0  0  0  0  0  0  0  0  0  0  0  0
    7.0792   -9.0217   17.1429 C   0  0  0  0  0  0  0  0  0  0  0  0
    3.1713  -10.1816   17.6634 C   0  0  0  0  0  0  0  0  0  0  0  0
    2.7878   -8.3822   16.2137 C   0  0  0  0  0  0  0  0  0  0  0  0
    9.4601   -2.6590   25.6528 C   0  0  0  0  0  0  0  0  0  0  0  0
   10.1182   -1.5672   23.1165 C   0  0  0  0  0  0  0  0  0  0  0  0
    1.0552   -9.6360   17.0650 C   0  0  0  0  0  0  0  0  0  0  0  0
    3.6519   -9.1783   16.9039 C   0  0  0  0  0  0  0  0  0  0  0  0
    7.8675   -7.0096   15.9415 C   0  0  0  0  0  0  0  0  0  0  0  0
    5.9733   -9.6553   17.3832 N   0  0  0  0  0  0  0  0  0  0  0  0
   10.2411   -2.9363   23.4301 C   0  0  0  0  0  0  0  0  0  0  0  0
   10.7288   -3.8197   19.9525 C   0  0  0  0  0  0  0  0  0  0  0  0
   10.1189   -5.0054   19.6987 C   0  0  0  0  0  0  0  0  0  0  0  0
  1  3  4  0
  1  7  4  0
  2 21  4  0
  2 27  4  0
  3  9  4  0
  3 10  4  0
  4  8  4  0
  4 18  4  0
  4 25  1  0
  5  9  4  0
  5 12  4  0
  6 13  1  0
  6 27  1  0
  7 28  4  0
  8 11  4  0
  9 29  4  0
 10 12  4  0
 11 24  1  0
 11 26  4  0
 12 25  1  0
 13 28  1  0
 14 20  4  0
 14 23  4  0
 15 17  4  0
 15 21  4  0
 16 19  4  0
 16 23  4  0
 17 22  4  0
 18 26  4  0
 19 24  4  0
 20 24  4  0
 22 27  4  0
 28 29  4  0
M  END
$$$$

 Created by Python create_sdf_string function

 29 33  0  0  0  0  0  0  0  0999 V2000
   10.7215   -3.3326   17.6437 C   0  0  0  0  0  0  0  0  0  0  0  0
    9.9489   -3.4675   24.6487 N   0  0  0  0  0  0  0  0  0  0  0  0
   10.0172   -4.4740   17.4101 C   0  0  0  0  0  0  0  0  0  0  0  0
    6.9051   -7.9575   16.4222 C   0  0  0  0  0  0  0  0  0  0  0  0
    8.9969   -6.3552   17.9668 N   0  0  0  0  0  0  0  0  0  0  0  0
   10.6702   -3.9051   22.4070 C   0  0  0  0  0  0  0  0  0  0  0  0
   11.0625   -3.0028   18.8894 C   0  0  0  0  0  0  0  0  0  0  0  0
    5.6180   -7.9194   16.1754 O   0  0  0  0  0  0  0  0  0  0  0  0
    9.7259   -5.3080   18.4485 C   0  0  0  0  0  0  0  0  0  0  0  0
    9.4578   -5.0200   16.3036 N   0  0  0  0  0  0  0  0  0  0  0  0
    5.0287   -8.9365   16.8223 C   0  0  0  0  0  0  0  0  0  0  0  0
    8.7742   -6.1498   16.6764 C   0  0  0  0  0  0  0  0  0  0  0  0
   10.9418   -3.4032   21.2053 O   0  0  0  0  0  0  0  0  0  0  0  0
    1.4797   -8.6258   16.2950 C   0  0  0  0  0  0  0  0  0  0  0  0
    9.2861   -1.2743   25.3585 C   0  0  0  0  0  0  0  0  0  0  0  0
    1.8892  -10.3985   17.7511 N   0  0  0  0  0  0  0  0  0  0  0  0
    9.6210   -0.6952   24.0976 C   0  0  0  0  0  0  0  0  0  0  0  0
    7.0792   -9.0217   17.1429 C   0  0  0  0  0  0  0  0  0  0  0  0
    3.1713  -10.1816   17.6634 C   0  0  0  0  0  0  0  0  0  0  0  0
    2.7878   -8.3822   16.2137 C   0  0  0  0  0  0  0  0  0  0  0  0
    9.4601   -2.6590   25.6528 C   0  0  0  0  0  0  0  0  0  0  0  0
   10.1182   -1.5672   23.1165 C   0  0  0  0  0  0  0  0  0  0  0  0
    1.0552   -9.6360   17.0650 C   0  0  0  0  0  0  0  0  0  0  0  0
    3.6519   -9.1783   16.9039 C   0  0  0  0  0  0  0  0  0  0  0  0
    7.8675   -7.0096   15.9415 C   0  0  0  0  0  0  0  0  0  0  0  0
    5.9733   -9.6553   17.3832 N   0  0  0  0  0  0  0  0  0  0  0  0
   10.2411   -2.9363   23.4301 C   0  0  0  0  0  0  0  0  0  0  0  0
   10.7288   -3.8197   19.9525 C   0  0  0  0  0  0  0  0  0  0  0  0
   10.1189   -5.0054   19.6987 C   0  0  0  0  0  0  0  0  0  0  0  0
  1  3  4  0
  1  7  4  0
  2 21  4  0
  2 27  4  0
  3  9  4  0
  3 10  4  0
  4  8  4  0
  4 18  4  0
  4 25  1  0
  5  9  4  0
  5 12  4  0
  6 13  1  0
  6 27  1  0
  7 28  4  0
  8 11  4  0
  9 29  4  0
 10 12  4  0
 11 24  1  0
 11 26  4  0
 12 25  1  0
 13 28  1  0
 14 20  4  0
 14 23  4  0
 15 17  4  0
 15 21  4  0
 16 19  4  0
 16 23  4  0
 17 22  4  0
 18 26  4  0
 19 24  4  0
 20 24  4  0
 22 27  4  0
 28 29  4  0
M  END
$$$$

 Created by Python create_sdf_string function

 29 33  0  0  0  0  0  0  0  0999 V2000
   10.7215   -3.3326   17.6437 C   0  0  0  0  0  0  0  0  0  0  0  0
    9.9489   -3.4675   24.6487 N   0  0  0  0  0  0  0  0  0  0  0  0
   10.0172   -4.4740   17.4101 C   0  0  0  0  0  0  0  0  0  0  0  0
    6.9051   -7.9575   16.4222 C   0  0  0  0  0  0  0  0  0  0  0  0
    8.9969   -6.3552   17.9668 N   0  0  0  0  0  0  0  0  0  0  0  0
   10.6702   -3.9051   22.4070 C   0  0  0  0  0  0  0  0  0  0  0  0
   11.0625   -3.0028   18.8894 C   0  0  0  0  0  0  0  0  0  0  0  0
    5.6180   -7.9194   16.1754 O   0  0  0  0  0  0  0  0  0  0  0  0
    9.7259   -5.3080   18.4485 C   0  0  0  0  0  0  0  0  0  0  0  0
    9.4578   -5.0200   16.3036 N   0  0  0  0  0  0  0  0  0  0  0  0
    5.0287   -8.9365   16.8223 C   0  0  0  0  0  0  0  0  0  0  0  0
    8.7742   -6.1498   16.6764 C   0  0  0  0  0  0  0  0  0  0  0  0
   10.9418   -3.4032   21.2053 O   0  0  0  0  0  0  0  0  0  0  0  0
    1.4797   -8.6258   16.2950 C   0  0  0  0  0  0  0  0  0  0  0  0
    9.2861   -1.2743   25.3585 C   0  0  0  0  0  0  0  0  0  0  0  0
    1.8892  -10.3985   17.7511 N   0  0  0  0  0  0  0  0  0  0  0  0
    9.6210   -0.6952   24.0976 C   0  0  0  0  0  0  0  0  0  0  0  0
    7.0792   -9.0217   17.1429 C   0  0  0  0  0  0  0  0  0  0  0  0
    3.1713  -10.1816   17.6634 C   0  0  0  0  0  0  0  0  0  0  0  0
    2.7878   -8.3822   16.2137 C   0  0  0  0  0  0  0  0  0  0  0  0
    9.4601   -2.6590   25.6528 C   0  0  0  0  0  0  0  0  0  0  0  0
   10.1182   -1.5672   23.1165 C   0  0  0  0  0  0  0  0  0  0  0  0
    1.0552   -9.6360   17.0650 C   0  0  0  0  0  0  0  0  0  0  0  0
    3.6519   -9.1783   16.9039 C   0  0  0  0  0  0  0  0  0  0  0  0
    7.8675   -7.0096   15.9415 C   0  0  0  0  0  0  0  0  0  0  0  0
    5.9733   -9.6553   17.3832 N   0  0  0  0  0  0  0  0  0  0  0  0
   10.2411   -2.9363   23.4301 C   0  0  0  0  0  0  0  0  0  0  0  0
   10.7288   -3.8197   19.9525 C   0  0  0  0  0  0  0  0  0  0  0  0
   10.1189   -5.0054   19.6987 C   0  0  0  0  0  0  0  0  0  0  0  0
  1  3  4  0
  1  7  4  0
  2 21  4  0
  2 27  4  0
  3  9  4  0
  3 10  4  0
  4  8  4  0
  4 18  4  0
  4 25  1  0
  5  9  4  0
  5 12  4  0
  6 13  1  0
  6 27  1  0
  7 28  4  0
  8 11  4  0
  9 29  4  0
 10 12  4  0
 11 24  1  0
 11 26  4  0
 12 25  1  0
 13 28  1  0
 14 20  4  0
 14 23  4  0
 15 17  4  0
 15 21  4  0
 16 19  4  0
 16 23  4  0
 17 22  4  0
 18 26  4  0
 19 24  4  0
 20 24  4  0
 22 27  4  0
 28 29  4  0
M  END
$$$$

 Created by Python create_sdf_string function

 29 33  0  0  0  0  0  0  0  0999 V2000
   10.7215   -3.3326   17.6437 C   0  0  0  0  0  0  0  0  0  0  0  0
    9.9489   -3.4675   24.6487 N   0  0  0  0  0  0  0  0  0  0  0  0
   10.0172   -4.4740   17.4101 C   0  0  0  0  0  0  0  0  0  0  0  0
    6.9051   -7.9575   16.4222 C   0  0  0  0  0  0  0  0  0  0  0  0
    8.9969   -6.3552   17.9668 N   0  0  0  0  0  0  0  0  0  0  0  0
   10.6702   -3.9051   22.4070 C   0  0  0  0  0  0  0  0  0  0  0  0
   11.0625   -3.0028   18.8894 C   0  0  0  0  0  0  0  0  0  0  0  0
    5.6180   -7.9194   16.1754 O   0  0  0  0  0  0  0  0  0  0  0  0
    9.7259   -5.3080   18.4485 C   0  0  0  0  0  0  0  0  0  0  0  0
    9.4578   -5.0200   16.3036 N   0  0  0  0  0  0  0  0  0  0  0  0
    5.0287   -8.9365   16.8223 C   0  0  0  0  0  0  0  0  0  0  0  0
    8.7742   -6.1498   16.6764 C   0  0  0  0  0  0  0  0  0  0  0  0
   10.9418   -3.4032   21.2053 O   0  0  0  0  0  0  0  0  0  0  0  0
    1.4797   -8.6258   16.2950 C   0  0  0  0  0  0  0  0  0  0  0  0
    9.2861   -1.2743   25.3585 C   0  0  0  0  0  0  0  0  0  0  0  0
    1.8892  -10.3985   17.7511 N   0  0  0  0  0  0  0  0  0  0  0  0
    9.6210   -0.6952   24.0976 C   0  0  0  0  0  0  0  0  0  0  0  0
    7.0792   -9.0217   17.1429 C   0  0  0  0  0  0  0  0  0  0  0  0
    3.1713  -10.1816   17.6634 C   0  0  0  0  0  0  0  0  0  0  0  0
    2.7878   -8.3822   16.2137 C   0  0  0  0  0  0  0  0  0  0  0  0
    9.4601   -2.6590   25.6528 C   0  0  0  0  0  0  0  0  0  0  0  0
   10.1182   -1.5672   23.1165 C   0  0  0  0  0  0  0  0  0  0  0  0
    1.0552   -9.6360   17.0650 C   0  0  0  0  0  0  0  0  0  0  0  0
    3.6519   -9.1783   16.9039 C   0  0  0  0  0  0  0  0  0  0  0  0
    7.8675   -7.0096   15.9415 C   0  0  0  0  0  0  0  0  0  0  0  0
    5.9733   -9.6553   17.3832 N   0  0  0  0  0  0  0  0  0  0  0  0
   10.2411   -2.9363   23.4301 C   0  0  0  0  0  0  0  0  0  0  0  0
   10.7288   -3.8197   19.9525 C   0  0  0  0  0  0  0  0  0  0  0  0
   10.1189   -5.0054   19.6987 C   0  0  0  0  0  0  0  0  0  0  0  0
  1  3  4  0
  1  7  4  0
  2 21  4  0
  2 27  4  0
  3  9  4  0
  3 10  4  0
  4  8  4  0
  4 18  4  0
  4 25  1  0
  5  9  4  0
  5 12  4  0
  6 13  1  0
  6 27  1  0
  7 28  4  0
  8 11  4  0
  9 29  4  0
 10 12  4  0
 11 24  1  0
 11 26  4  0
 12 25  1  0
 13 28  1  0
 14 20  4  0
 14 23  4  0
 15 17  4  0
 15 21  4  0
 16 19  4  0
 16 23  4  0
 17 22  4  0
 18 26  4  0
 19 24  4  0
 20 24  4  0
 22 27  4  0
 28 29  4  0
M  END
$$$$

 Created by Python create_sdf_string function

 29 33  0  0  0  0  0  0  0  0999 V2000
   10.7215   -3.3326   17.6437 C   0  0  0  0  0  0  0  0  0  0  0  0
    9.9489   -3.4675   24.6487 N   0  0  0  0  0  0  0  0  0  0  0  0
   10.0172   -4.4740   17.4101 C   0  0  0  0  0  0  0  0  0  0  0  0
    6.9051   -7.9575   16.4222 C   0  0  0  0  0  0  0  0  0  0  0  0
    8.9969   -6.3552   17.9668 N   0  0  0  0  0  0  0  0  0  0  0  0
   10.6702   -3.9051   22.4070 C   0  0  0  0  0  0  0  0  0  0  0  0
   11.0625   -3.0028   18.8894 C   0  0  0  0  0  0  0  0  0  0  0  0
    5.6180   -7.9194   16.1754 O   0  0  0  0  0  0  0  0  0  0  0  0
    9.7259   -5.3080   18.4485 C   0  0  0  0  0  0  0  0  0  0  0  0
    9.4578   -5.0200   16.3036 N   0  0  0  0  0  0  0  0  0  0  0  0
    5.0287   -8.9365   16.8223 C   0  0  0  0  0  0  0  0  0  0  0  0
    8.7742   -6.1498   16.6764 C   0  0  0  0  0  0  0  0  0  0  0  0
   10.9418   -3.4032   21.2053 O   0  0  0  0  0  0  0  0  0  0  0  0
    1.4797   -8.6258   16.2950 C   0  0  0  0  0  0  0  0  0  0  0  0
    9.2861   -1.2743   25.3585 C   0  0  0  0  0  0  0  0  0  0  0  0
    1.8892  -10.3985   17.7511 N   0  0  0  0  0  0  0  0  0  0  0  0
    9.6210   -0.6952   24.0976 C   0  0  0  0  0  0  0  0  0  0  0  0
    7.0792   -9.0217   17.1429 C   0  0  0  0  0  0  0  0  0  0  0  0
    3.1713  -10.1816   17.6634 C   0  0  0  0  0  0  0  0  0  0  0  0
    2.7878   -8.3822   16.2137 C   0  0  0  0  0  0  0  0  0  0  0  0
    9.4601   -2.6590   25.6528 C   0  0  0  0  0  0  0  0  0  0  0  0
   10.1182   -1.5672   23.1165 C   0  0  0  0  0  0  0  0  0  0  0  0
    1.0552   -9.6360   17.0650 C   0  0  0  0  0  0  0  0  0  0  0  0
    3.6519   -9.1783   16.9039 C   0  0  0  0  0  0  0  0  0  0  0  0
    7.8675   -7.0096   15.9415 C   0  0  0  0  0  0  0  0  0  0  0  0
    5.9733   -9.6553   17.3832 N   0  0  0  0  0  0  0  0  0  0  0  0
   10.2411   -2.9363   23.4301 C   0  0  0  0  0  0  0  0  0  0  0  0
   10.7288   -3.8197   19.9525 C   0  0  0  0  0  0  0  0  0  0  0  0
   10.1189   -5.0054   19.6987 C   0  0  0  0  0  0  0  0  0  0  0  0
  1  3  4  0
  1  7  4  0
  2 21  4  0
  2 27  4  0
  3  9  4  0
  3 10  4  0
  4  8  4  0
  4 18  4  0
  4 25  1  0
  5  9  4  0
  5 12  4  0
  6 13  1  0
  6 27  1  0
  7 28  4  0
  8 11  4  0
  9 29  4  0
 10 12  4  0
 11 24  1  0
 11 26  4  0
 12 25  1  0
 13 28  1  0
 14 20  4  0
 14 23  4  0
 15 17  4  0
 15 21  4  0
 16 19  4  0
 16 23  4  0
 17 22  4  0
 18 26  4  0
 19 24  4  0
 20 24  4  0
 22 27  4  0
 28 29  4  0
M  END
$$$$

 Created by Python create_sdf_string function

 29 33  0  0  0  0  0  0  0  0999 V2000
   10.7215   -3.3326   17.6437 C   0  0  0  0  0  0  0  0  0  0  0  0
    9.9489   -3.4675   24.6487 N   0  0  0  0  0  0  0  0  0  0  0  0
   10.0172   -4.4740   17.4101 C   0  0  0  0  0  0  0  0  0  0  0  0
    6.9051   -7.9575   16.4222 C   0  0  0  0  0  0  0  0  0  0  0  0
    8.9969   -6.3552   17.9668 N   0  0  0  0  0  0  0  0  0  0  0  0
   10.6702   -3.9051   22.4070 C   0  0  0  0  0  0  0  0  0  0  0  0
   11.0625   -3.0028   18.8894 C   0  0  0  0  0  0  0  0  0  0  0  0
    5.6180   -7.9194   16.1754 O   0  0  0  0  0  0  0  0  0  0  0  0
    9.7259   -5.3080   18.4485 C   0  0  0  0  0  0  0  0  0  0  0  0
    9.4578   -5.0200   16.3036 N   0  0  0  0  0  0  0  0  0  0  0  0
    5.0287   -8.9365   16.8223 C   0  0  0  0  0  0  0  0  0  0  0  0
    8.7742   -6.1498   16.6764 C   0  0  0  0  0  0  0  0  0  0  0  0
   10.9418   -3.4032   21.2053 O   0  0  0  0  0  0  0  0  0  0  0  0
    1.4797   -8.6258   16.2950 C   0  0  0  0  0  0  0  0  0  0  0  0
    9.2861   -1.2743   25.3585 C   0  0  0  0  0  0  0  0  0  0  0  0
    1.8892  -10.3985   17.7511 N   0  0  0  0  0  0  0  0  0  0  0  0
    9.6210   -0.6952   24.0976 C   0  0  0  0  0  0  0  0  0  0  0  0
    7.0792   -9.0217   17.1429 C   0  0  0  0  0  0  0  0  0  0  0  0
    3.1713  -10.1816   17.6634 C   0  0  0  0  0  0  0  0  0  0  0  0
    2.7878   -8.3822   16.2137 C   0  0  0  0  0  0  0  0  0  0  0  0
    9.4601   -2.6590   25.6528 C   0  0  0  0  0  0  0  0  0  0  0  0
   10.1182   -1.5672   23.1165 C   0  0  0  0  0  0  0  0  0  0  0  0
    1.0552   -9.6360   17.0650 C   0  0  0  0  0  0  0  0  0  0  0  0
    3.6519   -9.1783   16.9039 C   0  0  0  0  0  0  0  0  0  0  0  0
    7.8675   -7.0096   15.9415 C   0  0  0  0  0  0  0  0  0  0  0  0
    5.9733   -9.6553   17.3832 N   0  0  0  0  0  0  0  0  0  0  0  0
   10.2411   -2.9363   23.4301 C   0  0  0  0  0  0  0  0  0  0  0  0
   10.7288   -3.8197   19.9525 C   0  0  0  0  0  0  0  0  0  0  0  0
   10.1189   -5.0054   19.6987 C   0  0  0  0  0  0  0  0  0  0  0  0
  1  3  4  0
  1  7  4  0
  2 21  4  0
  2 27  4  0
  3  9  4  0
  3 10  4  0
  4  8  4  0
  4 18  4  0
  4 25  1  0
  5  9  4  0
  5 12  4  0
  6 13  1  0
  6 27  1  0
  7 28  4  0
  8 11  4  0
  9 29  4  0
 10 12  4  0
 11 24  1  0
 11 26  4  0
 12 25  1  0
 13 28  1  0
 14 20  4  0
 14 23  4  0
 15 17  4  0
 15 21  4  0
 16 19  4  0
 16 23  4  0
 17 22  4  0
 18 26  4  0
 19 24  4  0
 20 24  4  0
 22 27  4  0
 28 29  4  0
M  END
$$$$

 Created by Python create_sdf_string function

 29 33  0  0  0  0  0  0  0  0999 V2000
   10.7215   -3.3326   17.6437 C   0  0  0  0  0  0  0  0  0  0  0  0
    9.9489   -3.4675   24.6487 N   0  0  0  0  0  0  0  0  0  0  0  0
   10.0172   -4.4740   17.4101 C   0  0  0  0  0  0  0  0  0  0  0  0
    6.9051   -7.9575   16.4222 C   0  0  0  0  0  0  0  0  0  0  0  0
    8.9969   -6.3552   17.9668 N   0  0  0  0  0  0  0  0  0  0  0  0
   10.6702   -3.9051   22.4070 C   0  0  0  0  0  0  0  0  0  0  0  0
   11.0625   -3.0028   18.8894 C   0  0  0  0  0  0  0  0  0  0  0  0
    5.6180   -7.9194   16.1754 O   0  0  0  0  0  0  0  0  0  0  0  0
    9.7259   -5.3080   18.4485 C   0  0  0  0  0  0  0  0  0  0  0  0
    9.4578   -5.0200   16.3036 N   0  0  0  0  0  0  0  0  0  0  0  0
    5.0287   -8.9365   16.8223 C   0  0  0  0  0  0  0  0  0  0  0  0
    8.7742   -6.1498   16.6764 C   0  0  0  0  0  0  0  0  0  0  0  0
   10.9418   -3.4032   21.2053 O   0  0  0  0  0  0  0  0  0  0  0  0
    1.4797   -8.6258   16.2950 C   0  0  0  0  0  0  0  0  0  0  0  0
    9.2861   -1.2743   25.3585 C   0  0  0  0  0  0  0  0  0  0  0  0
    1.8892  -10.3985   17.7511 N   0  0  0  0  0  0  0  0  0  0  0  0
    9.6210   -0.6952   24.0976 C   0  0  0  0  0  0  0  0  0  0  0  0
    7.0792   -9.0217   17.1429 C   0  0  0  0  0  0  0  0  0  0  0  0
    3.1713  -10.1816   17.6634 C   0  0  0  0  0  0  0  0  0  0  0  0
    2.7878   -8.3822   16.2137 C   0  0  0  0  0  0  0  0  0  0  0  0
    9.4601   -2.6590   25.6528 C   0  0  0  0  0  0  0  0  0  0  0  0
   10.1182   -1.5672   23.1165 C   0  0  0  0  0  0  0  0  0  0  0  0
    1.0552   -9.6360   17.0650 C   0  0  0  0  0  0  0  0  0  0  0  0
    3.6519   -9.1783   16.9039 C   0  0  0  0  0  0  0  0  0  0  0  0
    7.8675   -7.0096   15.9415 C   0  0  0  0  0  0  0  0  0  0  0  0
    5.9733   -9.6553   17.3832 N   0  0  0  0  0  0  0  0  0  0  0  0
   10.2411   -2.9363   23.4301 C   0  0  0  0  0  0  0  0  0  0  0  0
   10.7288   -3.8197   19.9525 C   0  0  0  0  0  0  0  0  0  0  0  0
   10.1189   -5.0054   19.6987 C   0  0  0  0  0  0  0  0  0  0  0  0
  1  3  4  0
  1  7  4  0
  2 21  4  0
  2 27  4  0
  3  9  4  0
  3 10  4  0
  4  8  4  0
  4 18  4  0
  4 25  1  0
  5  9  4  0
  5 12  4  0
  6 13  1  0
  6 27  1  0
  7 28  4  0
  8 11  4  0
  9 29  4  0
 10 12  4  0
 11 24  1  0
 11 26  4  0
 12 25  1  0
 13 28  1  0
 14 20  4  0
 14 23  4  0
 15 17  4  0
 15 21  4  0
 16 19  4  0
 16 23  4  0
 17 22  4  0
 18 26  4  0
 19 24  4  0
 20 24  4  0
 22 27  4  0
 28 29  4  0
M  END
$$$$

 Created by Python create_sdf_string function

 29 33  0  0  0  0  0  0  0  0999 V2000
   10.7215   -3.3326   17.6437 C   0  0  0  0  0  0  0  0  0  0  0  0
    9.9489   -3.4675   24.6487 N   0  0  0  0  0  0  0  0  0  0  0  0
   10.0172   -4.4740   17.4101 C   0  0  0  0  0  0  0  0  0  0  0  0
    6.9051   -7.9575   16.4222 C   0  0  0  0  0  0  0  0  0  0  0  0
    8.9969   -6.3552   17.9668 N   0  0  0  0  0  0  0  0  0  0  0  0
   10.6702   -3.9051   22.4070 C   0  0  0  0  0  0  0  0  0  0  0  0
   11.0625   -3.0028   18.8894 C   0  0  0  0  0  0  0  0  0  0  0  0
    5.6180   -7.9194   16.1754 O   0  0  0  0  0  0  0  0  0  0  0  0
    9.7259   -5.3080   18.4485 C   0  0  0  0  0  0  0  0  0  0  0  0
    9.4578   -5.0200   16.3036 N   0  0  0  0  0  0  0  0  0  0  0  0
    5.0287   -8.9365   16.8223 C   0  0  0  0  0  0  0  0  0  0  0  0
    8.7742   -6.1498   16.6764 C   0  0  0  0  0  0  0  0  0  0  0  0
   10.9418   -3.4032   21.2053 O   0  0  0  0  0  0  0  0  0  0  0  0
    1.4797   -8.6258   16.2950 C   0  0  0  0  0  0  0  0  0  0  0  0
    9.2861   -1.2743   25.3585 C   0  0  0  0  0  0  0  0  0  0  0  0
    1.8892  -10.3985   17.7511 N   0  0  0  0  0  0  0  0  0  0  0  0
    9.6210   -0.6952   24.0976 C   0  0  0  0  0  0  0  0  0  0  0  0
    7.0792   -9.0217   17.1429 C   0  0  0  0  0  0  0  0  0  0  0  0
    3.1713  -10.1816   17.6634 C   0  0  0  0  0  0  0  0  0  0  0  0
    2.7878   -8.3822   16.2137 C   0  0  0  0  0  0  0  0  0  0  0  0
    9.4601   -2.6590   25.6528 C   0  0  0  0  0  0  0  0  0  0  0  0
   10.1182   -1.5672   23.1165 C   0  0  0  0  0  0  0  0  0  0  0  0
    1.0552   -9.6360   17.0650 C   0  0  0  0  0  0  0  0  0  0  0  0
    3.6519   -9.1783   16.9039 C   0  0  0  0  0  0  0  0  0  0  0  0
    7.8675   -7.0096   15.9415 C   0  0  0  0  0  0  0  0  0  0  0  0
    5.9733   -9.6553   17.3832 N   0  0  0  0  0  0  0  0  0  0  0  0
   10.2411   -2.9363   23.4301 C   0  0  0  0  0  0  0  0  0  0  0  0
   10.7288   -3.8197   19.9525 C   0  0  0  0  0  0  0  0  0  0  0  0
   10.1189   -5.0054   19.6987 C   0  0  0  0  0  0  0  0  0  0  0  0
  1  3  4  0
  1  7  4  0
  2 21  4  0
  2 27  4  0
  3  9  4  0
  3 10  4  0
  4  8  4  0
  4 18  4  0
  4 25  1  0
  5  9  4  0
  5 12  4  0
  6 13  1  0
  6 27  1  0
  7 28  4  0
  8 11  4  0
  9 29  4  0
 10 12  4  0
 11 24  1  0
 11 26  4  0
 12 25  1  0
 13 28  1  0
 14 20  4  0
 14 23  4  0
 15 17  4  0
 15 21  4  0
 16 19  4  0
 16 23  4  0
 17 22  4  0
 18 26  4  0
 19 24  4  0
 20 24  4  0
 22 27  4  0
 28 29  4  0
M  END
$$$$

 Created by Python create_sdf_string function

 29 33  0  0  0  0  0  0  0  0999 V2000
   10.7215   -3.3326   17.6437 C   0  0  0  0  0  0  0  0  0  0  0  0
    9.9489   -3.4675   24.6487 N   0  0  0  0  0  0  0  0  0  0  0  0
   10.0172   -4.4740   17.4101 C   0  0  0  0  0  0  0  0  0  0  0  0
    6.9051   -7.9575   16.4222 C   0  0  0  0  0  0  0  0  0  0  0  0
    8.9969   -6.3552   17.9668 N   0  0  0  0  0  0  0  0  0  0  0  0
   10.6702   -3.9051   22.4070 C   0  0  0  0  0  0  0  0  0  0  0  0
   11.0625   -3.0028   18.8894 C   0  0  0  0  0  0  0  0  0  0  0  0
    5.6180   -7.9194   16.1754 O   0  0  0  0  0  0  0  0  0  0  0  0
    9.7259   -5.3080   18.4485 C   0  0  0  0  0  0  0  0  0  0  0  0
    9.4578   -5.0200   16.3036 N   0  0  0  0  0  0  0  0  0  0  0  0
    5.0287   -8.9365   16.8223 C   0  0  0  0  0  0  0  0  0  0  0  0
    8.7742   -6.1498   16.6764 C   0  0  0  0  0  0  0  0  0  0  0  0
   10.9418   -3.4032   21.2053 O   0  0  0  0  0  0  0  0  0  0  0  0
    1.4797   -8.6258   16.2950 C   0  0  0  0  0  0  0  0  0  0  0  0
    9.2861   -1.2743   25.3585 C   0  0  0  0  0  0  0  0  0  0  0  0
    1.8892  -10.3985   17.7511 N   0  0  0  0  0  0  0  0  0  0  0  0
    9.6210   -0.6952   24.0976 C   0  0  0  0  0  0  0  0  0  0  0  0
    7.0792   -9.0217   17.1429 C   0  0  0  0  0  0  0  0  0  0  0  0
    3.1713  -10.1816   17.6634 C   0  0  0  0  0  0  0  0  0  0  0  0
    2.7878   -8.3822   16.2137 C   0  0  0  0  0  0  0  0  0  0  0  0
    9.4601   -2.6590   25.6528 C   0  0  0  0  0  0  0  0  0  0  0  0
   10.1182   -1.5672   23.1165 C   0  0  0  0  0  0  0  0  0  0  0  0
    1.0552   -9.6360   17.0650 C   0  0  0  0  0  0  0  0  0  0  0  0
    3.6519   -9.1783   16.9039 C   0  0  0  0  0  0  0  0  0  0  0  0
    7.8675   -7.0096   15.9415 C   0  0  0  0  0  0  0  0  0  0  0  0
    5.9733   -9.6553   17.3832 N   0  0  0  0  0  0  0  0  0  0  0  0
   10.2411   -2.9363   23.4301 C   0  0  0  0  0  0  0  0  0  0  0  0
   10.7288   -3.8197   19.9525 C   0  0  0  0  0  0  0  0  0  0  0  0
   10.1189   -5.0054   19.6987 C   0  0  0  0  0  0  0  0  0  0  0  0
  1  3  4  0
  1  7  4  0
  2 21  4  0
  2 27  4  0
  3  9  4  0
  3 10  4  0
  4  8  4  0
  4 18  4  0
  4 25  1  0
  5  9  4  0
  5 12  4  0
  6 13  1  0
  6 27  1  0
  7 28  4  0
  8 11  4  0
  9 29  4  0
 10 12  4  0
 11 24  1  0
 11 26  4  0
 12 25  1  0
 13 28  1  0
 14 20  4  0
 14 23  4  0
 15 17  4  0
 15 21  4  0
 16 19  4  0
 16 23  4  0
 17 22  4  0
 18 26  4  0
 19 24  4  0
 20 24  4  0
 22 27  4  0
 28 29  4  0
M  END
$$$$

 Created by Python create_sdf_string function

 29 33  0  0  0  0  0  0  0  0999 V2000
   10.7215   -3.3326   17.6437 C   0  0  0  0  0  0  0  0  0  0  0  0
    9.9489   -3.4675   24.6487 N   0  0  0  0  0  0  0  0  0  0  0  0
   10.0172   -4.4740   17.4101 C   0  0  0  0  0  0  0  0  0  0  0  0
    6.9051   -7.9575   16.4222 C   0  0  0  0  0  0  0  0  0  0  0  0
    8.9969   -6.3552   17.9668 N   0  0  0  0  0  0  0  0  0  0  0  0
   10.6702   -3.9051   22.4070 C   0  0  0  0  0  0  0  0  0  0  0  0
   11.0625   -3.0028   18.8894 C   0  0  0  0  0  0  0  0  0  0  0  0
    5.6180   -7.9194   16.1754 O   0  0  0  0  0  0  0  0  0  0  0  0
    9.7259   -5.3080   18.4485 C   0  0  0  0  0  0  0  0  0  0  0  0
    9.4578   -5.0200   16.3036 N   0  0  0  0  0  0  0  0  0  0  0  0
    5.0287   -8.9365   16.8223 C   0  0  0  0  0  0  0  0  0  0  0  0
    8.7742   -6.1498   16.6764 C   0  0  0  0  0  0  0  0  0  0  0  0
   10.9418   -3.4032   21.2053 O   0  0  0  0  0  0  0  0  0  0  0  0
    1.4797   -8.6258   16.2950 C   0  0  0  0  0  0  0  0  0  0  0  0
    9.2861   -1.2743   25.3585 C   0  0  0  0  0  0  0  0  0  0  0  0
    1.8892  -10.3985   17.7511 N   0  0  0  0  0  0  0  0  0  0  0  0
    9.6210   -0.6952   24.0976 C   0  0  0  0  0  0  0  0  0  0  0  0
    7.0792   -9.0217   17.1429 C   0  0  0  0  0  0  0  0  0  0  0  0
    3.1713  -10.1816   17.6634 C   0  0  0  0  0  0  0  0  0  0  0  0
    2.7878   -8.3822   16.2137 C   0  0  0  0  0  0  0  0  0  0  0  0
    9.4601   -2.6590   25.6528 C   0  0  0  0  0  0  0  0  0  0  0  0
   10.1182   -1.5672   23.1165 C   0  0  0  0  0  0  0  0  0  0  0  0
    1.0552   -9.6360   17.0650 C   0  0  0  0  0  0  0  0  0  0  0  0
    3.6519   -9.1783   16.9039 C   0  0  0  0  0  0  0  0  0  0  0  0
    7.8675   -7.0096   15.9415 C   0  0  0  0  0  0  0  0  0  0  0  0
    5.9733   -9.6553   17.3832 N   0  0  0  0  0  0  0  0  0  0  0  0
   10.2411   -2.9363   23.4301 C   0  0  0  0  0  0  0  0  0  0  0  0
   10.7288   -3.8197   19.9525 C   0  0  0  0  0  0  0  0  0  0  0  0
   10.1189   -5.0054   19.6987 C   0  0  0  0  0  0  0  0  0  0  0  0
  1  3  4  0
  1  7  4  0
  2 21  4  0
  2 27  4  0
  3  9  4  0
  3 10  4  0
  4  8  4  0
  4 18  4  0
  4 25  1  0
  5  9  4  0
  5 12  4  0
  6 13  1  0
  6 27  1  0
  7 28  4  0
  8 11  4  0
  9 29  4  0
 10 12  4  0
 11 24  1  0
 11 26  4  0
 12 25  1  0
 13 28  1  0
 14 20  4  0
 14 23  4  0
 15 17  4  0
 15 21  4  0
 16 19  4  0
 16 23  4  0
 17 22  4  0
 18 26  4  0
 19 24  4  0
 20 24  4  0
 22 27  4  0
 28 29  4  0
M  END
$$$$

 Created by Python create_sdf_string function

 29 33  0  0  0  0  0  0  0  0999 V2000
   10.7215   -3.3326   17.6437 C   0  0  0  0  0  0  0  0  0  0  0  0
    9.9489   -3.4675   24.6487 N   0  0  0  0  0  0  0  0  0  0  0  0
   10.0172   -4.4740   17.4101 C   0  0  0  0  0  0  0  0  0  0  0  0
    6.9051   -7.9575   16.4222 C   0  0  0  0  0  0  0  0  0  0  0  0
    8.9969   -6.3552   17.9668 N   0  0  0  0  0  0  0  0  0  0  0  0
   10.6702   -3.9051   22.4070 C   0  0  0  0  0  0  0  0  0  0  0  0
   11.0625   -3.0028   18.8894 C   0  0  0  0  0  0  0  0  0  0  0  0
    5.6180   -7.9194   16.1754 O   0  0  0  0  0  0  0  0  0  0  0  0
    9.7259   -5.3080   18.4485 C   0  0  0  0  0  0  0  0  0  0  0  0
    9.4578   -5.0200   16.3036 N   0  0  0  0  0  0  0  0  0  0  0  0
    5.0287   -8.9365   16.8223 C   0  0  0  0  0  0  0  0  0  0  0  0
    8.7742   -6.1498   16.6764 C   0  0  0  0  0  0  0  0  0  0  0  0
   10.9418   -3.4032   21.2053 O   0  0  0  0  0  0  0  0  0  0  0  0
    1.4797   -8.6258   16.2950 C   0  0  0  0  0  0  0  0  0  0  0  0
    9.2861   -1.2743   25.3585 C   0  0  0  0  0  0  0  0  0  0  0  0
    1.8892  -10.3985   17.7511 N   0  0  0  0  0  0  0  0  0  0  0  0
    9.6210   -0.6952   24.0976 C   0  0  0  0  0  0  0  0  0  0  0  0
    7.0792   -9.0217   17.1429 C   0  0  0  0  0  0  0  0  0  0  0  0
    3.1713  -10.1816   17.6634 C   0  0  0  0  0  0  0  0  0  0  0  0
    2.7878   -8.3822   16.2137 C   0  0  0  0  0  0  0  0  0  0  0  0
    9.4601   -2.6590   25.6528 C   0  0  0  0  0  0  0  0  0  0  0  0
   10.1182   -1.5672   23.1165 C   0  0  0  0  0  0  0  0  0  0  0  0
    1.0552   -9.6360   17.0650 C   0  0  0  0  0  0  0  0  0  0  0  0
    3.6519   -9.1783   16.9039 C   0  0  0  0  0  0  0  0  0  0  0  0
    7.8675   -7.0096   15.9415 C   0  0  0  0  0  0  0  0  0  0  0  0
    5.9733   -9.6553   17.3832 N   0  0  0  0  0  0  0  0  0  0  0  0
   10.2411   -2.9363   23.4301 C   0  0  0  0  0  0  0  0  0  0  0  0
   10.7288   -3.8197   19.9525 C   0  0  0  0  0  0  0  0  0  0  0  0
   10.1189   -5.0054   19.6987 C   0  0  0  0  0  0  0  0  0  0  0  0
  1  3  4  0
  1  7  4  0
  2 21  4  0
  2 27  4  0
  3  9  4  0
  3 10  4  0
  4  8  4  0
  4 18  4  0
  4 25  1  0
  5  9  4  0
  5 12  4  0
  6 13  1  0
  6 27  1  0
  7 28  4  0
  8 11  4  0
  9 29  4  0
 10 12  4  0
 11 24  1  0
 11 26  4  0
 12 25  1  0
 13 28  1  0
 14 20  4  0
 14 23  4  0
 15 17  4  0
 15 21  4  0
 16 19  4  0
 16 23  4  0
 17 22  4  0
 18 26  4  0
 19 24  4  0
 20 24  4  0
 22 27  4  0
 28 29  4  0
M  END
$$$$

 Created by Python create_sdf_string function

 29 33  0  0  0  0  0  0  0  0999 V2000
   10.7215   -3.3326   17.6437 C   0  0  0  0  0  0  0  0  0  0  0  0
    9.9489   -3.4675   24.6487 N   0  0  0  0  0  0  0  0  0  0  0  0
   10.0172   -4.4740   17.4101 C   0  0  0  0  0  0  0  0  0  0  0  0
    6.9051   -7.9575   16.4222 C   0  0  0  0  0  0  0  0  0  0  0  0
    8.9969   -6.3552   17.9668 N   0  0  0  0  0  0  0  0  0  0  0  0
   10.6702   -3.9051   22.4070 C   0  0  0  0  0  0  0  0  0  0  0  0
   11.0625   -3.0028   18.8894 C   0  0  0  0  0  0  0  0  0  0  0  0
    5.6180   -7.9194   16.1754 O   0  0  0  0  0  0  0  0  0  0  0  0
    9.7259   -5.3080   18.4485 C   0  0  0  0  0  0  0  0  0  0  0  0
    9.4578   -5.0200   16.3036 N   0  0  0  0  0  0  0  0  0  0  0  0
    5.0287   -8.9365   16.8223 C   0  0  0  0  0  0  0  0  0  0  0  0
    8.7742   -6.1498   16.6764 C   0  0  0  0  0  0  0  0  0  0  0  0
   10.9418   -3.4032   21.2053 O   0  0  0  0  0  0  0  0  0  0  0  0
    1.4797   -8.6258   16.2950 C   0  0  0  0  0  0  0  0  0  0  0  0
    9.2861   -1.2743   25.3585 C   0  0  0  0  0  0  0  0  0  0  0  0
    1.8892  -10.3985   17.7511 N   0  0  0  0  0  0  0  0  0  0  0  0
    9.6210   -0.6952   24.0976 C   0  0  0  0  0  0  0  0  0  0  0  0
    7.0792   -9.0217   17.1429 C   0  0  0  0  0  0  0  0  0  0  0  0
    3.1713  -10.1816   17.6634 C   0  0  0  0  0  0  0  0  0  0  0  0
    2.7878   -8.3822   16.2137 C   0  0  0  0  0  0  0  0  0  0  0  0
    9.4601   -2.6590   25.6528 C   0  0  0  0  0  0  0  0  0  0  0  0
   10.1182   -1.5672   23.1165 C   0  0  0  0  0  0  0  0  0  0  0  0
    1.0552   -9.6360   17.0650 C   0  0  0  0  0  0  0  0  0  0  0  0
    3.6519   -9.1783   16.9039 C   0  0  0  0  0  0  0  0  0  0  0  0
    7.8675   -7.0096   15.9415 C   0  0  0  0  0  0  0  0  0  0  0  0
    5.9733   -9.6553   17.3832 N   0  0  0  0  0  0  0  0  0  0  0  0
   10.2411   -2.9363   23.4301 C   0  0  0  0  0  0  0  0  0  0  0  0
   10.7288   -3.8197   19.9525 C   0  0  0  0  0  0  0  0  0  0  0  0
   10.1189   -5.0054   19.6987 C   0  0  0  0  0  0  0  0  0  0  0  0
  1  3  4  0
  1  7  4  0
  2 21  4  0
  2 27  4  0
  3  9  4  0
  3 10  4  0
  4  8  4  0
  4 18  4  0
  4 25  1  0
  5  9  4  0
  5 12  4  0
  6 13  1  0
  6 27  1  0
  7 28  4  0
  8 11  4  0
  9 29  4  0
 10 12  4  0
 11 24  1  0
 11 26  4  0
 12 25  1  0
 13 28  1  0
 14 20  4  0
 14 23  4  0
 15 17  4  0
 15 21  4  0
 16 19  4  0
 16 23  4  0
 17 22  4  0
 18 26  4  0
 19 24  4  0
 20 24  4  0
 22 27  4  0
 28 29  4  0
M  END
$$$$

 Created by Python create_sdf_string function

 29 33  0  0  0  0  0  0  0  0999 V2000
   10.7215   -3.3326   17.6437 C   0  0  0  0  0  0  0  0  0  0  0  0
    9.9489   -3.4675   24.6487 N   0  0  0  0  0  0  0  0  0  0  0  0
   10.0172   -4.4740   17.4101 C   0  0  0  0  0  0  0  0  0  0  0  0
    6.9051   -7.9575   16.4222 C   0  0  0  0  0  0  0  0  0  0  0  0
    8.9969   -6.3552   17.9668 N   0  0  0  0  0  0  0  0  0  0  0  0
   10.6702   -3.9051   22.4070 C   0  0  0  0  0  0  0  0  0  0  0  0
   11.0625   -3.0028   18.8894 C   0  0  0  0  0  0  0  0  0  0  0  0
    5.6180   -7.9194   16.1754 O   0  0  0  0  0  0  0  0  0  0  0  0
    9.7259   -5.3080   18.4485 C   0  0  0  0  0  0  0  0  0  0  0  0
    9.4578   -5.0200   16.3036 N   0  0  0  0  0  0  0  0  0  0  0  0
    5.0287   -8.9365   16.8223 C   0  0  0  0  0  0  0  0  0  0  0  0
    8.7742   -6.1498   16.6764 C   0  0  0  0  0  0  0  0  0  0  0  0
   10.9418   -3.4032   21.2053 O   0  0  0  0  0  0  0  0  0  0  0  0
    1.4797   -8.6258   16.2950 C   0  0  0  0  0  0  0  0  0  0  0  0
    9.2861   -1.2743   25.3585 C   0  0  0  0  0  0  0  0  0  0  0  0
    1.8892  -10.3985   17.7511 N   0  0  0  0  0  0  0  0  0  0  0  0
    9.6210   -0.6952   24.0976 C   0  0  0  0  0  0  0  0  0  0  0  0
    7.0792   -9.0217   17.1429 C   0  0  0  0  0  0  0  0  0  0  0  0
    3.1713  -10.1816   17.6634 C   0  0  0  0  0  0  0  0  0  0  0  0
    2.7878   -8.3822   16.2137 C   0  0  0  0  0  0  0  0  0  0  0  0
    9.4601   -2.6590   25.6528 C   0  0  0  0  0  0  0  0  0  0  0  0
   10.1182   -1.5672   23.1165 C   0  0  0  0  0  0  0  0  0  0  0  0
    1.0552   -9.6360   17.0650 C   0  0  0  0  0  0  0  0  0  0  0  0
    3.6519   -9.1783   16.9039 C   0  0  0  0  0  0  0  0  0  0  0  0
    7.8675   -7.0096   15.9415 C   0  0  0  0  0  0  0  0  0  0  0  0
    5.9733   -9.6553   17.3832 N   0  0  0  0  0  0  0  0  0  0  0  0
   10.2411   -2.9363   23.4301 C   0  0  0  0  0  0  0  0  0  0  0  0
   10.7288   -3.8197   19.9525 C   0  0  0  0  0  0  0  0  0  0  0  0
   10.1189   -5.0054   19.6987 C   0  0  0  0  0  0  0  0  0  0  0  0
  1  3  4  0
  1  7  4  0
  2 21  4  0
  2 27  4  0
  3  9  4  0
  3 10  4  0
  4  8  4  0
  4 18  4  0
  4 25  1  0
  5  9  4  0
  5 12  4  0
  6 13  1  0
  6 27  1  0
  7 28  4  0
  8 11  4  0
  9 29  4  0
 10 12  4  0
 11 24  1  0
 11 26  4  0
 12 25  1  0
 13 28  1  0
 14 20  4  0
 14 23  4  0
 15 17  4  0
 15 21  4  0
 16 19  4  0
 16 23  4  0
 17 22  4  0
 18 26  4  0
 19 24  4  0
 20 24  4  0
 22 27  4  0
 28 29  4  0
M  END
$$$$

 Created by Python create_sdf_string function

 29 33  0  0  0  0  0  0  0  0999 V2000
   10.7215   -3.3326   17.6437 C   0  0  0  0  0  0  0  0  0  0  0  0
    9.9489   -3.4675   24.6487 N   0  0  0  0  0  0  0  0  0  0  0  0
   10.0172   -4.4740   17.4101 C   0  0  0  0  0  0  0  0  0  0  0  0
    6.9051   -7.9575   16.4222 C   0  0  0  0  0  0  0  0  0  0  0  0
    8.9969   -6.3552   17.9668 N   0  0  0  0  0  0  0  0  0  0  0  0
   10.6702   -3.9051   22.4070 C   0  0  0  0  0  0  0  0  0  0  0  0
   11.0625   -3.0028   18.8894 C   0  0  0  0  0  0  0  0  0  0  0  0
    5.6180   -7.9194   16.1754 O   0  0  0  0  0  0  0  0  0  0  0  0
    9.7259   -5.3080   18.4485 C   0  0  0  0  0  0  0  0  0  0  0  0
    9.4578   -5.0200   16.3036 N   0  0  0  0  0  0  0  0  0  0  0  0
    5.0287   -8.9365   16.8223 C   0  0  0  0  0  0  0  0  0  0  0  0
    8.7742   -6.1498   16.6764 C   0  0  0  0  0  0  0  0  0  0  0  0
   10.9418   -3.4032   21.2053 O   0  0  0  0  0  0  0  0  0  0  0  0
    1.4797   -8.6258   16.2950 C   0  0  0  0  0  0  0  0  0  0  0  0
    9.2861   -1.2743   25.3585 C   0  0  0  0  0  0  0  0  0  0  0  0
    1.8892  -10.3985   17.7511 N   0  0  0  0  0  0  0  0  0  0  0  0
    9.6210   -0.6952   24.0976 C   0  0  0  0  0  0  0  0  0  0  0  0
    7.0792   -9.0217   17.1429 C   0  0  0  0  0  0  0  0  0  0  0  0
    3.1713  -10.1816   17.6634 C   0  0  0  0  0  0  0  0  0  0  0  0
    2.7878   -8.3822   16.2137 C   0  0  0  0  0  0  0  0  0  0  0  0
    9.4601   -2.6590   25.6528 C   0  0  0  0  0  0  0  0  0  0  0  0
   10.1182   -1.5672   23.1165 C   0  0  0  0  0  0  0  0  0  0  0  0
    1.0552   -9.6360   17.0650 C   0  0  0  0  0  0  0  0  0  0  0  0
    3.6519   -9.1783   16.9039 C   0  0  0  0  0  0  0  0  0  0  0  0
    7.8675   -7.0096   15.9415 C   0  0  0  0  0  0  0  0  0  0  0  0
    5.9733   -9.6553   17.3832 N   0  0  0  0  0  0  0  0  0  0  0  0
   10.2411   -2.9363   23.4301 C   0  0  0  0  0  0  0  0  0  0  0  0
   10.7288   -3.8197   19.9525 C   0  0  0  0  0  0  0  0  0  0  0  0
   10.1189   -5.0054   19.6987 C   0  0  0  0  0  0  0  0  0  0  0  0
  1  3  4  0
  1  7  4  0
  2 21  4  0
  2 27  4  0
  3  9  4  0
  3 10  4  0
  4  8  4  0
  4 18  4  0
  4 25  1  0
  5  9  4  0
  5 12  4  0
  6 13  1  0
  6 27  1  0
  7 28  4  0
  8 11  4  0
  9 29  4  0
 10 12  4  0
 11 24  1  0
 11 26  4  0
 12 25  1  0
 13 28  1  0
 14 20  4  0
 14 23  4  0
 15 17  4  0
 15 21  4  0
 16 19  4  0
 16 23  4  0
 17 22  4  0
 18 26  4  0
 19 24  4  0
 20 24  4  0
 22 27  4  0
 28 29  4  0
M  END
$$$$

 Created by Python create_sdf_string function

 29 33  0  0  0  0  0  0  0  0999 V2000
   10.7215   -3.3326   17.6437 C   0  0  0  0  0  0  0  0  0  0  0  0
    9.9489   -3.4675   24.6487 N   0  0  0  0  0  0  0  0  0  0  0  0
   10.0172   -4.4740   17.4101 C   0  0  0  0  0  0  0  0  0  0  0  0
    6.9051   -7.9575   16.4222 C   0  0  0  0  0  0  0  0  0  0  0  0
    8.9969   -6.3552   17.9668 N   0  0  0  0  0  0  0  0  0  0  0  0
   10.6702   -3.9051   22.4070 C   0  0  0  0  0  0  0  0  0  0  0  0
   11.0625   -3.0028   18.8894 C   0  0  0  0  0  0  0  0  0  0  0  0
    5.6180   -7.9194   16.1754 O   0  0  0  0  0  0  0  0  0  0  0  0
    9.7259   -5.3080   18.4485 C   0  0  0  0  0  0  0  0  0  0  0  0
    9.4578   -5.0200   16.3036 N   0  0  0  0  0  0  0  0  0  0  0  0
    5.0287   -8.9365   16.8223 C   0  0  0  0  0  0  0  0  0  0  0  0
    8.7742   -6.1498   16.6764 C   0  0  0  0  0  0  0  0  0  0  0  0
   10.9418   -3.4032   21.2053 O   0  0  0  0  0  0  0  0  0  0  0  0
    1.4797   -8.6258   16.2950 C   0  0  0  0  0  0  0  0  0  0  0  0
    9.2861   -1.2743   25.3585 C   0  0  0  0  0  0  0  0  0  0  0  0
    1.8892  -10.3985   17.7511 N   0  0  0  0  0  0  0  0  0  0  0  0
    9.6210   -0.6952   24.0976 C   0  0  0  0  0  0  0  0  0  0  0  0
    7.0792   -9.0217   17.1429 C   0  0  0  0  0  0  0  0  0  0  0  0
    3.1713  -10.1816   17.6634 C   0  0  0  0  0  0  0  0  0  0  0  0
    2.7878   -8.3822   16.2137 C   0  0  0  0  0  0  0  0  0  0  0  0
    9.4601   -2.6590   25.6528 C   0  0  0  0  0  0  0  0  0  0  0  0
   10.1182   -1.5672   23.1165 C   0  0  0  0  0  0  0  0  0  0  0  0
    1.0552   -9.6360   17.0650 C   0  0  0  0  0  0  0  0  0  0  0  0
    3.6519   -9.1783   16.9039 C   0  0  0  0  0  0  0  0  0  0  0  0
    7.8675   -7.0096   15.9415 C   0  0  0  0  0  0  0  0  0  0  0  0
    5.9733   -9.6553   17.3832 N   0  0  0  0  0  0  0  0  0  0  0  0
   10.2411   -2.9363   23.4301 C   0  0  0  0  0  0  0  0  0  0  0  0
   10.7288   -3.8197   19.9525 C   0  0  0  0  0  0  0  0  0  0  0  0
   10.1189   -5.0054   19.6987 C   0  0  0  0  0  0  0  0  0  0  0  0
  1  3  4  0
  1  7  4  0
  2 21  4  0
  2 27  4  0
  3  9  4  0
  3 10  4  0
  4  8  4  0
  4 18  4  0
  4 25  1  0
  5  9  4  0
  5 12  4  0
  6 13  1  0
  6 27  1  0
  7 28  4  0
  8 11  4  0
  9 29  4  0
 10 12  4  0
 11 24  1  0
 11 26  4  0
 12 25  1  0
 13 28  1  0
 14 20  4  0
 14 23  4  0
 15 17  4  0
 15 21  4  0
 16 19  4  0
 16 23  4  0
 17 22  4  0
 18 26  4  0
 19 24  4  0
 20 24  4  0
 22 27  4  0
 28 29  4  0
M  END
$$$$

 Created by Python create_sdf_string function

 29 33  0  0  0  0  0  0  0  0999 V2000
   10.7215   -3.3326   17.6437 C   0  0  0  0  0  0  0  0  0  0  0  0
    9.9489   -3.4675   24.6487 N   0  0  0  0  0  0  0  0  0  0  0  0
   10.0172   -4.4740   17.4101 C   0  0  0  0  0  0  0  0  0  0  0  0
    6.9051   -7.9575   16.4222 C   0  0  0  0  0  0  0  0  0  0  0  0
    8.9969   -6.3552   17.9668 N   0  0  0  0  0  0  0  0  0  0  0  0
   10.6702   -3.9051   22.4070 C   0  0  0  0  0  0  0  0  0  0  0  0
   11.0625   -3.0028   18.8894 C   0  0  0  0  0  0  0  0  0  0  0  0
    5.6180   -7.9194   16.1754 O   0  0  0  0  0  0  0  0  0  0  0  0
    9.7259   -5.3080   18.4485 C   0  0  0  0  0  0  0  0  0  0  0  0
    9.4578   -5.0200   16.3036 N   0  0  0  0  0  0  0  0  0  0  0  0
    5.0287   -8.9365   16.8223 C   0  0  0  0  0  0  0  0  0  0  0  0
    8.7742   -6.1498   16.6764 C   0  0  0  0  0  0  0  0  0  0  0  0
   10.9418   -3.4032   21.2053 O   0  0  0  0  0  0  0  0  0  0  0  0
    1.4797   -8.6258   16.2950 C   0  0  0  0  0  0  0  0  0  0  0  0
    9.2861   -1.2743   25.3585 C   0  0  0  0  0  0  0  0  0  0  0  0
    1.8892  -10.3985   17.7511 N   0  0  0  0  0  0  0  0  0  0  0  0
    9.6210   -0.6952   24.0976 C   0  0  0  0  0  0  0  0  0  0  0  0
    7.0792   -9.0217   17.1429 C   0  0  0  0  0  0  0  0  0  0  0  0
    3.1713  -10.1816   17.6634 C   0  0  0  0  0  0  0  0  0  0  0  0
    2.7878   -8.3822   16.2137 C   0  0  0  0  0  0  0  0  0  0  0  0
    9.4601   -2.6590   25.6528 C   0  0  0  0  0  0  0  0  0  0  0  0
   10.1182   -1.5672   23.1165 C   0  0  0  0  0  0  0  0  0  0  0  0
    1.0552   -9.6360   17.0650 C   0  0  0  0  0  0  0  0  0  0  0  0
    3.6519   -9.1783   16.9039 C   0  0  0  0  0  0  0  0  0  0  0  0
    7.8675   -7.0096   15.9415 C   0  0  0  0  0  0  0  0  0  0  0  0
    5.9733   -9.6553   17.3832 N   0  0  0  0  0  0  0  0  0  0  0  0
   10.2411   -2.9363   23.4301 C   0  0  0  0  0  0  0  0  0  0  0  0
   10.7288   -3.8197   19.9525 C   0  0  0  0  0  0  0  0  0  0  0  0
   10.1189   -5.0054   19.6987 C   0  0  0  0  0  0  0  0  0  0  0  0
  1  3  4  0
  1  7  4  0
  2 21  4  0
  2 27  4  0
  3  9  4  0
  3 10  4  0
  4  8  4  0
  4 18  4  0
  4 25  1  0
  5  9  4  0
  5 12  4  0
  6 13  1  0
  6 27  1  0
  7 28  4  0
  8 11  4  0
  9 29  4  0
 10 12  4  0
 11 24  1  0
 11 26  4  0
 12 25  1  0
 13 28  1  0
 14 20  4  0
 14 23  4  0
 15 17  4  0
 15 21  4  0
 16 19  4  0
 16 23  4  0
 17 22  4  0
 18 26  4  0
 19 24  4  0
 20 24  4  0
 22 27  4  0
 28 29  4  0
M  END
$$$$

 Created by Python create_sdf_string function

 29 33  0  0  0  0  0  0  0  0999 V2000
   10.7215   -3.3326   17.6437 C   0  0  0  0  0  0  0  0  0  0  0  0
    9.9489   -3.4675   24.6487 N   0  0  0  0  0  0  0  0  0  0  0  0
   10.0172   -4.4740   17.4101 C   0  0  0  0  0  0  0  0  0  0  0  0
    6.9051   -7.9575   16.4222 C   0  0  0  0  0  0  0  0  0  0  0  0
    8.9969   -6.3552   17.9668 N   0  0  0  0  0  0  0  0  0  0  0  0
   10.6702   -3.9051   22.4070 C   0  0  0  0  0  0  0  0  0  0  0  0
   11.0625   -3.0028   18.8894 C   0  0  0  0  0  0  0  0  0  0  0  0
    5.6180   -7.9194   16.1754 O   0  0  0  0  0  0  0  0  0  0  0  0
    9.7259   -5.3080   18.4485 C   0  0  0  0  0  0  0  0  0  0  0  0
    9.4578   -5.0200   16.3036 N   0  0  0  0  0  0  0  0  0  0  0  0
    5.0287   -8.9365   16.8223 C   0  0  0  0  0  0  0  0  0  0  0  0
    8.7742   -6.1498   16.6764 C   0  0  0  0  0  0  0  0  0  0  0  0
   10.9418   -3.4032   21.2053 O   0  0  0  0  0  0  0  0  0  0  0  0
    1.4797   -8.6258   16.2950 C   0  0  0  0  0  0  0  0  0  0  0  0
    9.2861   -1.2743   25.3585 C   0  0  0  0  0  0  0  0  0  0  0  0
    1.8892  -10.3985   17.7511 N   0  0  0  0  0  0  0  0  0  0  0  0
    9.6210   -0.6952   24.0976 C   0  0  0  0  0  0  0  0  0  0  0  0
    7.0792   -9.0217   17.1429 C   0  0  0  0  0  0  0  0  0  0  0  0
    3.1713  -10.1816   17.6634 C   0  0  0  0  0  0  0  0  0  0  0  0
    2.7878   -8.3822   16.2137 C   0  0  0  0  0  0  0  0  0  0  0  0
    9.4601   -2.6590   25.6528 C   0  0  0  0  0  0  0  0  0  0  0  0
   10.1182   -1.5672   23.1165 C   0  0  0  0  0  0  0  0  0  0  0  0
    1.0552   -9.6360   17.0650 C   0  0  0  0  0  0  0  0  0  0  0  0
    3.6519   -9.1783   16.9039 C   0  0  0  0  0  0  0  0  0  0  0  0
    7.8675   -7.0096   15.9415 C   0  0  0  0  0  0  0  0  0  0  0  0
    5.9733   -9.6553   17.3832 N   0  0  0  0  0  0  0  0  0  0  0  0
   10.2411   -2.9363   23.4301 C   0  0  0  0  0  0  0  0  0  0  0  0
   10.7288   -3.8197   19.9525 C   0  0  0  0  0  0  0  0  0  0  0  0
   10.1189   -5.0054   19.6987 C   0  0  0  0  0  0  0  0  0  0  0  0
  1  3  4  0
  1  7  4  0
  2 21  4  0
  2 27  4  0
  3  9  4  0
  3 10  4  0
  4  8  4  0
  4 18  4  0
  4 25  1  0
  5  9  4  0
  5 12  4  0
  6 13  1  0
  6 27  1  0
  7 28  4  0
  8 11  4  0
  9 29  4  0
 10 12  4  0
 11 24  1  0
 11 26  4  0
 12 25  1  0
 13 28  1  0
 14 20  4  0
 14 23  4  0
 15 17  4  0
 15 21  4  0
 16 19  4  0
 16 23  4  0
 17 22  4  0
 18 26  4  0
 19 24  4  0
 20 24  4  0
 22 27  4  0
 28 29  4  0
M  END
$$$$

 Created by Python create_sdf_string function

 29 33  0  0  0  0  0  0  0  0999 V2000
   10.7215   -3.3326   17.6437 C   0  0  0  0  0  0  0  0  0  0  0  0
    9.9489   -3.4675   24.6487 N   0  0  0  0  0  0  0  0  0  0  0  0
   10.0172   -4.4740   17.4101 C   0  0  0  0  0  0  0  0  0  0  0  0
    6.9051   -7.9575   16.4222 C   0  0  0  0  0  0  0  0  0  0  0  0
    8.9969   -6.3552   17.9668 N   0  0  0  0  0  0  0  0  0  0  0  0
   10.6702   -3.9051   22.4070 C   0  0  0  0  0  0  0  0  0  0  0  0
   11.0625   -3.0028   18.8894 C   0  0  0  0  0  0  0  0  0  0  0  0
    5.6180   -7.9194   16.1754 O   0  0  0  0  0  0  0  0  0  0  0  0
    9.7259   -5.3080   18.4485 C   0  0  0  0  0  0  0  0  0  0  0  0
    9.4578   -5.0200   16.3036 N   0  0  0  0  0  0  0  0  0  0  0  0
    5.0287   -8.9365   16.8223 C   0  0  0  0  0  0  0  0  0  0  0  0
    8.7742   -6.1498   16.6764 C   0  0  0  0  0  0  0  0  0  0  0  0
   10.9418   -3.4032   21.2053 O   0  0  0  0  0  0  0  0  0  0  0  0
    1.4797   -8.6258   16.2950 C   0  0  0  0  0  0  0  0  0  0  0  0
    9.2861   -1.2743   25.3585 C   0  0  0  0  0  0  0  0  0  0  0  0
    1.8892  -10.3985   17.7511 N   0  0  0  0  0  0  0  0  0  0  0  0
    9.6210   -0.6952   24.0976 C   0  0  0  0  0  0  0  0  0  0  0  0
    7.0792   -9.0217   17.1429 C   0  0  0  0  0  0  0  0  0  0  0  0
    3.1713  -10.1816   17.6634 C   0  0  0  0  0  0  0  0  0  0  0  0
    2.7878   -8.3822   16.2137 C   0  0  0  0  0  0  0  0  0  0  0  0
    9.4601   -2.6590   25.6528 C   0  0  0  0  0  0  0  0  0  0  0  0
   10.1182   -1.5672   23.1165 C   0  0  0  0  0  0  0  0  0  0  0  0
    1.0552   -9.6360   17.0650 C   0  0  0  0  0  0  0  0  0  0  0  0
    3.6519   -9.1783   16.9039 C   0  0  0  0  0  0  0  0  0  0  0  0
    7.8675   -7.0096   15.9415 C   0  0  0  0  0  0  0  0  0  0  0  0
    5.9733   -9.6553   17.3832 N   0  0  0  0  0  0  0  0  0  0  0  0
   10.2411   -2.9363   23.4301 C   0  0  0  0  0  0  0  0  0  0  0  0
   10.7288   -3.8197   19.9525 C   0  0  0  0  0  0  0  0  0  0  0  0
   10.1189   -5.0054   19.6987 C   0  0  0  0  0  0  0  0  0  0  0  0
  1  3  4  0
  1  7  4  0
  2 21  4  0
  2 27  4  0
  3  9  4  0
  3 10  4  0
  4  8  4  0
  4 18  4  0
  4 25  1  0
  5  9  4  0
  5 12  4  0
  6 13  1  0
  6 27  1  0
  7 28  4  0
  8 11  4  0
  9 29  4  0
 10 12  4  0
 11 24  1  0
 11 26  4  0
 12 25  1  0
 13 28  1  0
 14 20  4  0
 14 23  4  0
 15 17  4  0
 15 21  4  0
 16 19  4  0
 16 23  4  0
 17 22  4  0
 18 26  4  0
 19 24  4  0
 20 24  4  0
 22 27  4  0
 28 29  4  0
M  END
$$$$

 Created by Python create_sdf_string function

 29 33  0  0  0  0  0  0  0  0999 V2000
   10.7215   -3.3326   17.6437 C   0  0  0  0  0  0  0  0  0  0  0  0
    9.9489   -3.4675   24.6487 N   0  0  0  0  0  0  0  0  0  0  0  0
   10.0172   -4.4740   17.4101 C   0  0  0  0  0  0  0  0  0  0  0  0
    6.9051   -7.9575   16.4222 C   0  0  0  0  0  0  0  0  0  0  0  0
    8.9969   -6.3552   17.9668 N   0  0  0  0  0  0  0  0  0  0  0  0
   10.6702   -3.9051   22.4070 C   0  0  0  0  0  0  0  0  0  0  0  0
   11.0625   -3.0028   18.8894 C   0  0  0  0  0  0  0  0  0  0  0  0
    5.6180   -7.9194   16.1754 O   0  0  0  0  0  0  0  0  0  0  0  0
    9.7259   -5.3080   18.4485 C   0  0  0  0  0  0  0  0  0  0  0  0
    9.4578   -5.0200   16.3036 N   0  0  0  0  0  0  0  0  0  0  0  0
    5.0287   -8.9365   16.8223 C   0  0  0  0  0  0  0  0  0  0  0  0
    8.7742   -6.1498   16.6764 C   0  0  0  0  0  0  0  0  0  0  0  0
   10.9418   -3.4032   21.2053 O   0  0  0  0  0  0  0  0  0  0  0  0
    1.4797   -8.6258   16.2950 C   0  0  0  0  0  0  0  0  0  0  0  0
    9.2861   -1.2743   25.3585 C   0  0  0  0  0  0  0  0  0  0  0  0
    1.8892  -10.3985   17.7511 N   0  0  0  0  0  0  0  0  0  0  0  0
    9.6210   -0.6952   24.0976 C   0  0  0  0  0  0  0  0  0  0  0  0
    7.0792   -9.0217   17.1429 C   0  0  0  0  0  0  0  0  0  0  0  0
    3.1713  -10.1816   17.6634 C   0  0  0  0  0  0  0  0  0  0  0  0
    2.7878   -8.3822   16.2137 C   0  0  0  0  0  0  0  0  0  0  0  0
    9.4601   -2.6590   25.6528 C   0  0  0  0  0  0  0  0  0  0  0  0
   10.1182   -1.5672   23.1165 C   0  0  0  0  0  0  0  0  0  0  0  0
    1.0552   -9.6360   17.0650 C   0  0  0  0  0  0  0  0  0  0  0  0
    3.6519   -9.1783   16.9039 C   0  0  0  0  0  0  0  0  0  0  0  0
    7.8675   -7.0096   15.9415 C   0  0  0  0  0  0  0  0  0  0  0  0
    5.9733   -9.6553   17.3832 N   0  0  0  0  0  0  0  0  0  0  0  0
   10.2411   -2.9363   23.4301 C   0  0  0  0  0  0  0  0  0  0  0  0
   10.7288   -3.8197   19.9525 C   0  0  0  0  0  0  0  0  0  0  0  0
   10.1189   -5.0054   19.6987 C   0  0  0  0  0  0  0  0  0  0  0  0
  1  3  4  0
  1  7  4  0
  2 21  4  0
  2 27  4  0
  3  9  4  0
  3 10  4  0
  4  8  4  0
  4 18  4  0
  4 25  1  0
  5  9  4  0
  5 12  4  0
  6 13  1  0
  6 27  1  0
  7 28  4  0
  8 11  4  0
  9 29  4  0
 10 12  4  0
 11 24  1  0
 11 26  4  0
 12 25  1  0
 13 28  1  0
 14 20  4  0
 14 23  4  0
 15 17  4  0
 15 21  4  0
 16 19  4  0
 16 23  4  0
 17 22  4  0
 18 26  4  0
 19 24  4  0
 20 24  4  0
 22 27  4  0
 28 29  4  0
M  END
$$$$

 Created by Python create_sdf_string function

 29 33  0  0  0  0  0  0  0  0999 V2000
   10.7215   -3.3326   17.6437 C   0  0  0  0  0  0  0  0  0  0  0  0
    9.9489   -3.4675   24.6487 N   0  0  0  0  0  0  0  0  0  0  0  0
   10.0172   -4.4740   17.4101 C   0  0  0  0  0  0  0  0  0  0  0  0
    6.9051   -7.9575   16.4222 C   0  0  0  0  0  0  0  0  0  0  0  0
    8.9969   -6.3552   17.9668 N   0  0  0  0  0  0  0  0  0  0  0  0
   10.6702   -3.9051   22.4070 C   0  0  0  0  0  0  0  0  0  0  0  0
   11.0625   -3.0028   18.8894 C   0  0  0  0  0  0  0  0  0  0  0  0
    5.6180   -7.9194   16.1754 O   0  0  0  0  0  0  0  0  0  0  0  0
    9.7259   -5.3080   18.4485 C   0  0  0  0  0  0  0  0  0  0  0  0
    9.4578   -5.0200   16.3036 N   0  0  0  0  0  0  0  0  0  0  0  0
    5.0287   -8.9365   16.8223 C   0  0  0  0  0  0  0  0  0  0  0  0
    8.7742   -6.1498   16.6764 C   0  0  0  0  0  0  0  0  0  0  0  0
   10.9418   -3.4032   21.2053 O   0  0  0  0  0  0  0  0  0  0  0  0
    1.4797   -8.6258   16.2950 C   0  0  0  0  0  0  0  0  0  0  0  0
    9.2861   -1.2743   25.3585 C   0  0  0  0  0  0  0  0  0  0  0  0
    1.8892  -10.3985   17.7511 N   0  0  0  0  0  0  0  0  0  0  0  0
    9.6210   -0.6952   24.0976 C   0  0  0  0  0  0  0  0  0  0  0  0
    7.0792   -9.0217   17.1429 C   0  0  0  0  0  0  0  0  0  0  0  0
    3.1713  -10.1816   17.6634 C   0  0  0  0  0  0  0  0  0  0  0  0
    2.7878   -8.3822   16.2137 C   0  0  0  0  0  0  0  0  0  0  0  0
    9.4601   -2.6590   25.6528 C   0  0  0  0  0  0  0  0  0  0  0  0
   10.1182   -1.5672   23.1165 C   0  0  0  0  0  0  0  0  0  0  0  0
    1.0552   -9.6360   17.0650 C   0  0  0  0  0  0  0  0  0  0  0  0
    3.6519   -9.1783   16.9039 C   0  0  0  0  0  0  0  0  0  0  0  0
    7.8675   -7.0096   15.9415 C   0  0  0  0  0  0  0  0  0  0  0  0
    5.9733   -9.6553   17.3832 N   0  0  0  0  0  0  0  0  0  0  0  0
   10.2411   -2.9363   23.4301 C   0  0  0  0  0  0  0  0  0  0  0  0
   10.7288   -3.8197   19.9525 C   0  0  0  0  0  0  0  0  0  0  0  0
   10.1189   -5.0054   19.6987 C   0  0  0  0  0  0  0  0  0  0  0  0
  1  3  4  0
  1  7  4  0
  2 21  4  0
  2 27  4  0
  3  9  4  0
  3 10  4  0
  4  8  4  0
  4 18  4  0
  4 25  1  0
  5  9  4  0
  5 12  4  0
  6 13  1  0
  6 27  1  0
  7 28  4  0
  8 11  4  0
  9 29  4  0
 10 12  4  0
 11 24  1  0
 11 26  4  0
 12 25  1  0
 13 28  1  0
 14 20  4  0
 14 23  4  0
 15 17  4  0
 15 21  4  0
 16 19  4  0
 16 23  4  0
 17 22  4  0
 18 26  4  0
 19 24  4  0
 20 24  4  0
 22 27  4  0
 28 29  4  0
M  END
$$$$

 Created by Python create_sdf_string function

 29 33  0  0  0  0  0  0  0  0999 V2000
   10.7215   -3.3326   17.6437 C   0  0  0  0  0  0  0  0  0  0  0  0
    9.9489   -3.4675   24.6487 N   0  0  0  0  0  0  0  0  0  0  0  0
   10.0172   -4.4740   17.4101 C   0  0  0  0  0  0  0  0  0  0  0  0
    6.9051   -7.9575   16.4222 C   0  0  0  0  0  0  0  0  0  0  0  0
    8.9969   -6.3552   17.9668 N   0  0  0  0  0  0  0  0  0  0  0  0
   10.6702   -3.9051   22.4070 C   0  0  0  0  0  0  0  0  0  0  0  0
   11.0625   -3.0028   18.8894 C   0  0  0  0  0  0  0  0  0  0  0  0
    5.6180   -7.9194   16.1754 O   0  0  0  0  0  0  0  0  0  0  0  0
    9.7259   -5.3080   18.4485 C   0  0  0  0  0  0  0  0  0  0  0  0
    9.4578   -5.0200   16.3036 N   0  0  0  0  0  0  0  0  0  0  0  0
    5.0287   -8.9365   16.8223 C   0  0  0  0  0  0  0  0  0  0  0  0
    8.7742   -6.1498   16.6764 C   0  0  0  0  0  0  0  0  0  0  0  0
   10.9418   -3.4032   21.2053 O   0  0  0  0  0  0  0  0  0  0  0  0
    1.4797   -8.6258   16.2950 C   0  0  0  0  0  0  0  0  0  0  0  0
    9.2861   -1.2743   25.3585 C   0  0  0  0  0  0  0  0  0  0  0  0
    1.8892  -10.3985   17.7511 N   0  0  0  0  0  0  0  0  0  0  0  0
    9.6210   -0.6952   24.0976 C   0  0  0  0  0  0  0  0  0  0  0  0
    7.0792   -9.0217   17.1429 C   0  0  0  0  0  0  0  0  0  0  0  0
    3.1713  -10.1816   17.6634 C   0  0  0  0  0  0  0  0  0  0  0  0
    2.7878   -8.3822   16.2137 C   0  0  0  0  0  0  0  0  0  0  0  0
    9.4601   -2.6590   25.6528 C   0  0  0  0  0  0  0  0  0  0  0  0
   10.1182   -1.5672   23.1165 C   0  0  0  0  0  0  0  0  0  0  0  0
    1.0552   -9.6360   17.0650 C   0  0  0  0  0  0  0  0  0  0  0  0
    3.6519   -9.1783   16.9039 C   0  0  0  0  0  0  0  0  0  0  0  0
    7.8675   -7.0096   15.9415 C   0  0  0  0  0  0  0  0  0  0  0  0
    5.9733   -9.6553   17.3832 N   0  0  0  0  0  0  0  0  0  0  0  0
   10.2411   -2.9363   23.4301 C   0  0  0  0  0  0  0  0  0  0  0  0
   10.7288   -3.8197   19.9525 C   0  0  0  0  0  0  0  0  0  0  0  0
   10.1189   -5.0054   19.6987 C   0  0  0  0  0  0  0  0  0  0  0  0
  1  3  4  0
  1  7  4  0
  2 21  4  0
  2 27  4  0
  3  9  4  0
  3 10  4  0
  4  8  4  0
  4 18  4  0
  4 25  1  0
  5  9  4  0
  5 12  4  0
  6 13  1  0
  6 27  1  0
  7 28  4  0
  8 11  4  0
  9 29  4  0
 10 12  4  0
 11 24  1  0
 11 26  4  0
 12 25  1  0
 13 28  1  0
 14 20  4  0
 14 23  4  0
 15 17  4  0
 15 21  4  0
 16 19  4  0
 16 23  4  0
 17 22  4  0
 18 26  4  0
 19 24  4  0
 20 24  4  0
 22 27  4  0
 28 29  4  0
M  END
$$$$

 Created by Python create_sdf_string function

 29 33  0  0  0  0  0  0  0  0999 V2000
   10.7215   -3.3326   17.6437 C   0  0  0  0  0  0  0  0  0  0  0  0
    9.9489   -3.4675   24.6487 N   0  0  0  0  0  0  0  0  0  0  0  0
   10.0172   -4.4740   17.4101 C   0  0  0  0  0  0  0  0  0  0  0  0
    6.9051   -7.9575   16.4222 C   0  0  0  0  0  0  0  0  0  0  0  0
    8.9969   -6.3552   17.9668 N   0  0  0  0  0  0  0  0  0  0  0  0
   10.6702   -3.9051   22.4070 C   0  0  0  0  0  0  0  0  0  0  0  0
   11.0625   -3.0028   18.8894 C   0  0  0  0  0  0  0  0  0  0  0  0
    5.6180   -7.9194   16.1754 O   0  0  0  0  0  0  0  0  0  0  0  0
    9.7259   -5.3080   18.4485 C   0  0  0  0  0  0  0  0  0  0  0  0
    9.4578   -5.0200   16.3036 N   0  0  0  0  0  0  0  0  0  0  0  0
    5.0287   -8.9365   16.8223 C   0  0  0  0  0  0  0  0  0  0  0  0
    8.7742   -6.1498   16.6764 C   0  0  0  0  0  0  0  0  0  0  0  0
   10.9418   -3.4032   21.2053 O   0  0  0  0  0  0  0  0  0  0  0  0
    1.4797   -8.6258   16.2950 C   0  0  0  0  0  0  0  0  0  0  0  0
    9.2861   -1.2743   25.3585 C   0  0  0  0  0  0  0  0  0  0  0  0
    1.8892  -10.3985   17.7511 N   0  0  0  0  0  0  0  0  0  0  0  0
    9.6210   -0.6952   24.0976 C   0  0  0  0  0  0  0  0  0  0  0  0
    7.0792   -9.0217   17.1429 C   0  0  0  0  0  0  0  0  0  0  0  0
    3.1713  -10.1816   17.6634 C   0  0  0  0  0  0  0  0  0  0  0  0
    2.7878   -8.3822   16.2137 C   0  0  0  0  0  0  0  0  0  0  0  0
    9.4601   -2.6590   25.6528 C   0  0  0  0  0  0  0  0  0  0  0  0
   10.1182   -1.5672   23.1165 C   0  0  0  0  0  0  0  0  0  0  0  0
    1.0552   -9.6360   17.0650 C   0  0  0  0  0  0  0  0  0  0  0  0
    3.6519   -9.1783   16.9039 C   0  0  0  0  0  0  0  0  0  0  0  0
    7.8675   -7.0096   15.9415 C   0  0  0  0  0  0  0  0  0  0  0  0
    5.9733   -9.6553   17.3832 N   0  0  0  0  0  0  0  0  0  0  0  0
   10.2411   -2.9363   23.4301 C   0  0  0  0  0  0  0  0  0  0  0  0
   10.7288   -3.8197   19.9525 C   0  0  0  0  0  0  0  0  0  0  0  0
   10.1189   -5.0054   19.6987 C   0  0  0  0  0  0  0  0  0  0  0  0
  1  3  4  0
  1  7  4  0
  2 21  4  0
  2 27  4  0
  3  9  4  0
  3 10  4  0
  4  8  4  0
  4 18  4  0
  4 25  1  0
  5  9  4  0
  5 12  4  0
  6 13  1  0
  6 27  1  0
  7 28  4  0
  8 11  4  0
  9 29  4  0
 10 12  4  0
 11 24  1  0
 11 26  4  0
 12 25  1  0
 13 28  1  0
 14 20  4  0
 14 23  4  0
 15 17  4  0
 15 21  4  0
 16 19  4  0
 16 23  4  0
 17 22  4  0
 18 26  4  0
 19 24  4  0
 20 24  4  0
 22 27  4  0
 28 29  4  0
M  END
$$$$

 Created by Python create_sdf_string function

 29 33  0  0  0  0  0  0  0  0999 V2000
   10.7215   -3.3326   17.6437 C   0  0  0  0  0  0  0  0  0  0  0  0
    9.9489   -3.4675   24.6487 N   0  0  0  0  0  0  0  0  0  0  0  0
   10.0172   -4.4740   17.4101 C   0  0  0  0  0  0  0  0  0  0  0  0
    6.9051   -7.9575   16.4222 C   0  0  0  0  0  0  0  0  0  0  0  0
    8.9969   -6.3552   17.9668 N   0  0  0  0  0  0  0  0  0  0  0  0
   10.6702   -3.9051   22.4070 C   0  0  0  0  0  0  0  0  0  0  0  0
   11.0625   -3.0028   18.8894 C   0  0  0  0  0  0  0  0  0  0  0  0
    5.6180   -7.9194   16.1754 O   0  0  0  0  0  0  0  0  0  0  0  0
    9.7259   -5.3080   18.4485 C   0  0  0  0  0  0  0  0  0  0  0  0
    9.4578   -5.0200   16.3036 N   0  0  0  0  0  0  0  0  0  0  0  0
    5.0287   -8.9365   16.8223 C   0  0  0  0  0  0  0  0  0  0  0  0
    8.7742   -6.1498   16.6764 C   0  0  0  0  0  0  0  0  0  0  0  0
   10.9418   -3.4032   21.2053 O   0  0  0  0  0  0  0  0  0  0  0  0
    1.4797   -8.6258   16.2950 C   0  0  0  0  0  0  0  0  0  0  0  0
    9.2861   -1.2743   25.3585 C   0  0  0  0  0  0  0  0  0  0  0  0
    1.8892  -10.3985   17.7511 N   0  0  0  0  0  0  0  0  0  0  0  0
    9.6210   -0.6952   24.0976 C   0  0  0  0  0  0  0  0  0  0  0  0
    7.0792   -9.0217   17.1429 C   0  0  0  0  0  0  0  0  0  0  0  0
    3.1713  -10.1816   17.6634 C   0  0  0  0  0  0  0  0  0  0  0  0
    2.7878   -8.3822   16.2137 C   0  0  0  0  0  0  0  0  0  0  0  0
    9.4601   -2.6590   25.6528 C   0  0  0  0  0  0  0  0  0  0  0  0
   10.1182   -1.5672   23.1165 C   0  0  0  0  0  0  0  0  0  0  0  0
    1.0552   -9.6360   17.0650 C   0  0  0  0  0  0  0  0  0  0  0  0
    3.6519   -9.1783   16.9039 C   0  0  0  0  0  0  0  0  0  0  0  0
    7.8675   -7.0096   15.9415 C   0  0  0  0  0  0  0  0  0  0  0  0
    5.9733   -9.6553   17.3832 N   0  0  0  0  0  0  0  0  0  0  0  0
   10.2411   -2.9363   23.4301 C   0  0  0  0  0  0  0  0  0  0  0  0
   10.7288   -3.8197   19.9525 C   0  0  0  0  0  0  0  0  0  0  0  0
   10.1189   -5.0054   19.6987 C   0  0  0  0  0  0  0  0  0  0  0  0
  1  3  4  0
  1  7  4  0
  2 21  4  0
  2 27  4  0
  3  9  4  0
  3 10  4  0
  4  8  4  0
  4 18  4  0
  4 25  1  0
  5  9  4  0
  5 12  4  0
  6 13  1  0
  6 27  1  0
  7 28  4  0
  8 11  4  0
  9 29  4  0
 10 12  4  0
 11 24  1  0
 11 26  4  0
 12 25  1  0
 13 28  1  0
 14 20  4  0
 14 23  4  0
 15 17  4  0
 15 21  4  0
 16 19  4  0
 16 23  4  0
 17 22  4  0
 18 26  4  0
 19 24  4  0
 20 24  4  0
 22 27  4  0
 28 29  4  0
M  END
$$$$

 Created by Python create_sdf_string function

 29 33  0  0  0  0  0  0  0  0999 V2000
   10.7215   -3.3326   17.6437 C   0  0  0  0  0  0  0  0  0  0  0  0
    9.9489   -3.4675   24.6487 N   0  0  0  0  0  0  0  0  0  0  0  0
   10.0172   -4.4740   17.4101 C   0  0  0  0  0  0  0  0  0  0  0  0
    6.9051   -7.9575   16.4222 C   0  0  0  0  0  0  0  0  0  0  0  0
    8.9969   -6.3552   17.9668 N   0  0  0  0  0  0  0  0  0  0  0  0
   10.6702   -3.9051   22.4070 C   0  0  0  0  0  0  0  0  0  0  0  0
   11.0625   -3.0028   18.8894 C   0  0  0  0  0  0  0  0  0  0  0  0
    5.6180   -7.9194   16.1754 O   0  0  0  0  0  0  0  0  0  0  0  0
    9.7259   -5.3080   18.4485 C   0  0  0  0  0  0  0  0  0  0  0  0
    9.4578   -5.0200   16.3036 N   0  0  0  0  0  0  0  0  0  0  0  0
    5.0287   -8.9365   16.8223 C   0  0  0  0  0  0  0  0  0  0  0  0
    8.7742   -6.1498   16.6764 C   0  0  0  0  0  0  0  0  0  0  0  0
   10.9418   -3.4032   21.2053 O   0  0  0  0  0  0  0  0  0  0  0  0
    1.4797   -8.6258   16.2950 C   0  0  0  0  0  0  0  0  0  0  0  0
    9.2861   -1.2743   25.3585 C   0  0  0  0  0  0  0  0  0  0  0  0
    1.8892  -10.3985   17.7511 N   0  0  0  0  0  0  0  0  0  0  0  0
    9.6210   -0.6952   24.0976 C   0  0  0  0  0  0  0  0  0  0  0  0
    7.0792   -9.0217   17.1429 C   0  0  0  0  0  0  0  0  0  0  0  0
    3.1713  -10.1816   17.6634 C   0  0  0  0  0  0  0  0  0  0  0  0
    2.7878   -8.3822   16.2137 C   0  0  0  0  0  0  0  0  0  0  0  0
    9.4601   -2.6590   25.6528 C   0  0  0  0  0  0  0  0  0  0  0  0
   10.1182   -1.5672   23.1165 C   0  0  0  0  0  0  0  0  0  0  0  0
    1.0552   -9.6360   17.0650 C   0  0  0  0  0  0  0  0  0  0  0  0
    3.6519   -9.1783   16.9039 C   0  0  0  0  0  0  0  0  0  0  0  0
    7.8675   -7.0096   15.9415 C   0  0  0  0  0  0  0  0  0  0  0  0
    5.9733   -9.6553   17.3832 N   0  0  0  0  0  0  0  0  0  0  0  0
   10.2411   -2.9363   23.4301 C   0  0  0  0  0  0  0  0  0  0  0  0
   10.7288   -3.8197   19.9525 C   0  0  0  0  0  0  0  0  0  0  0  0
   10.1189   -5.0054   19.6987 C   0  0  0  0  0  0  0  0  0  0  0  0
  1  3  4  0
  1  7  4  0
  2 21  4  0
  2 27  4  0
  3  9  4  0
  3 10  4  0
  4  8  4  0
  4 18  4  0
  4 25  1  0
  5  9  4  0
  5 12  4  0
  6 13  1  0
  6 27  1  0
  7 28  4  0
  8 11  4  0
  9 29  4  0
 10 12  4  0
 11 24  1  0
 11 26  4  0
 12 25  1  0
 13 28  1  0
 14 20  4  0
 14 23  4  0
 15 17  4  0
 15 21  4  0
 16 19  4  0
 16 23  4  0
 17 22  4  0
 18 26  4  0
 19 24  4  0
 20 24  4  0
 22 27  4  0
 28 29  4  0
M  END
$$$$

 Created by Python create_sdf_string function

 29 33  0  0  0  0  0  0  0  0999 V2000
   10.7215   -3.3326   17.6437 C   0  0  0  0  0  0  0  0  0  0  0  0
    9.9489   -3.4675   24.6487 N   0  0  0  0  0  0  0  0  0  0  0  0
   10.0172   -4.4740   17.4101 C   0  0  0  0  0  0  0  0  0  0  0  0
    6.9051   -7.9575   16.4222 C   0  0  0  0  0  0  0  0  0  0  0  0
    8.9969   -6.3552   17.9668 N   0  0  0  0  0  0  0  0  0  0  0  0
   10.6702   -3.9051   22.4070 C   0  0  0  0  0  0  0  0  0  0  0  0
   11.0625   -3.0028   18.8894 C   0  0  0  0  0  0  0  0  0  0  0  0
    5.6180   -7.9194   16.1754 O   0  0  0  0  0  0  0  0  0  0  0  0
    9.7259   -5.3080   18.4485 C   0  0  0  0  0  0  0  0  0  0  0  0
    9.4578   -5.0200   16.3036 N   0  0  0  0  0  0  0  0  0  0  0  0
    5.0287   -8.9365   16.8223 C   0  0  0  0  0  0  0  0  0  0  0  0
    8.7742   -6.1498   16.6764 C   0  0  0  0  0  0  0  0  0  0  0  0
   10.9418   -3.4032   21.2053 O   0  0  0  0  0  0  0  0  0  0  0  0
    1.4797   -8.6258   16.2950 C   0  0  0  0  0  0  0  0  0  0  0  0
    9.2861   -1.2743   25.3585 C   0  0  0  0  0  0  0  0  0  0  0  0
    1.8892  -10.3985   17.7511 N   0  0  0  0  0  0  0  0  0  0  0  0
    9.6210   -0.6952   24.0976 C   0  0  0  0  0  0  0  0  0  0  0  0
    7.0792   -9.0217   17.1429 C   0  0  0  0  0  0  0  0  0  0  0  0
    3.1713  -10.1816   17.6634 C   0  0  0  0  0  0  0  0  0  0  0  0
    2.7878   -8.3822   16.2137 C   0  0  0  0  0  0  0  0  0  0  0  0
    9.4601   -2.6590   25.6528 C   0  0  0  0  0  0  0  0  0  0  0  0
   10.1182   -1.5672   23.1165 C   0  0  0  0  0  0  0  0  0  0  0  0
    1.0552   -9.6360   17.0650 C   0  0  0  0  0  0  0  0  0  0  0  0
    3.6519   -9.1783   16.9039 C   0  0  0  0  0  0  0  0  0  0  0  0
    7.8675   -7.0096   15.9415 C   0  0  0  0  0  0  0  0  0  0  0  0
    5.9733   -9.6553   17.3832 N   0  0  0  0  0  0  0  0  0  0  0  0
   10.2411   -2.9363   23.4301 C   0  0  0  0  0  0  0  0  0  0  0  0
   10.7288   -3.8197   19.9525 C   0  0  0  0  0  0  0  0  0  0  0  0
   10.1189   -5.0054   19.6987 C   0  0  0  0  0  0  0  0  0  0  0  0
  1  3  4  0
  1  7  4  0
  2 21  4  0
  2 27  4  0
  3  9  4  0
  3 10  4  0
  4  8  4  0
  4 18  4  0
  4 25  1  0
  5  9  4  0
  5 12  4  0
  6 13  1  0
  6 27  1  0
  7 28  4  0
  8 11  4  0
  9 29  4  0
 10 12  4  0
 11 24  1  0
 11 26  4  0
 12 25  1  0
 13 28  1  0
 14 20  4  0
 14 23  4  0
 15 17  4  0
 15 21  4  0
 16 19  4  0
 16 23  4  0
 17 22  4  0
 18 26  4  0
 19 24  4  0
 20 24  4  0
 22 27  4  0
 28 29  4  0
M  END
$$$$

 Created by Python create_sdf_string function

 29 33  0  0  0  0  0  0  0  0999 V2000
   10.7215   -3.3326   17.6437 C   0  0  0  0  0  0  0  0  0  0  0  0
    9.9489   -3.4675   24.6487 N   0  0  0  0  0  0  0  0  0  0  0  0
   10.0172   -4.4740   17.4101 C   0  0  0  0  0  0  0  0  0  0  0  0
    6.9051   -7.9575   16.4222 C   0  0  0  0  0  0  0  0  0  0  0  0
    8.9969   -6.3552   17.9668 N   0  0  0  0  0  0  0  0  0  0  0  0
   10.6702   -3.9051   22.4070 C   0  0  0  0  0  0  0  0  0  0  0  0
   11.0625   -3.0028   18.8894 C   0  0  0  0  0  0  0  0  0  0  0  0
    5.6180   -7.9194   16.1754 O   0  0  0  0  0  0  0  0  0  0  0  0
    9.7259   -5.3080   18.4485 C   0  0  0  0  0  0  0  0  0  0  0  0
    9.4578   -5.0200   16.3036 N   0  0  0  0  0  0  0  0  0  0  0  0
    5.0287   -8.9365   16.8223 C   0  0  0  0  0  0  0  0  0  0  0  0
    8.7742   -6.1498   16.6764 C   0  0  0  0  0  0  0  0  0  0  0  0
   10.9418   -3.4032   21.2053 O   0  0  0  0  0  0  0  0  0  0  0  0
    1.4797   -8.6258   16.2950 C   0  0  0  0  0  0  0  0  0  0  0  0
    9.2861   -1.2743   25.3585 C   0  0  0  0  0  0  0  0  0  0  0  0
    1.8892  -10.3985   17.7511 N   0  0  0  0  0  0  0  0  0  0  0  0
    9.6210   -0.6952   24.0976 C   0  0  0  0  0  0  0  0  0  0  0  0
    7.0792   -9.0217   17.1429 C   0  0  0  0  0  0  0  0  0  0  0  0
    3.1713  -10.1816   17.6634 C   0  0  0  0  0  0  0  0  0  0  0  0
    2.7878   -8.3822   16.2137 C   0  0  0  0  0  0  0  0  0  0  0  0
    9.4601   -2.6590   25.6528 C   0  0  0  0  0  0  0  0  0  0  0  0
   10.1182   -1.5672   23.1165 C   0  0  0  0  0  0  0  0  0  0  0  0
    1.0552   -9.6360   17.0650 C   0  0  0  0  0  0  0  0  0  0  0  0
    3.6519   -9.1783   16.9039 C   0  0  0  0  0  0  0  0  0  0  0  0
    7.8675   -7.0096   15.9415 C   0  0  0  0  0  0  0  0  0  0  0  0
    5.9733   -9.6553   17.3832 N   0  0  0  0  0  0  0  0  0  0  0  0
   10.2411   -2.9363   23.4301 C   0  0  0  0  0  0  0  0  0  0  0  0
   10.7288   -3.8197   19.9525 C   0  0  0  0  0  0  0  0  0  0  0  0
   10.1189   -5.0054   19.6987 C   0  0  0  0  0  0  0  0  0  0  0  0
  1  3  4  0
  1  7  4  0
  2 21  4  0
  2 27  4  0
  3  9  4  0
  3 10  4  0
  4  8  4  0
  4 18  4  0
  4 25  1  0
  5  9  4  0
  5 12  4  0
  6 13  1  0
  6 27  1  0
  7 28  4  0
  8 11  4  0
  9 29  4  0
 10 12  4  0
 11 24  1  0
 11 26  4  0
 12 25  1  0
 13 28  1  0
 14 20  4  0
 14 23  4  0
 15 17  4  0
 15 21  4  0
 16 19  4  0
 16 23  4  0
 17 22  4  0
 18 26  4  0
 19 24  4  0
 20 24  4  0
 22 27  4  0
 28 29  4  0
M  END
$$$$

 Created by Python create_sdf_string function

 29 33  0  0  0  0  0  0  0  0999 V2000
   10.7215   -3.3326   17.6437 C   0  0  0  0  0  0  0  0  0  0  0  0
    9.9489   -3.4675   24.6487 N   0  0  0  0  0  0  0  0  0  0  0  0
   10.0172   -4.4740   17.4101 C   0  0  0  0  0  0  0  0  0  0  0  0
    6.9051   -7.9575   16.4222 C   0  0  0  0  0  0  0  0  0  0  0  0
    8.9969   -6.3552   17.9668 N   0  0  0  0  0  0  0  0  0  0  0  0
   10.6702   -3.9051   22.4070 C   0  0  0  0  0  0  0  0  0  0  0  0
   11.0625   -3.0028   18.8894 C   0  0  0  0  0  0  0  0  0  0  0  0
    5.6180   -7.9194   16.1754 O   0  0  0  0  0  0  0  0  0  0  0  0
    9.7259   -5.3080   18.4485 C   0  0  0  0  0  0  0  0  0  0  0  0
    9.4578   -5.0200   16.3036 N   0  0  0  0  0  0  0  0  0  0  0  0
    5.0287   -8.9365   16.8223 C   0  0  0  0  0  0  0  0  0  0  0  0
    8.7742   -6.1498   16.6764 C   0  0  0  0  0  0  0  0  0  0  0  0
   10.9418   -3.4032   21.2053 O   0  0  0  0  0  0  0  0  0  0  0  0
    1.4797   -8.6258   16.2950 C   0  0  0  0  0  0  0  0  0  0  0  0
    9.2861   -1.2743   25.3585 C   0  0  0  0  0  0  0  0  0  0  0  0
    1.8892  -10.3985   17.7511 N   0  0  0  0  0  0  0  0  0  0  0  0
    9.6210   -0.6952   24.0976 C   0  0  0  0  0  0  0  0  0  0  0  0
    7.0792   -9.0217   17.1429 C   0  0  0  0  0  0  0  0  0  0  0  0
    3.1713  -10.1816   17.6634 C   0  0  0  0  0  0  0  0  0  0  0  0
    2.7878   -8.3822   16.2137 C   0  0  0  0  0  0  0  0  0  0  0  0
    9.4601   -2.6590   25.6528 C   0  0  0  0  0  0  0  0  0  0  0  0
   10.1182   -1.5672   23.1165 C   0  0  0  0  0  0  0  0  0  0  0  0
    1.0552   -9.6360   17.0650 C   0  0  0  0  0  0  0  0  0  0  0  0
    3.6519   -9.1783   16.9039 C   0  0  0  0  0  0  0  0  0  0  0  0
    7.8675   -7.0096   15.9415 C   0  0  0  0  0  0  0  0  0  0  0  0
    5.9733   -9.6553   17.3832 N   0  0  0  0  0  0  0  0  0  0  0  0
   10.2411   -2.9363   23.4301 C   0  0  0  0  0  0  0  0  0  0  0  0
   10.7288   -3.8197   19.9525 C   0  0  0  0  0  0  0  0  0  0  0  0
   10.1189   -5.0054   19.6987 C   0  0  0  0  0  0  0  0  0  0  0  0
  1  3  4  0
  1  7  4  0
  2 21  4  0
  2 27  4  0
  3  9  4  0
  3 10  4  0
  4  8  4  0
  4 18  4  0
  4 25  1  0
  5  9  4  0
  5 12  4  0
  6 13  1  0
  6 27  1  0
  7 28  4  0
  8 11  4  0
  9 29  4  0
 10 12  4  0
 11 24  1  0
 11 26  4  0
 12 25  1  0
 13 28  1  0
 14 20  4  0
 14 23  4  0
 15 17  4  0
 15 21  4  0
 16 19  4  0
 16 23  4  0
 17 22  4  0
 18 26  4  0
 19 24  4  0
 20 24  4  0
 22 27  4  0
 28 29  4  0
M  END
$$$$

 Created by Python create_sdf_string function

 29 33  0  0  0  0  0  0  0  0999 V2000
   10.7215   -3.3326   17.6437 C   0  0  0  0  0  0  0  0  0  0  0  0
    9.9489   -3.4675   24.6487 N   0  0  0  0  0  0  0  0  0  0  0  0
   10.0172   -4.4740   17.4101 C   0  0  0  0  0  0  0  0  0  0  0  0
    6.9051   -7.9575   16.4222 C   0  0  0  0  0  0  0  0  0  0  0  0
    8.9969   -6.3552   17.9668 N   0  0  0  0  0  0  0  0  0  0  0  0
   10.6702   -3.9051   22.4070 C   0  0  0  0  0  0  0  0  0  0  0  0
   11.0625   -3.0028   18.8894 C   0  0  0  0  0  0  0  0  0  0  0  0
    5.6180   -7.9194   16.1754 O   0  0  0  0  0  0  0  0  0  0  0  0
    9.7259   -5.3080   18.4485 C   0  0  0  0  0  0  0  0  0  0  0  0
    9.4578   -5.0200   16.3036 N   0  0  0  0  0  0  0  0  0  0  0  0
    5.0287   -8.9365   16.8223 C   0  0  0  0  0  0  0  0  0  0  0  0
    8.7742   -6.1498   16.6764 C   0  0  0  0  0  0  0  0  0  0  0  0
   10.9418   -3.4032   21.2053 O   0  0  0  0  0  0  0  0  0  0  0  0
    1.4797   -8.6258   16.2950 C   0  0  0  0  0  0  0  0  0  0  0  0
    9.2861   -1.2743   25.3585 C   0  0  0  0  0  0  0  0  0  0  0  0
    1.8892  -10.3985   17.7511 N   0  0  0  0  0  0  0  0  0  0  0  0
    9.6210   -0.6952   24.0976 C   0  0  0  0  0  0  0  0  0  0  0  0
    7.0792   -9.0217   17.1429 C   0  0  0  0  0  0  0  0  0  0  0  0
    3.1713  -10.1816   17.6634 C   0  0  0  0  0  0  0  0  0  0  0  0
    2.7878   -8.3822   16.2137 C   0  0  0  0  0  0  0  0  0  0  0  0
    9.4601   -2.6590   25.6528 C   0  0  0  0  0  0  0  0  0  0  0  0
   10.1182   -1.5672   23.1165 C   0  0  0  0  0  0  0  0  0  0  0  0
    1.0552   -9.6360   17.0650 C   0  0  0  0  0  0  0  0  0  0  0  0
    3.6519   -9.1783   16.9039 C   0  0  0  0  0  0  0  0  0  0  0  0
    7.8675   -7.0096   15.9415 C   0  0  0  0  0  0  0  0  0  0  0  0
    5.9733   -9.6553   17.3832 N   0  0  0  0  0  0  0  0  0  0  0  0
   10.2411   -2.9363   23.4301 C   0  0  0  0  0  0  0  0  0  0  0  0
   10.7288   -3.8197   19.9525 C   0  0  0  0  0  0  0  0  0  0  0  0
   10.1189   -5.0054   19.6987 C   0  0  0  0  0  0  0  0  0  0  0  0
  1  3  4  0
  1  7  4  0
  2 21  4  0
  2 27  4  0
  3  9  4  0
  3 10  4  0
  4  8  4  0
  4 18  4  0
  4 25  1  0
  5  9  4  0
  5 12  4  0
  6 13  1  0
  6 27  1  0
  7 28  4  0
  8 11  4  0
  9 29  4  0
 10 12  4  0
 11 24  1  0
 11 26  4  0
 12 25  1  0
 13 28  1  0
 14 20  4  0
 14 23  4  0
 15 17  4  0
 15 21  4  0
 16 19  4  0
 16 23  4  0
 17 22  4  0
 18 26  4  0
 19 24  4  0
 20 24  4  0
 22 27  4  0
 28 29  4  0
M  END
$$$$

 Created by Python create_sdf_string function

 29 33  0  0  0  0  0  0  0  0999 V2000
   10.7215   -3.3326   17.6437 C   0  0  0  0  0  0  0  0  0  0  0  0
    9.9489   -3.4675   24.6487 N   0  0  0  0  0  0  0  0  0  0  0  0
   10.0172   -4.4740   17.4101 C   0  0  0  0  0  0  0  0  0  0  0  0
    6.9051   -7.9575   16.4222 C   0  0  0  0  0  0  0  0  0  0  0  0
    8.9969   -6.3552   17.9668 N   0  0  0  0  0  0  0  0  0  0  0  0
   10.6702   -3.9051   22.4070 C   0  0  0  0  0  0  0  0  0  0  0  0
   11.0625   -3.0028   18.8894 C   0  0  0  0  0  0  0  0  0  0  0  0
    5.6180   -7.9194   16.1754 O   0  0  0  0  0  0  0  0  0  0  0  0
    9.7259   -5.3080   18.4485 C   0  0  0  0  0  0  0  0  0  0  0  0
    9.4578   -5.0200   16.3036 N   0  0  0  0  0  0  0  0  0  0  0  0
    5.0287   -8.9365   16.8223 C   0  0  0  0  0  0  0  0  0  0  0  0
    8.7742   -6.1498   16.6764 C   0  0  0  0  0  0  0  0  0  0  0  0
   10.9418   -3.4032   21.2053 O   0  0  0  0  0  0  0  0  0  0  0  0
    1.4797   -8.6258   16.2950 C   0  0  0  0  0  0  0  0  0  0  0  0
    9.2861   -1.2743   25.3585 C   0  0  0  0  0  0  0  0  0  0  0  0
    1.8892  -10.3985   17.7511 N   0  0  0  0  0  0  0  0  0  0  0  0
    9.6210   -0.6952   24.0976 C   0  0  0  0  0  0  0  0  0  0  0  0
    7.0792   -9.0217   17.1429 C   0  0  0  0  0  0  0  0  0  0  0  0
    3.1713  -10.1816   17.6634 C   0  0  0  0  0  0  0  0  0  0  0  0
    2.7878   -8.3822   16.2137 C   0  0  0  0  0  0  0  0  0  0  0  0
    9.4601   -2.6590   25.6528 C   0  0  0  0  0  0  0  0  0  0  0  0
   10.1182   -1.5672   23.1165 C   0  0  0  0  0  0  0  0  0  0  0  0
    1.0552   -9.6360   17.0650 C   0  0  0  0  0  0  0  0  0  0  0  0
    3.6519   -9.1783   16.9039 C   0  0  0  0  0  0  0  0  0  0  0  0
    7.8675   -7.0096   15.9415 C   0  0  0  0  0  0  0  0  0  0  0  0
    5.9733   -9.6553   17.3832 N   0  0  0  0  0  0  0  0  0  0  0  0
   10.2411   -2.9363   23.4301 C   0  0  0  0  0  0  0  0  0  0  0  0
   10.7288   -3.8197   19.9525 C   0  0  0  0  0  0  0  0  0  0  0  0
   10.1189   -5.0054   19.6987 C   0  0  0  0  0  0  0  0  0  0  0  0
  1  3  4  0
  1  7  4  0
  2 21  4  0
  2 27  4  0
  3  9  4  0
  3 10  4  0
  4  8  4  0
  4 18  4  0
  4 25  1  0
  5  9  4  0
  5 12  4  0
  6 13  1  0
  6 27  1  0
  7 28  4  0
  8 11  4  0
  9 29  4  0
 10 12  4  0
 11 24  1  0
 11 26  4  0
 12 25  1  0
 13 28  1  0
 14 20  4  0
 14 23  4  0
 15 17  4  0
 15 21  4  0
 16 19  4  0
 16 23  4  0
 17 22  4  0
 18 26  4  0
 19 24  4  0
 20 24  4  0
 22 27  4  0
 28 29  4  0
M  END
$$$$

 Created by Python create_sdf_string function

 29 33  0  0  0  0  0  0  0  0999 V2000
   10.7215   -3.3326   17.6437 C   0  0  0  0  0  0  0  0  0  0  0  0
    9.9489   -3.4675   24.6487 N   0  0  0  0  0  0  0  0  0  0  0  0
   10.0172   -4.4740   17.4101 C   0  0  0  0  0  0  0  0  0  0  0  0
    6.9051   -7.9575   16.4222 C   0  0  0  0  0  0  0  0  0  0  0  0
    8.9969   -6.3552   17.9668 N   0  0  0  0  0  0  0  0  0  0  0  0
   10.6702   -3.9051   22.4070 C   0  0  0  0  0  0  0  0  0  0  0  0
   11.0625   -3.0028   18.8894 C   0  0  0  0  0  0  0  0  0  0  0  0
    5.6180   -7.9194   16.1754 O   0  0  0  0  0  0  0  0  0  0  0  0
    9.7259   -5.3080   18.4485 C   0  0  0  0  0  0  0  0  0  0  0  0
    9.4578   -5.0200   16.3036 N   0  0  0  0  0  0  0  0  0  0  0  0
    5.0287   -8.9365   16.8223 C   0  0  0  0  0  0  0  0  0  0  0  0
    8.7742   -6.1498   16.6764 C   0  0  0  0  0  0  0  0  0  0  0  0
   10.9418   -3.4032   21.2053 O   0  0  0  0  0  0  0  0  0  0  0  0
    1.4797   -8.6258   16.2950 C   0  0  0  0  0  0  0  0  0  0  0  0
    9.2861   -1.2743   25.3585 C   0  0  0  0  0  0  0  0  0  0  0  0
    1.8892  -10.3985   17.7511 N   0  0  0  0  0  0  0  0  0  0  0  0
    9.6210   -0.6952   24.0976 C   0  0  0  0  0  0  0  0  0  0  0  0
    7.0792   -9.0217   17.1429 C   0  0  0  0  0  0  0  0  0  0  0  0
    3.1713  -10.1816   17.6634 C   0  0  0  0  0  0  0  0  0  0  0  0
    2.7878   -8.3822   16.2137 C   0  0  0  0  0  0  0  0  0  0  0  0
    9.4601   -2.6590   25.6528 C   0  0  0  0  0  0  0  0  0  0  0  0
   10.1182   -1.5672   23.1165 C   0  0  0  0  0  0  0  0  0  0  0  0
    1.0552   -9.6360   17.0650 C   0  0  0  0  0  0  0  0  0  0  0  0
    3.6519   -9.1783   16.9039 C   0  0  0  0  0  0  0  0  0  0  0  0
    7.8675   -7.0096   15.9415 C   0  0  0  0  0  0  0  0  0  0  0  0
    5.9733   -9.6553   17.3832 N   0  0  0  0  0  0  0  0  0  0  0  0
   10.2411   -2.9363   23.4301 C   0  0  0  0  0  0  0  0  0  0  0  0
   10.7288   -3.8197   19.9525 C   0  0  0  0  0  0  0  0  0  0  0  0
   10.1189   -5.0054   19.6987 C   0  0  0  0  0  0  0  0  0  0  0  0
  1  3  4  0
  1  7  4  0
  2 21  4  0
  2 27  4  0
  3  9  4  0
  3 10  4  0
  4  8  4  0
  4 18  4  0
  4 25  1  0
  5  9  4  0
  5 12  4  0
  6 13  1  0
  6 27  1  0
  7 28  4  0
  8 11  4  0
  9 29  4  0
 10 12  4  0
 11 24  1  0
 11 26  4  0
 12 25  1  0
 13 28  1  0
 14 20  4  0
 14 23  4  0
 15 17  4  0
 15 21  4  0
 16 19  4  0
 16 23  4  0
 17 22  4  0
 18 26  4  0
 19 24  4  0
 20 24  4  0
 22 27  4  0
 28 29  4  0
M  END
$$$$

 Created by Python create_sdf_string function

 29 33  0  0  0  0  0  0  0  0999 V2000
   10.7215   -3.3326   17.6437 C   0  0  0  0  0  0  0  0  0  0  0  0
    9.9489   -3.4675   24.6487 N   0  0  0  0  0  0  0  0  0  0  0  0
   10.0172   -4.4740   17.4101 C   0  0  0  0  0  0  0  0  0  0  0  0
    6.9051   -7.9575   16.4222 C   0  0  0  0  0  0  0  0  0  0  0  0
    8.9969   -6.3552   17.9668 N   0  0  0  0  0  0  0  0  0  0  0  0
   10.6702   -3.9051   22.4070 C   0  0  0  0  0  0  0  0  0  0  0  0
   11.0625   -3.0028   18.8894 C   0  0  0  0  0  0  0  0  0  0  0  0
    5.6180   -7.9194   16.1754 O   0  0  0  0  0  0  0  0  0  0  0  0
    9.7259   -5.3080   18.4485 C   0  0  0  0  0  0  0  0  0  0  0  0
    9.4578   -5.0200   16.3036 N   0  0  0  0  0  0  0  0  0  0  0  0
    5.0287   -8.9365   16.8223 C   0  0  0  0  0  0  0  0  0  0  0  0
    8.7742   -6.1498   16.6764 C   0  0  0  0  0  0  0  0  0  0  0  0
   10.9418   -3.4032   21.2053 O   0  0  0  0  0  0  0  0  0  0  0  0
    1.4797   -8.6258   16.2950 C   0  0  0  0  0  0  0  0  0  0  0  0
    9.2861   -1.2743   25.3585 C   0  0  0  0  0  0  0  0  0  0  0  0
    1.8892  -10.3985   17.7511 N   0  0  0  0  0  0  0  0  0  0  0  0
    9.6210   -0.6952   24.0976 C   0  0  0  0  0  0  0  0  0  0  0  0
    7.0792   -9.0217   17.1429 C   0  0  0  0  0  0  0  0  0  0  0  0
    3.1713  -10.1816   17.6634 C   0  0  0  0  0  0  0  0  0  0  0  0
    2.7878   -8.3822   16.2137 C   0  0  0  0  0  0  0  0  0  0  0  0
    9.4601   -2.6590   25.6528 C   0  0  0  0  0  0  0  0  0  0  0  0
   10.1182   -1.5672   23.1165 C   0  0  0  0  0  0  0  0  0  0  0  0
    1.0552   -9.6360   17.0650 C   0  0  0  0  0  0  0  0  0  0  0  0
    3.6519   -9.1783   16.9039 C   0  0  0  0  0  0  0  0  0  0  0  0
    7.8675   -7.0096   15.9415 C   0  0  0  0  0  0  0  0  0  0  0  0
    5.9733   -9.6553   17.3832 N   0  0  0  0  0  0  0  0  0  0  0  0
   10.2411   -2.9363   23.4301 C   0  0  0  0  0  0  0  0  0  0  0  0
   10.7288   -3.8197   19.9525 C   0  0  0  0  0  0  0  0  0  0  0  0
   10.1189   -5.0054   19.6987 C   0  0  0  0  0  0  0  0  0  0  0  0
  1  3  4  0
  1  7  4  0
  2 21  4  0
  2 27  4  0
  3  9  4  0
  3 10  4  0
  4  8  4  0
  4 18  4  0
  4 25  1  0
  5  9  4  0
  5 12  4  0
  6 13  1  0
  6 27  1  0
  7 28  4  0
  8 11  4  0
  9 29  4  0
 10 12  4  0
 11 24  1  0
 11 26  4  0
 12 25  1  0
 13 28  1  0
 14 20  4  0
 14 23  4  0
 15 17  4  0
 15 21  4  0
 16 19  4  0
 16 23  4  0
 17 22  4  0
 18 26  4  0
 19 24  4  0
 20 24  4  0
 22 27  4  0
 28 29  4  0
M  END
$$$$

 Created by Python create_sdf_string function

 29 33  0  0  0  0  0  0  0  0999 V2000
   10.7215   -3.3326   17.6437 C   0  0  0  0  0  0  0  0  0  0  0  0
    9.9489   -3.4675   24.6487 N   0  0  0  0  0  0  0  0  0  0  0  0
   10.0172   -4.4740   17.4101 C   0  0  0  0  0  0  0  0  0  0  0  0
    6.9051   -7.9575   16.4222 C   0  0  0  0  0  0  0  0  0  0  0  0
    8.9969   -6.3552   17.9668 N   0  0  0  0  0  0  0  0  0  0  0  0
   10.6702   -3.9051   22.4070 C   0  0  0  0  0  0  0  0  0  0  0  0
   11.0625   -3.0028   18.8894 C   0  0  0  0  0  0  0  0  0  0  0  0
    5.6180   -7.9194   16.1754 O   0  0  0  0  0  0  0  0  0  0  0  0
    9.7259   -5.3080   18.4485 C   0  0  0  0  0  0  0  0  0  0  0  0
    9.4578   -5.0200   16.3036 N   0  0  0  0  0  0  0  0  0  0  0  0
    5.0287   -8.9365   16.8223 C   0  0  0  0  0  0  0  0  0  0  0  0
    8.7742   -6.1498   16.6764 C   0  0  0  0  0  0  0  0  0  0  0  0
   10.9418   -3.4032   21.2053 O   0  0  0  0  0  0  0  0  0  0  0  0
    1.4797   -8.6258   16.2950 C   0  0  0  0  0  0  0  0  0  0  0  0
    9.2861   -1.2743   25.3585 C   0  0  0  0  0  0  0  0  0  0  0  0
    1.8892  -10.3985   17.7511 N   0  0  0  0  0  0  0  0  0  0  0  0
    9.6210   -0.6952   24.0976 C   0  0  0  0  0  0  0  0  0  0  0  0
    7.0792   -9.0217   17.1429 C   0  0  0  0  0  0  0  0  0  0  0  0
    3.1713  -10.1816   17.6634 C   0  0  0  0  0  0  0  0  0  0  0  0
    2.7878   -8.3822   16.2137 C   0  0  0  0  0  0  0  0  0  0  0  0
    9.4601   -2.6590   25.6528 C   0  0  0  0  0  0  0  0  0  0  0  0
   10.1182   -1.5672   23.1165 C   0  0  0  0  0  0  0  0  0  0  0  0
    1.0552   -9.6360   17.0650 C   0  0  0  0  0  0  0  0  0  0  0  0
    3.6519   -9.1783   16.9039 C   0  0  0  0  0  0  0  0  0  0  0  0
    7.8675   -7.0096   15.9415 C   0  0  0  0  0  0  0  0  0  0  0  0
    5.9733   -9.6553   17.3832 N   0  0  0  0  0  0  0  0  0  0  0  0
   10.2411   -2.9363   23.4301 C   0  0  0  0  0  0  0  0  0  0  0  0
   10.7288   -3.8197   19.9525 C   0  0  0  0  0  0  0  0  0  0  0  0
   10.1189   -5.0054   19.6987 C   0  0  0  0  0  0  0  0  0  0  0  0
  1  3  4  0
  1  7  4  0
  2 21  4  0
  2 27  4  0
  3  9  4  0
  3 10  4  0
  4  8  4  0
  4 18  4  0
  4 25  1  0
  5  9  4  0
  5 12  4  0
  6 13  1  0
  6 27  1  0
  7 28  4  0
  8 11  4  0
  9 29  4  0
 10 12  4  0
 11 24  1  0
 11 26  4  0
 12 25  1  0
 13 28  1  0
 14 20  4  0
 14 23  4  0
 15 17  4  0
 15 21  4  0
 16 19  4  0
 16 23  4  0
 17 22  4  0
 18 26  4  0
 19 24  4  0
 20 24  4  0
 22 27  4  0
 28 29  4  0
M  END
$$$$

 Created by Python create_sdf_string function

 29 33  0  0  0  0  0  0  0  0999 V2000
   10.7215   -3.3326   17.6437 C   0  0  0  0  0  0  0  0  0  0  0  0
    9.9489   -3.4675   24.6487 N   0  0  0  0  0  0  0  0  0  0  0  0
   10.0172   -4.4740   17.4101 C   0  0  0  0  0  0  0  0  0  0  0  0
    6.9051   -7.9575   16.4222 C   0  0  0  0  0  0  0  0  0  0  0  0
    8.9969   -6.3552   17.9668 N   0  0  0  0  0  0  0  0  0  0  0  0
   10.6702   -3.9051   22.4070 C   0  0  0  0  0  0  0  0  0  0  0  0
   11.0625   -3.0028   18.8894 C   0  0  0  0  0  0  0  0  0  0  0  0
    5.6180   -7.9194   16.1754 O   0  0  0  0  0  0  0  0  0  0  0  0
    9.7259   -5.3080   18.4485 C   0  0  0  0  0  0  0  0  0  0  0  0
    9.4578   -5.0200   16.3036 N   0  0  0  0  0  0  0  0  0  0  0  0
    5.0287   -8.9365   16.8223 C   0  0  0  0  0  0  0  0  0  0  0  0
    8.7742   -6.1498   16.6764 C   0  0  0  0  0  0  0  0  0  0  0  0
   10.9418   -3.4032   21.2053 O   0  0  0  0  0  0  0  0  0  0  0  0
    1.4797   -8.6258   16.2950 C   0  0  0  0  0  0  0  0  0  0  0  0
    9.2861   -1.2743   25.3585 C   0  0  0  0  0  0  0  0  0  0  0  0
    1.8892  -10.3985   17.7511 N   0  0  0  0  0  0  0  0  0  0  0  0
    9.6210   -0.6952   24.0976 C   0  0  0  0  0  0  0  0  0  0  0  0
    7.0792   -9.0217   17.1429 C   0  0  0  0  0  0  0  0  0  0  0  0
    3.1713  -10.1816   17.6634 C   0  0  0  0  0  0  0  0  0  0  0  0
    2.7878   -8.3822   16.2137 C   0  0  0  0  0  0  0  0  0  0  0  0
    9.4601   -2.6590   25.6528 C   0  0  0  0  0  0  0  0  0  0  0  0
   10.1182   -1.5672   23.1165 C   0  0  0  0  0  0  0  0  0  0  0  0
    1.0552   -9.6360   17.0650 C   0  0  0  0  0  0  0  0  0  0  0  0
    3.6519   -9.1783   16.9039 C   0  0  0  0  0  0  0  0  0  0  0  0
    7.8675   -7.0096   15.9415 C   0  0  0  0  0  0  0  0  0  0  0  0
    5.9733   -9.6553   17.3832 N   0  0  0  0  0  0  0  0  0  0  0  0
   10.2411   -2.9363   23.4301 C   0  0  0  0  0  0  0  0  0  0  0  0
   10.7288   -3.8197   19.9525 C   0  0  0  0  0  0  0  0  0  0  0  0
   10.1189   -5.0054   19.6987 C   0  0  0  0  0  0  0  0  0  0  0  0
  1  3  4  0
  1  7  4  0
  2 21  4  0
  2 27  4  0
  3  9  4  0
  3 10  4  0
  4  8  4  0
  4 18  4  0
  4 25  1  0
  5  9  4  0
  5 12  4  0
  6 13  1  0
  6 27  1  0
  7 28  4  0
  8 11  4  0
  9 29  4  0
 10 12  4  0
 11 24  1  0
 11 26  4  0
 12 25  1  0
 13 28  1  0
 14 20  4  0
 14 23  4  0
 15 17  4  0
 15 21  4  0
 16 19  4  0
 16 23  4  0
 17 22  4  0
 18 26  4  0
 19 24  4  0
 20 24  4  0
 22 27  4  0
 28 29  4  0
M  END
$$$$

 Created by Python create_sdf_string function

 29 33  0  0  0  0  0  0  0  0999 V2000
   10.7215   -3.3326   17.6437 C   0  0  0  0  0  0  0  0  0  0  0  0
    9.9489   -3.4675   24.6487 N   0  0  0  0  0  0  0  0  0  0  0  0
   10.0172   -4.4740   17.4101 C   0  0  0  0  0  0  0  0  0  0  0  0
    6.9051   -7.9575   16.4222 C   0  0  0  0  0  0  0  0  0  0  0  0
    8.9969   -6.3552   17.9668 N   0  0  0  0  0  0  0  0  0  0  0  0
   10.6702   -3.9051   22.4070 C   0  0  0  0  0  0  0  0  0  0  0  0
   11.0625   -3.0028   18.8894 C   0  0  0  0  0  0  0  0  0  0  0  0
    5.6180   -7.9194   16.1754 O   0  0  0  0  0  0  0  0  0  0  0  0
    9.7259   -5.3080   18.4485 C   0  0  0  0  0  0  0  0  0  0  0  0
    9.4578   -5.0200   16.3036 N   0  0  0  0  0  0  0  0  0  0  0  0
    5.0287   -8.9365   16.8223 C   0  0  0  0  0  0  0  0  0  0  0  0
    8.7742   -6.1498   16.6764 C   0  0  0  0  0  0  0  0  0  0  0  0
   10.9418   -3.4032   21.2053 O   0  0  0  0  0  0  0  0  0  0  0  0
    1.4797   -8.6258   16.2950 C   0  0  0  0  0  0  0  0  0  0  0  0
    9.2861   -1.2743   25.3585 C   0  0  0  0  0  0  0  0  0  0  0  0
    1.8892  -10.3985   17.7511 N   0  0  0  0  0  0  0  0  0  0  0  0
    9.6210   -0.6952   24.0976 C   0  0  0  0  0  0  0  0  0  0  0  0
    7.0792   -9.0217   17.1429 C   0  0  0  0  0  0  0  0  0  0  0  0
    3.1713  -10.1816   17.6634 C   0  0  0  0  0  0  0  0  0  0  0  0
    2.7878   -8.3822   16.2137 C   0  0  0  0  0  0  0  0  0  0  0  0
    9.4601   -2.6590   25.6528 C   0  0  0  0  0  0  0  0  0  0  0  0
   10.1182   -1.5672   23.1165 C   0  0  0  0  0  0  0  0  0  0  0  0
    1.0552   -9.6360   17.0650 C   0  0  0  0  0  0  0  0  0  0  0  0
    3.6519   -9.1783   16.9039 C   0  0  0  0  0  0  0  0  0  0  0  0
    7.8675   -7.0096   15.9415 C   0  0  0  0  0  0  0  0  0  0  0  0
    5.9733   -9.6553   17.3832 N   0  0  0  0  0  0  0  0  0  0  0  0
   10.2411   -2.9363   23.4301 C   0  0  0  0  0  0  0  0  0  0  0  0
   10.7288   -3.8197   19.9525 C   0  0  0  0  0  0  0  0  0  0  0  0
   10.1189   -5.0054   19.6987 C   0  0  0  0  0  0  0  0  0  0  0  0
  1  3  4  0
  1  7  4  0
  2 21  4  0
  2 27  4  0
  3  9  4  0
  3 10  4  0
  4  8  4  0
  4 18  4  0
  4 25  1  0
  5  9  4  0
  5 12  4  0
  6 13  1  0
  6 27  1  0
  7 28  4  0
  8 11  4  0
  9 29  4  0
 10 12  4  0
 11 24  1  0
 11 26  4  0
 12 25  1  0
 13 28  1  0
 14 20  4  0
 14 23  4  0
 15 17  4  0
 15 21  4  0
 16 19  4  0
 16 23  4  0
 17 22  4  0
 18 26  4  0
 19 24  4  0
 20 24  4  0
 22 27  4  0
 28 29  4  0
M  END
$$$$

 Created by Python create_sdf_string function

 29 33  0  0  0  0  0  0  0  0999 V2000
   10.7215   -3.3326   17.6437 C   0  0  0  0  0  0  0  0  0  0  0  0
    9.9489   -3.4675   24.6487 N   0  0  0  0  0  0  0  0  0  0  0  0
   10.0172   -4.4740   17.4101 C   0  0  0  0  0  0  0  0  0  0  0  0
    6.9051   -7.9575   16.4222 C   0  0  0  0  0  0  0  0  0  0  0  0
    8.9969   -6.3552   17.9668 N   0  0  0  0  0  0  0  0  0  0  0  0
   10.6702   -3.9051   22.4070 C   0  0  0  0  0  0  0  0  0  0  0  0
   11.0625   -3.0028   18.8894 C   0  0  0  0  0  0  0  0  0  0  0  0
    5.6180   -7.9194   16.1754 O   0  0  0  0  0  0  0  0  0  0  0  0
    9.7259   -5.3080   18.4485 C   0  0  0  0  0  0  0  0  0  0  0  0
    9.4578   -5.0200   16.3036 N   0  0  0  0  0  0  0  0  0  0  0  0
    5.0287   -8.9365   16.8223 C   0  0  0  0  0  0  0  0  0  0  0  0
    8.7742   -6.1498   16.6764 C   0  0  0  0  0  0  0  0  0  0  0  0
   10.9418   -3.4032   21.2053 O   0  0  0  0  0  0  0  0  0  0  0  0
    1.4797   -8.6258   16.2950 C   0  0  0  0  0  0  0  0  0  0  0  0
    9.2861   -1.2743   25.3585 C   0  0  0  0  0  0  0  0  0  0  0  0
    1.8892  -10.3985   17.7511 N   0  0  0  0  0  0  0  0  0  0  0  0
    9.6210   -0.6952   24.0976 C   0  0  0  0  0  0  0  0  0  0  0  0
    7.0792   -9.0217   17.1429 C   0  0  0  0  0  0  0  0  0  0  0  0
    3.1713  -10.1816   17.6634 C   0  0  0  0  0  0  0  0  0  0  0  0
    2.7878   -8.3822   16.2137 C   0  0  0  0  0  0  0  0  0  0  0  0
    9.4601   -2.6590   25.6528 C   0  0  0  0  0  0  0  0  0  0  0  0
   10.1182   -1.5672   23.1165 C   0  0  0  0  0  0  0  0  0  0  0  0
    1.0552   -9.6360   17.0650 C   0  0  0  0  0  0  0  0  0  0  0  0
    3.6519   -9.1783   16.9039 C   0  0  0  0  0  0  0  0  0  0  0  0
    7.8675   -7.0096   15.9415 C   0  0  0  0  0  0  0  0  0  0  0  0
    5.9733   -9.6553   17.3832 N   0  0  0  0  0  0  0  0  0  0  0  0
   10.2411   -2.9363   23.4301 C   0  0  0  0  0  0  0  0  0  0  0  0
   10.7288   -3.8197   19.9525 C   0  0  0  0  0  0  0  0  0  0  0  0
   10.1189   -5.0054   19.6987 C   0  0  0  0  0  0  0  0  0  0  0  0
  1  3  4  0
  1  7  4  0
  2 21  4  0
  2 27  4  0
  3  9  4  0
  3 10  4  0
  4  8  4  0
  4 18  4  0
  4 25  1  0
  5  9  4  0
  5 12  4  0
  6 13  1  0
  6 27  1  0
  7 28  4  0
  8 11  4  0
  9 29  4  0
 10 12  4  0
 11 24  1  0
 11 26  4  0
 12 25  1  0
 13 28  1  0
 14 20  4  0
 14 23  4  0
 15 17  4  0
 15 21  4  0
 16 19  4  0
 16 23  4  0
 17 22  4  0
 18 26  4  0
 19 24  4  0
 20 24  4  0
 22 27  4  0
 28 29  4  0
M  END
$$$$

 Created by Python create_sdf_string function

 29 33  0  0  0  0  0  0  0  0999 V2000
   10.7215   -3.3326   17.6437 C   0  0  0  0  0  0  0  0  0  0  0  0
    9.9489   -3.4675   24.6487 N   0  0  0  0  0  0  0  0  0  0  0  0
   10.0172   -4.4740   17.4101 C   0  0  0  0  0  0  0  0  0  0  0  0
    6.9051   -7.9575   16.4222 C   0  0  0  0  0  0  0  0  0  0  0  0
    8.9969   -6.3552   17.9668 N   0  0  0  0  0  0  0  0  0  0  0  0
   10.6702   -3.9051   22.4070 C   0  0  0  0  0  0  0  0  0  0  0  0
   11.0625   -3.0028   18.8894 C   0  0  0  0  0  0  0  0  0  0  0  0
    5.6180   -7.9194   16.1754 O   0  0  0  0  0  0  0  0  0  0  0  0
    9.7259   -5.3080   18.4485 C   0  0  0  0  0  0  0  0  0  0  0  0
    9.4578   -5.0200   16.3036 N   0  0  0  0  0  0  0  0  0  0  0  0
    5.0287   -8.9365   16.8223 C   0  0  0  0  0  0  0  0  0  0  0  0
    8.7742   -6.1498   16.6764 C   0  0  0  0  0  0  0  0  0  0  0  0
   10.9418   -3.4032   21.2053 O   0  0  0  0  0  0  0  0  0  0  0  0
    1.4797   -8.6258   16.2950 C   0  0  0  0  0  0  0  0  0  0  0  0
    9.2861   -1.2743   25.3585 C   0  0  0  0  0  0  0  0  0  0  0  0
    1.8892  -10.3985   17.7511 N   0  0  0  0  0  0  0  0  0  0  0  0
    9.6210   -0.6952   24.0976 C   0  0  0  0  0  0  0  0  0  0  0  0
    7.0792   -9.0217   17.1429 C   0  0  0  0  0  0  0  0  0  0  0  0
    3.1713  -10.1816   17.6634 C   0  0  0  0  0  0  0  0  0  0  0  0
    2.7878   -8.3822   16.2137 C   0  0  0  0  0  0  0  0  0  0  0  0
    9.4601   -2.6590   25.6528 C   0  0  0  0  0  0  0  0  0  0  0  0
   10.1182   -1.5672   23.1165 C   0  0  0  0  0  0  0  0  0  0  0  0
    1.0552   -9.6360   17.0650 C   0  0  0  0  0  0  0  0  0  0  0  0
    3.6519   -9.1783   16.9039 C   0  0  0  0  0  0  0  0  0  0  0  0
    7.8675   -7.0096   15.9415 C   0  0  0  0  0  0  0  0  0  0  0  0
    5.9733   -9.6553   17.3832 N   0  0  0  0  0  0  0  0  0  0  0  0
   10.2411   -2.9363   23.4301 C   0  0  0  0  0  0  0  0  0  0  0  0
   10.7288   -3.8197   19.9525 C   0  0  0  0  0  0  0  0  0  0  0  0
   10.1189   -5.0054   19.6987 C   0  0  0  0  0  0  0  0  0  0  0  0
  1  3  4  0
  1  7  4  0
  2 21  4  0
  2 27  4  0
  3  9  4  0
  3 10  4  0
  4  8  4  0
  4 18  4  0
  4 25  1  0
  5  9  4  0
  5 12  4  0
  6 13  1  0
  6 27  1  0
  7 28  4  0
  8 11  4  0
  9 29  4  0
 10 12  4  0
 11 24  1  0
 11 26  4  0
 12 25  1  0
 13 28  1  0
 14 20  4  0
 14 23  4  0
 15 17  4  0
 15 21  4  0
 16 19  4  0
 16 23  4  0
 17 22  4  0
 18 26  4  0
 19 24  4  0
 20 24  4  0
 22 27  4  0
 28 29  4  0
M  END
$$$$

 Created by Python create_sdf_string function

 29 33  0  0  0  0  0  0  0  0999 V2000
   10.7215   -3.3326   17.6437 C   0  0  0  0  0  0  0  0  0  0  0  0
    9.9489   -3.4675   24.6487 N   0  0  0  0  0  0  0  0  0  0  0  0
   10.0172   -4.4740   17.4101 C   0  0  0  0  0  0  0  0  0  0  0  0
    6.9051   -7.9575   16.4222 C   0  0  0  0  0  0  0  0  0  0  0  0
    8.9969   -6.3552   17.9668 N   0  0  0  0  0  0  0  0  0  0  0  0
   10.6702   -3.9051   22.4070 C   0  0  0  0  0  0  0  0  0  0  0  0
   11.0625   -3.0028   18.8894 C   0  0  0  0  0  0  0  0  0  0  0  0
    5.6180   -7.9194   16.1754 O   0  0  0  0  0  0  0  0  0  0  0  0
    9.7259   -5.3080   18.4485 C   0  0  0  0  0  0  0  0  0  0  0  0
    9.4578   -5.0200   16.3036 N   0  0  0  0  0  0  0  0  0  0  0  0
    5.0287   -8.9365   16.8223 C   0  0  0  0  0  0  0  0  0  0  0  0
    8.7742   -6.1498   16.6764 C   0  0  0  0  0  0  0  0  0  0  0  0
   10.9418   -3.4032   21.2053 O   0  0  0  0  0  0  0  0  0  0  0  0
    1.4797   -8.6258   16.2950 C   0  0  0  0  0  0  0  0  0  0  0  0
    9.2861   -1.2743   25.3585 C   0  0  0  0  0  0  0  0  0  0  0  0
    1.8892  -10.3985   17.7511 N   0  0  0  0  0  0  0  0  0  0  0  0
    9.6210   -0.6952   24.0976 C   0  0  0  0  0  0  0  0  0  0  0  0
    7.0792   -9.0217   17.1429 C   0  0  0  0  0  0  0  0  0  0  0  0
    3.1713  -10.1816   17.6634 C   0  0  0  0  0  0  0  0  0  0  0  0
    2.7878   -8.3822   16.2137 C   0  0  0  0  0  0  0  0  0  0  0  0
    9.4601   -2.6590   25.6528 C   0  0  0  0  0  0  0  0  0  0  0  0
   10.1182   -1.5672   23.1165 C   0  0  0  0  0  0  0  0  0  0  0  0
    1.0552   -9.6360   17.0650 C   0  0  0  0  0  0  0  0  0  0  0  0
    3.6519   -9.1783   16.9039 C   0  0  0  0  0  0  0  0  0  0  0  0
    7.8675   -7.0096   15.9415 C   0  0  0  0  0  0  0  0  0  0  0  0
    5.9733   -9.6553   17.3832 N   0  0  0  0  0  0  0  0  0  0  0  0
   10.2411   -2.9363   23.4301 C   0  0  0  0  0  0  0  0  0  0  0  0
   10.7288   -3.8197   19.9525 C   0  0  0  0  0  0  0  0  0  0  0  0
   10.1189   -5.0054   19.6987 C   0  0  0  0  0  0  0  0  0  0  0  0
  1  3  4  0
  1  7  4  0
  2 21  4  0
  2 27  4  0
  3  9  4  0
  3 10  4  0
  4  8  4  0
  4 18  4  0
  4 25  1  0
  5  9  4  0
  5 12  4  0
  6 13  1  0
  6 27  1  0
  7 28  4  0
  8 11  4  0
  9 29  4  0
 10 12  4  0
 11 24  1  0
 11 26  4  0
 12 25  1  0
 13 28  1  0
 14 20  4  0
 14 23  4  0
 15 17  4  0
 15 21  4  0
 16 19  4  0
 16 23  4  0
 17 22  4  0
 18 26  4  0
 19 24  4  0
 20 24  4  0
 22 27  4  0
 28 29  4  0
M  END
$$$$

 Created by Python create_sdf_string function

 29 33  0  0  0  0  0  0  0  0999 V2000
   10.7215   -3.3326   17.6437 C   0  0  0  0  0  0  0  0  0  0  0  0
    9.9489   -3.4675   24.6487 N   0  0  0  0  0  0  0  0  0  0  0  0
   10.0172   -4.4740   17.4101 C   0  0  0  0  0  0  0  0  0  0  0  0
    6.9051   -7.9575   16.4222 C   0  0  0  0  0  0  0  0  0  0  0  0
    8.9969   -6.3552   17.9668 N   0  0  0  0  0  0  0  0  0  0  0  0
   10.6702   -3.9051   22.4070 C   0  0  0  0  0  0  0  0  0  0  0  0
   11.0625   -3.0028   18.8894 C   0  0  0  0  0  0  0  0  0  0  0  0
    5.6180   -7.9194   16.1754 O   0  0  0  0  0  0  0  0  0  0  0  0
    9.7259   -5.3080   18.4485 C   0  0  0  0  0  0  0  0  0  0  0  0
    9.4578   -5.0200   16.3036 N   0  0  0  0  0  0  0  0  0  0  0  0
    5.0287   -8.9365   16.8223 C   0  0  0  0  0  0  0  0  0  0  0  0
    8.7742   -6.1498   16.6764 C   0  0  0  0  0  0  0  0  0  0  0  0
   10.9418   -3.4032   21.2053 O   0  0  0  0  0  0  0  0  0  0  0  0
    1.4797   -8.6258   16.2950 C   0  0  0  0  0  0  0  0  0  0  0  0
    9.2861   -1.2743   25.3585 C   0  0  0  0  0  0  0  0  0  0  0  0
    1.8892  -10.3985   17.7511 N   0  0  0  0  0  0  0  0  0  0  0  0
    9.6210   -0.6952   24.0976 C   0  0  0  0  0  0  0  0  0  0  0  0
    7.0792   -9.0217   17.1429 C   0  0  0  0  0  0  0  0  0  0  0  0
    3.1713  -10.1816   17.6634 C   0  0  0  0  0  0  0  0  0  0  0  0
    2.7878   -8.3822   16.2137 C   0  0  0  0  0  0  0  0  0  0  0  0
    9.4601   -2.6590   25.6528 C   0  0  0  0  0  0  0  0  0  0  0  0
   10.1182   -1.5672   23.1165 C   0  0  0  0  0  0  0  0  0  0  0  0
    1.0552   -9.6360   17.0650 C   0  0  0  0  0  0  0  0  0  0  0  0
    3.6519   -9.1783   16.9039 C   0  0  0  0  0  0  0  0  0  0  0  0
    7.8675   -7.0096   15.9415 C   0  0  0  0  0  0  0  0  0  0  0  0
    5.9733   -9.6553   17.3832 N   0  0  0  0  0  0  0  0  0  0  0  0
   10.2411   -2.9363   23.4301 C   0  0  0  0  0  0  0  0  0  0  0  0
   10.7288   -3.8197   19.9525 C   0  0  0  0  0  0  0  0  0  0  0  0
   10.1189   -5.0054   19.6987 C   0  0  0  0  0  0  0  0  0  0  0  0
  1  3  4  0
  1  7  4  0
  2 21  4  0
  2 27  4  0
  3  9  4  0
  3 10  4  0
  4  8  4  0
  4 18  4  0
  4 25  1  0
  5  9  4  0
  5 12  4  0
  6 13  1  0
  6 27  1  0
  7 28  4  0
  8 11  4  0
  9 29  4  0
 10 12  4  0
 11 24  1  0
 11 26  4  0
 12 25  1  0
 13 28  1  0
 14 20  4  0
 14 23  4  0
 15 17  4  0
 15 21  4  0
 16 19  4  0
 16 23  4  0
 17 22  4  0
 18 26  4  0
 19 24  4  0
 20 24  4  0
 22 27  4  0
 28 29  4  0
M  END
$$$$

 Created by Python create_sdf_string function

 29 33  0  0  0  0  0  0  0  0999 V2000
   10.7215   -3.3326   17.6437 C   0  0  0  0  0  0  0  0  0  0  0  0
    9.9489   -3.4675   24.6487 N   0  0  0  0  0  0  0  0  0  0  0  0
   10.0172   -4.4740   17.4101 C   0  0  0  0  0  0  0  0  0  0  0  0
    6.9051   -7.9575   16.4222 C   0  0  0  0  0  0  0  0  0  0  0  0
    8.9969   -6.3552   17.9668 N   0  0  0  0  0  0  0  0  0  0  0  0
   10.6702   -3.9051   22.4070 C   0  0  0  0  0  0  0  0  0  0  0  0
   11.0625   -3.0028   18.8894 C   0  0  0  0  0  0  0  0  0  0  0  0
    5.6180   -7.9194   16.1754 O   0  0  0  0  0  0  0  0  0  0  0  0
    9.7259   -5.3080   18.4485 C   0  0  0  0  0  0  0  0  0  0  0  0
    9.4578   -5.0200   16.3036 N   0  0  0  0  0  0  0  0  0  0  0  0
    5.0287   -8.9365   16.8223 C   0  0  0  0  0  0  0  0  0  0  0  0
    8.7742   -6.1498   16.6764 C   0  0  0  0  0  0  0  0  0  0  0  0
   10.9418   -3.4032   21.2053 O   0  0  0  0  0  0  0  0  0  0  0  0
    1.4797   -8.6258   16.2950 C   0  0  0  0  0  0  0  0  0  0  0  0
    9.2861   -1.2743   25.3585 C   0  0  0  0  0  0  0  0  0  0  0  0
    1.8892  -10.3985   17.7511 N   0  0  0  0  0  0  0  0  0  0  0  0
    9.6210   -0.6952   24.0976 C   0  0  0  0  0  0  0  0  0  0  0  0
    7.0792   -9.0217   17.1429 C   0  0  0  0  0  0  0  0  0  0  0  0
    3.1713  -10.1816   17.6634 C   0  0  0  0  0  0  0  0  0  0  0  0
    2.7878   -8.3822   16.2137 C   0  0  0  0  0  0  0  0  0  0  0  0
    9.4601   -2.6590   25.6528 C   0  0  0  0  0  0  0  0  0  0  0  0
   10.1182   -1.5672   23.1165 C   0  0  0  0  0  0  0  0  0  0  0  0
    1.0552   -9.6360   17.0650 C   0  0  0  0  0  0  0  0  0  0  0  0
    3.6519   -9.1783   16.9039 C   0  0  0  0  0  0  0  0  0  0  0  0
    7.8675   -7.0096   15.9415 C   0  0  0  0  0  0  0  0  0  0  0  0
    5.9733   -9.6553   17.3832 N   0  0  0  0  0  0  0  0  0  0  0  0
   10.2411   -2.9363   23.4301 C   0  0  0  0  0  0  0  0  0  0  0  0
   10.7288   -3.8197   19.9525 C   0  0  0  0  0  0  0  0  0  0  0  0
   10.1189   -5.0054   19.6987 C   0  0  0  0  0  0  0  0  0  0  0  0
  1  3  4  0
  1  7  4  0
  2 21  4  0
  2 27  4  0
  3  9  4  0
  3 10  4  0
  4  8  4  0
  4 18  4  0
  4 25  1  0
  5  9  4  0
  5 12  4  0
  6 13  1  0
  6 27  1  0
  7 28  4  0
  8 11  4  0
  9 29  4  0
 10 12  4  0
 11 24  1  0
 11 26  4  0
 12 25  1  0
 13 28  1  0
 14 20  4  0
 14 23  4  0
 15 17  4  0
 15 21  4  0
 16 19  4  0
 16 23  4  0
 17 22  4  0
 18 26  4  0
 19 24  4  0
 20 24  4  0
 22 27  4  0
 28 29  4  0
M  END
$$$$

 Created by Python create_sdf_string function

 29 33  0  0  0  0  0  0  0  0999 V2000
   10.7215   -3.3326   17.6437 C   0  0  0  0  0  0  0  0  0  0  0  0
    9.9489   -3.4675   24.6487 N   0  0  0  0  0  0  0  0  0  0  0  0
   10.0172   -4.4740   17.4101 C   0  0  0  0  0  0  0  0  0  0  0  0
    6.9051   -7.9575   16.4222 C   0  0  0  0  0  0  0  0  0  0  0  0
    8.9969   -6.3552   17.9668 N   0  0  0  0  0  0  0  0  0  0  0  0
   10.6702   -3.9051   22.4070 C   0  0  0  0  0  0  0  0  0  0  0  0
   11.0625   -3.0028   18.8894 C   0  0  0  0  0  0  0  0  0  0  0  0
    5.6180   -7.9194   16.1754 O   0  0  0  0  0  0  0  0  0  0  0  0
    9.7259   -5.3080   18.4485 C   0  0  0  0  0  0  0  0  0  0  0  0
    9.4578   -5.0200   16.3036 N   0  0  0  0  0  0  0  0  0  0  0  0
    5.0287   -8.9365   16.8223 C   0  0  0  0  0  0  0  0  0  0  0  0
    8.7742   -6.1498   16.6764 C   0  0  0  0  0  0  0  0  0  0  0  0
   10.9418   -3.4032   21.2053 O   0  0  0  0  0  0  0  0  0  0  0  0
    1.4797   -8.6258   16.2950 C   0  0  0  0  0  0  0  0  0  0  0  0
    9.2861   -1.2743   25.3585 C   0  0  0  0  0  0  0  0  0  0  0  0
    1.8892  -10.3985   17.7511 N   0  0  0  0  0  0  0  0  0  0  0  0
    9.6210   -0.6952   24.0976 C   0  0  0  0  0  0  0  0  0  0  0  0
    7.0792   -9.0217   17.1429 C   0  0  0  0  0  0  0  0  0  0  0  0
    3.1713  -10.1816   17.6634 C   0  0  0  0  0  0  0  0  0  0  0  0
    2.7878   -8.3822   16.2137 C   0  0  0  0  0  0  0  0  0  0  0  0
    9.4601   -2.6590   25.6528 C   0  0  0  0  0  0  0  0  0  0  0  0
   10.1182   -1.5672   23.1165 C   0  0  0  0  0  0  0  0  0  0  0  0
    1.0552   -9.6360   17.0650 C   0  0  0  0  0  0  0  0  0  0  0  0
    3.6519   -9.1783   16.9039 C   0  0  0  0  0  0  0  0  0  0  0  0
    7.8675   -7.0096   15.9415 C   0  0  0  0  0  0  0  0  0  0  0  0
    5.9733   -9.6553   17.3832 N   0  0  0  0  0  0  0  0  0  0  0  0
   10.2411   -2.9363   23.4301 C   0  0  0  0  0  0  0  0  0  0  0  0
   10.7288   -3.8197   19.9525 C   0  0  0  0  0  0  0  0  0  0  0  0
   10.1189   -5.0054   19.6987 C   0  0  0  0  0  0  0  0  0  0  0  0
  1  3  4  0
  1  7  4  0
  2 21  4  0
  2 27  4  0
  3  9  4  0
  3 10  4  0
  4  8  4  0
  4 18  4  0
  4 25  1  0
  5  9  4  0
  5 12  4  0
  6 13  1  0
  6 27  1  0
  7 28  4  0
  8 11  4  0
  9 29  4  0
 10 12  4  0
 11 24  1  0
 11 26  4  0
 12 25  1  0
 13 28  1  0
 14 20  4  0
 14 23  4  0
 15 17  4  0
 15 21  4  0
 16 19  4  0
 16 23  4  0
 17 22  4  0
 18 26  4  0
 19 24  4  0
 20 24  4  0
 22 27  4  0
 28 29  4  0
M  END
$$$$

 Created by Python create_sdf_string function

 29 33  0  0  0  0  0  0  0  0999 V2000
   10.7215   -3.3326   17.6437 C   0  0  0  0  0  0  0  0  0  0  0  0
    9.9489   -3.4675   24.6487 N   0  0  0  0  0  0  0  0  0  0  0  0
   10.0172   -4.4740   17.4101 C   0  0  0  0  0  0  0  0  0  0  0  0
    6.9051   -7.9575   16.4222 C   0  0  0  0  0  0  0  0  0  0  0  0
    8.9969   -6.3552   17.9668 N   0  0  0  0  0  0  0  0  0  0  0  0
   10.6702   -3.9051   22.4070 C   0  0  0  0  0  0  0  0  0  0  0  0
   11.0625   -3.0028   18.8894 C   0  0  0  0  0  0  0  0  0  0  0  0
    5.6180   -7.9194   16.1754 O   0  0  0  0  0  0  0  0  0  0  0  0
    9.7259   -5.3080   18.4485 C   0  0  0  0  0  0  0  0  0  0  0  0
    9.4578   -5.0200   16.3036 N   0  0  0  0  0  0  0  0  0  0  0  0
    5.0287   -8.9365   16.8223 C   0  0  0  0  0  0  0  0  0  0  0  0
    8.7742   -6.1498   16.6764 C   0  0  0  0  0  0  0  0  0  0  0  0
   10.9418   -3.4032   21.2053 O   0  0  0  0  0  0  0  0  0  0  0  0
    1.4797   -8.6258   16.2950 C   0  0  0  0  0  0  0  0  0  0  0  0
    9.2861   -1.2743   25.3585 C   0  0  0  0  0  0  0  0  0  0  0  0
    1.8892  -10.3985   17.7511 N   0  0  0  0  0  0  0  0  0  0  0  0
    9.6210   -0.6952   24.0976 C   0  0  0  0  0  0  0  0  0  0  0  0
    7.0792   -9.0217   17.1429 C   0  0  0  0  0  0  0  0  0  0  0  0
    3.1713  -10.1816   17.6634 C   0  0  0  0  0  0  0  0  0  0  0  0
    2.7878   -8.3822   16.2137 C   0  0  0  0  0  0  0  0  0  0  0  0
    9.4601   -2.6590   25.6528 C   0  0  0  0  0  0  0  0  0  0  0  0
   10.1182   -1.5672   23.1165 C   0  0  0  0  0  0  0  0  0  0  0  0
    1.0552   -9.6360   17.0650 C   0  0  0  0  0  0  0  0  0  0  0  0
    3.6519   -9.1783   16.9039 C   0  0  0  0  0  0  0  0  0  0  0  0
    7.8675   -7.0096   15.9415 C   0  0  0  0  0  0  0  0  0  0  0  0
    5.9733   -9.6553   17.3832 N   0  0  0  0  0  0  0  0  0  0  0  0
   10.2411   -2.9363   23.4301 C   0  0  0  0  0  0  0  0  0  0  0  0
   10.7288   -3.8197   19.9525 C   0  0  0  0  0  0  0  0  0  0  0  0
   10.1189   -5.0054   19.6987 C   0  0  0  0  0  0  0  0  0  0  0  0
  1  3  4  0
  1  7  4  0
  2 21  4  0
  2 27  4  0
  3  9  4  0
  3 10  4  0
  4  8  4  0
  4 18  4  0
  4 25  1  0
  5  9  4  0
  5 12  4  0
  6 13  1  0
  6 27  1  0
  7 28  4  0
  8 11  4  0
  9 29  4  0
 10 12  4  0
 11 24  1  0
 11 26  4  0
 12 25  1  0
 13 28  1  0
 14 20  4  0
 14 23  4  0
 15 17  4  0
 15 21  4  0
 16 19  4  0
 16 23  4  0
 17 22  4  0
 18 26  4  0
 19 24  4  0
 20 24  4  0
 22 27  4  0
 28 29  4  0
M  END
$$$$

 Created by Python create_sdf_string function

 29 33  0  0  0  0  0  0  0  0999 V2000
   10.7215   -3.3326   17.6437 C   0  0  0  0  0  0  0  0  0  0  0  0
    9.9489   -3.4675   24.6487 N   0  0  0  0  0  0  0  0  0  0  0  0
   10.0172   -4.4740   17.4101 C   0  0  0  0  0  0  0  0  0  0  0  0
    6.9051   -7.9575   16.4222 C   0  0  0  0  0  0  0  0  0  0  0  0
    8.9969   -6.3552   17.9668 N   0  0  0  0  0  0  0  0  0  0  0  0
   10.6702   -3.9051   22.4070 C   0  0  0  0  0  0  0  0  0  0  0  0
   11.0625   -3.0028   18.8894 C   0  0  0  0  0  0  0  0  0  0  0  0
    5.6180   -7.9194   16.1754 O   0  0  0  0  0  0  0  0  0  0  0  0
    9.7259   -5.3080   18.4485 C   0  0  0  0  0  0  0  0  0  0  0  0
    9.4578   -5.0200   16.3036 N   0  0  0  0  0  0  0  0  0  0  0  0
    5.0287   -8.9365   16.8223 C   0  0  0  0  0  0  0  0  0  0  0  0
    8.7742   -6.1498   16.6764 C   0  0  0  0  0  0  0  0  0  0  0  0
   10.9418   -3.4032   21.2053 O   0  0  0  0  0  0  0  0  0  0  0  0
    1.4797   -8.6258   16.2950 C   0  0  0  0  0  0  0  0  0  0  0  0
    9.2861   -1.2743   25.3585 C   0  0  0  0  0  0  0  0  0  0  0  0
    1.8892  -10.3985   17.7511 N   0  0  0  0  0  0  0  0  0  0  0  0
    9.6210   -0.6952   24.0976 C   0  0  0  0  0  0  0  0  0  0  0  0
    7.0792   -9.0217   17.1429 C   0  0  0  0  0  0  0  0  0  0  0  0
    3.1713  -10.1816   17.6634 C   0  0  0  0  0  0  0  0  0  0  0  0
    2.7878   -8.3822   16.2137 C   0  0  0  0  0  0  0  0  0  0  0  0
    9.4601   -2.6590   25.6528 C   0  0  0  0  0  0  0  0  0  0  0  0
   10.1182   -1.5672   23.1165 C   0  0  0  0  0  0  0  0  0  0  0  0
    1.0552   -9.6360   17.0650 C   0  0  0  0  0  0  0  0  0  0  0  0
    3.6519   -9.1783   16.9039 C   0  0  0  0  0  0  0  0  0  0  0  0
    7.8675   -7.0096   15.9415 C   0  0  0  0  0  0  0  0  0  0  0  0
    5.9733   -9.6553   17.3832 N   0  0  0  0  0  0  0  0  0  0  0  0
   10.2411   -2.9363   23.4301 C   0  0  0  0  0  0  0  0  0  0  0  0
   10.7288   -3.8197   19.9525 C   0  0  0  0  0  0  0  0  0  0  0  0
   10.1189   -5.0054   19.6987 C   0  0  0  0  0  0  0  0  0  0  0  0
  1  3  4  0
  1  7  4  0
  2 21  4  0
  2 27  4  0
  3  9  4  0
  3 10  4  0
  4  8  4  0
  4 18  4  0
  4 25  1  0
  5  9  4  0
  5 12  4  0
  6 13  1  0
  6 27  1  0
  7 28  4  0
  8 11  4  0
  9 29  4  0
 10 12  4  0
 11 24  1  0
 11 26  4  0
 12 25  1  0
 13 28  1  0
 14 20  4  0
 14 23  4  0
 15 17  4  0
 15 21  4  0
 16 19  4  0
 16 23  4  0
 17 22  4  0
 18 26  4  0
 19 24  4  0
 20 24  4  0
 22 27  4  0
 28 29  4  0
M  END
$$$$

 Created by Python create_sdf_string function

 29 33  0  0  0  0  0  0  0  0999 V2000
   10.7215   -3.3326   17.6437 C   0  0  0  0  0  0  0  0  0  0  0  0
    9.9489   -3.4675   24.6487 N   0  0  0  0  0  0  0  0  0  0  0  0
   10.0172   -4.4740   17.4101 C   0  0  0  0  0  0  0  0  0  0  0  0
    6.9051   -7.9575   16.4222 C   0  0  0  0  0  0  0  0  0  0  0  0
    8.9969   -6.3552   17.9668 N   0  0  0  0  0  0  0  0  0  0  0  0
   10.6702   -3.9051   22.4070 C   0  0  0  0  0  0  0  0  0  0  0  0
   11.0625   -3.0028   18.8894 C   0  0  0  0  0  0  0  0  0  0  0  0
    5.6180   -7.9194   16.1754 O   0  0  0  0  0  0  0  0  0  0  0  0
    9.7259   -5.3080   18.4485 C   0  0  0  0  0  0  0  0  0  0  0  0
    9.4578   -5.0200   16.3036 N   0  0  0  0  0  0  0  0  0  0  0  0
    5.0287   -8.9365   16.8223 C   0  0  0  0  0  0  0  0  0  0  0  0
    8.7742   -6.1498   16.6764 C   0  0  0  0  0  0  0  0  0  0  0  0
   10.9418   -3.4032   21.2053 O   0  0  0  0  0  0  0  0  0  0  0  0
    1.4797   -8.6258   16.2950 C   0  0  0  0  0  0  0  0  0  0  0  0
    9.2861   -1.2743   25.3585 C   0  0  0  0  0  0  0  0  0  0  0  0
    1.8892  -10.3985   17.7511 N   0  0  0  0  0  0  0  0  0  0  0  0
    9.6210   -0.6952   24.0976 C   0  0  0  0  0  0  0  0  0  0  0  0
    7.0792   -9.0217   17.1429 C   0  0  0  0  0  0  0  0  0  0  0  0
    3.1713  -10.1816   17.6634 C   0  0  0  0  0  0  0  0  0  0  0  0
    2.7878   -8.3822   16.2137 C   0  0  0  0  0  0  0  0  0  0  0  0
    9.4601   -2.6590   25.6528 C   0  0  0  0  0  0  0  0  0  0  0  0
   10.1182   -1.5672   23.1165 C   0  0  0  0  0  0  0  0  0  0  0  0
    1.0552   -9.6360   17.0650 C   0  0  0  0  0  0  0  0  0  0  0  0
    3.6519   -9.1783   16.9039 C   0  0  0  0  0  0  0  0  0  0  0  0
    7.8675   -7.0096   15.9415 C   0  0  0  0  0  0  0  0  0  0  0  0
    5.9733   -9.6553   17.3832 N   0  0  0  0  0  0  0  0  0  0  0  0
   10.2411   -2.9363   23.4301 C   0  0  0  0  0  0  0  0  0  0  0  0
   10.7288   -3.8197   19.9525 C   0  0  0  0  0  0  0  0  0  0  0  0
   10.1189   -5.0054   19.6987 C   0  0  0  0  0  0  0  0  0  0  0  0
  1  3  4  0
  1  7  4  0
  2 21  4  0
  2 27  4  0
  3  9  4  0
  3 10  4  0
  4  8  4  0
  4 18  4  0
  4 25  1  0
  5  9  4  0
  5 12  4  0
  6 13  1  0
  6 27  1  0
  7 28  4  0
  8 11  4  0
  9 29  4  0
 10 12  4  0
 11 24  1  0
 11 26  4  0
 12 25  1  0
 13 28  1  0
 14 20  4  0
 14 23  4  0
 15 17  4  0
 15 21  4  0
 16 19  4  0
 16 23  4  0
 17 22  4  0
 18 26  4  0
 19 24  4  0
 20 24  4  0
 22 27  4  0
 28 29  4  0
M  END
$$$$

 Created by Python create_sdf_string function

 29 33  0  0  0  0  0  0  0  0999 V2000
   10.7215   -3.3326   17.6437 C   0  0  0  0  0  0  0  0  0  0  0  0
    9.9489   -3.4675   24.6487 N   0  0  0  0  0  0  0  0  0  0  0  0
   10.0172   -4.4740   17.4101 C   0  0  0  0  0  0  0  0  0  0  0  0
    6.9051   -7.9575   16.4222 C   0  0  0  0  0  0  0  0  0  0  0  0
    8.9969   -6.3552   17.9668 N   0  0  0  0  0  0  0  0  0  0  0  0
   10.6702   -3.9051   22.4070 C   0  0  0  0  0  0  0  0  0  0  0  0
   11.0625   -3.0028   18.8894 C   0  0  0  0  0  0  0  0  0  0  0  0
    5.6180   -7.9194   16.1754 O   0  0  0  0  0  0  0  0  0  0  0  0
    9.7259   -5.3080   18.4485 C   0  0  0  0  0  0  0  0  0  0  0  0
    9.4578   -5.0200   16.3036 N   0  0  0  0  0  0  0  0  0  0  0  0
    5.0287   -8.9365   16.8223 C   0  0  0  0  0  0  0  0  0  0  0  0
    8.7742   -6.1498   16.6764 C   0  0  0  0  0  0  0  0  0  0  0  0
   10.9418   -3.4032   21.2053 O   0  0  0  0  0  0  0  0  0  0  0  0
    1.4797   -8.6258   16.2950 C   0  0  0  0  0  0  0  0  0  0  0  0
    9.2861   -1.2743   25.3585 C   0  0  0  0  0  0  0  0  0  0  0  0
    1.8892  -10.3985   17.7511 N   0  0  0  0  0  0  0  0  0  0  0  0
    9.6210   -0.6952   24.0976 C   0  0  0  0  0  0  0  0  0  0  0  0
    7.0792   -9.0217   17.1429 C   0  0  0  0  0  0  0  0  0  0  0  0
    3.1713  -10.1816   17.6634 C   0  0  0  0  0  0  0  0  0  0  0  0
    2.7878   -8.3822   16.2137 C   0  0  0  0  0  0  0  0  0  0  0  0
    9.4601   -2.6590   25.6528 C   0  0  0  0  0  0  0  0  0  0  0  0
   10.1182   -1.5672   23.1165 C   0  0  0  0  0  0  0  0  0  0  0  0
    1.0552   -9.6360   17.0650 C   0  0  0  0  0  0  0  0  0  0  0  0
    3.6519   -9.1783   16.9039 C   0  0  0  0  0  0  0  0  0  0  0  0
    7.8675   -7.0096   15.9415 C   0  0  0  0  0  0  0  0  0  0  0  0
    5.9733   -9.6553   17.3832 N   0  0  0  0  0  0  0  0  0  0  0  0
   10.2411   -2.9363   23.4301 C   0  0  0  0  0  0  0  0  0  0  0  0
   10.7288   -3.8197   19.9525 C   0  0  0  0  0  0  0  0  0  0  0  0
   10.1189   -5.0054   19.6987 C   0  0  0  0  0  0  0  0  0  0  0  0
  1  3  4  0
  1  7  4  0
  2 21  4  0
  2 27  4  0
  3  9  4  0
  3 10  4  0
  4  8  4  0
  4 18  4  0
  4 25  1  0
  5  9  4  0
  5 12  4  0
  6 13  1  0
  6 27  1  0
  7 28  4  0
  8 11  4  0
  9 29  4  0
 10 12  4  0
 11 24  1  0
 11 26  4  0
 12 25  1  0
 13 28  1  0
 14 20  4  0
 14 23  4  0
 15 17  4  0
 15 21  4  0
 16 19  4  0
 16 23  4  0
 17 22  4  0
 18 26  4  0
 19 24  4  0
 20 24  4  0
 22 27  4  0
 28 29  4  0
M  END
$$$$

 Created by Python create_sdf_string function

 29 33  0  0  0  0  0  0  0  0999 V2000
   10.7215   -3.3326   17.6437 C   0  0  0  0  0  0  0  0  0  0  0  0
    9.9489   -3.4675   24.6487 N   0  0  0  0  0  0  0  0  0  0  0  0
   10.0172   -4.4740   17.4101 C   0  0  0  0  0  0  0  0  0  0  0  0
    6.9051   -7.9575   16.4222 C   0  0  0  0  0  0  0  0  0  0  0  0
    8.9969   -6.3552   17.9668 N   0  0  0  0  0  0  0  0  0  0  0  0
   10.6702   -3.9051   22.4070 C   0  0  0  0  0  0  0  0  0  0  0  0
   11.0625   -3.0028   18.8894 C   0  0  0  0  0  0  0  0  0  0  0  0
    5.6180   -7.9194   16.1754 O   0  0  0  0  0  0  0  0  0  0  0  0
    9.7259   -5.3080   18.4485 C   0  0  0  0  0  0  0  0  0  0  0  0
    9.4578   -5.0200   16.3036 N   0  0  0  0  0  0  0  0  0  0  0  0
    5.0287   -8.9365   16.8223 C   0  0  0  0  0  0  0  0  0  0  0  0
    8.7742   -6.1498   16.6764 C   0  0  0  0  0  0  0  0  0  0  0  0
   10.9418   -3.4032   21.2053 O   0  0  0  0  0  0  0  0  0  0  0  0
    1.4797   -8.6258   16.2950 C   0  0  0  0  0  0  0  0  0  0  0  0
    9.2861   -1.2743   25.3585 C   0  0  0  0  0  0  0  0  0  0  0  0
    1.8892  -10.3985   17.7511 N   0  0  0  0  0  0  0  0  0  0  0  0
    9.6210   -0.6952   24.0976 C   0  0  0  0  0  0  0  0  0  0  0  0
    7.0792   -9.0217   17.1429 C   0  0  0  0  0  0  0  0  0  0  0  0
    3.1713  -10.1816   17.6634 C   0  0  0  0  0  0  0  0  0  0  0  0
    2.7878   -8.3822   16.2137 C   0  0  0  0  0  0  0  0  0  0  0  0
    9.4601   -2.6590   25.6528 C   0  0  0  0  0  0  0  0  0  0  0  0
   10.1182   -1.5672   23.1165 C   0  0  0  0  0  0  0  0  0  0  0  0
    1.0552   -9.6360   17.0650 C   0  0  0  0  0  0  0  0  0  0  0  0
    3.6519   -9.1783   16.9039 C   0  0  0  0  0  0  0  0  0  0  0  0
    7.8675   -7.0096   15.9415 C   0  0  0  0  0  0  0  0  0  0  0  0
    5.9733   -9.6553   17.3832 N   0  0  0  0  0  0  0  0  0  0  0  0
   10.2411   -2.9363   23.4301 C   0  0  0  0  0  0  0  0  0  0  0  0
   10.7288   -3.8197   19.9525 C   0  0  0  0  0  0  0  0  0  0  0  0
   10.1189   -5.0054   19.6987 C   0  0  0  0  0  0  0  0  0  0  0  0
  1  3  4  0
  1  7  4  0
  2 21  4  0
  2 27  4  0
  3  9  4  0
  3 10  4  0
  4  8  4  0
  4 18  4  0
  4 25  1  0
  5  9  4  0
  5 12  4  0
  6 13  1  0
  6 27  1  0
  7 28  4  0
  8 11  4  0
  9 29  4  0
 10 12  4  0
 11 24  1  0
 11 26  4  0
 12 25  1  0
 13 28  1  0
 14 20  4  0
 14 23  4  0
 15 17  4  0
 15 21  4  0
 16 19  4  0
 16 23  4  0
 17 22  4  0
 18 26  4  0
 19 24  4  0
 20 24  4  0
 22 27  4  0
 28 29  4  0
M  END
$$$$

 Created by Python create_sdf_string function

 29 33  0  0  0  0  0  0  0  0999 V2000
   10.7215   -3.3326   17.6437 C   0  0  0  0  0  0  0  0  0  0  0  0
    9.9489   -3.4675   24.6487 N   0  0  0  0  0  0  0  0  0  0  0  0
   10.0172   -4.4740   17.4101 C   0  0  0  0  0  0  0  0  0  0  0  0
    6.9051   -7.9575   16.4222 C   0  0  0  0  0  0  0  0  0  0  0  0
    8.9969   -6.3552   17.9668 N   0  0  0  0  0  0  0  0  0  0  0  0
   10.6702   -3.9051   22.4070 C   0  0  0  0  0  0  0  0  0  0  0  0
   11.0625   -3.0028   18.8894 C   0  0  0  0  0  0  0  0  0  0  0  0
    5.6180   -7.9194   16.1754 O   0  0  0  0  0  0  0  0  0  0  0  0
    9.7259   -5.3080   18.4485 C   0  0  0  0  0  0  0  0  0  0  0  0
    9.4578   -5.0200   16.3036 N   0  0  0  0  0  0  0  0  0  0  0  0
    5.0287   -8.9365   16.8223 C   0  0  0  0  0  0  0  0  0  0  0  0
    8.7742   -6.1498   16.6764 C   0  0  0  0  0  0  0  0  0  0  0  0
   10.9418   -3.4032   21.2053 O   0  0  0  0  0  0  0  0  0  0  0  0
    1.4797   -8.6258   16.2950 C   0  0  0  0  0  0  0  0  0  0  0  0
    9.2861   -1.2743   25.3585 C   0  0  0  0  0  0  0  0  0  0  0  0
    1.8892  -10.3985   17.7511 N   0  0  0  0  0  0  0  0  0  0  0  0
    9.6210   -0.6952   24.0976 C   0  0  0  0  0  0  0  0  0  0  0  0
    7.0792   -9.0217   17.1429 C   0  0  0  0  0  0  0  0  0  0  0  0
    3.1713  -10.1816   17.6634 C   0  0  0  0  0  0  0  0  0  0  0  0
    2.7878   -8.3822   16.2137 C   0  0  0  0  0  0  0  0  0  0  0  0
    9.4601   -2.6590   25.6528 C   0  0  0  0  0  0  0  0  0  0  0  0
   10.1182   -1.5672   23.1165 C   0  0  0  0  0  0  0  0  0  0  0  0
    1.0552   -9.6360   17.0650 C   0  0  0  0  0  0  0  0  0  0  0  0
    3.6519   -9.1783   16.9039 C   0  0  0  0  0  0  0  0  0  0  0  0
    7.8675   -7.0096   15.9415 C   0  0  0  0  0  0  0  0  0  0  0  0
    5.9733   -9.6553   17.3832 N   0  0  0  0  0  0  0  0  0  0  0  0
   10.2411   -2.9363   23.4301 C   0  0  0  0  0  0  0  0  0  0  0  0
   10.7288   -3.8197   19.9525 C   0  0  0  0  0  0  0  0  0  0  0  0
   10.1189   -5.0054   19.6987 C   0  0  0  0  0  0  0  0  0  0  0  0
  1  3  4  0
  1  7  4  0
  2 21  4  0
  2 27  4  0
  3  9  4  0
  3 10  4  0
  4  8  4  0
  4 18  4  0
  4 25  1  0
  5  9  4  0
  5 12  4  0
  6 13  1  0
  6 27  1  0
  7 28  4  0
  8 11  4  0
  9 29  4  0
 10 12  4  0
 11 24  1  0
 11 26  4  0
 12 25  1  0
 13 28  1  0
 14 20  4  0
 14 23  4  0
 15 17  4  0
 15 21  4  0
 16 19  4  0
 16 23  4  0
 17 22  4  0
 18 26  4  0
 19 24  4  0
 20 24  4  0
 22 27  4  0
 28 29  4  0
M  END
$$$$

 Created by Python create_sdf_string function

 29 33  0  0  0  0  0  0  0  0999 V2000
   10.7215   -3.3326   17.6437 C   0  0  0  0  0  0  0  0  0  0  0  0
    9.9489   -3.4675   24.6487 N   0  0  0  0  0  0  0  0  0  0  0  0
   10.0172   -4.4740   17.4101 C   0  0  0  0  0  0  0  0  0  0  0  0
    6.9051   -7.9575   16.4222 C   0  0  0  0  0  0  0  0  0  0  0  0
    8.9969   -6.3552   17.9668 N   0  0  0  0  0  0  0  0  0  0  0  0
   10.6702   -3.9051   22.4070 C   0  0  0  0  0  0  0  0  0  0  0  0
   11.0625   -3.0028   18.8894 C   0  0  0  0  0  0  0  0  0  0  0  0
    5.6180   -7.9194   16.1754 O   0  0  0  0  0  0  0  0  0  0  0  0
    9.7259   -5.3080   18.4485 C   0  0  0  0  0  0  0  0  0  0  0  0
    9.4578   -5.0200   16.3036 N   0  0  0  0  0  0  0  0  0  0  0  0
    5.0287   -8.9365   16.8223 C   0  0  0  0  0  0  0  0  0  0  0  0
    8.7742   -6.1498   16.6764 C   0  0  0  0  0  0  0  0  0  0  0  0
   10.9418   -3.4032   21.2053 O   0  0  0  0  0  0  0  0  0  0  0  0
    1.4797   -8.6258   16.2950 C   0  0  0  0  0  0  0  0  0  0  0  0
    9.2861   -1.2743   25.3585 C   0  0  0  0  0  0  0  0  0  0  0  0
    1.8892  -10.3985   17.7511 N   0  0  0  0  0  0  0  0  0  0  0  0
    9.6210   -0.6952   24.0976 C   0  0  0  0  0  0  0  0  0  0  0  0
    7.0792   -9.0217   17.1429 C   0  0  0  0  0  0  0  0  0  0  0  0
    3.1713  -10.1816   17.6634 C   0  0  0  0  0  0  0  0  0  0  0  0
    2.7878   -8.3822   16.2137 C   0  0  0  0  0  0  0  0  0  0  0  0
    9.4601   -2.6590   25.6528 C   0  0  0  0  0  0  0  0  0  0  0  0
   10.1182   -1.5672   23.1165 C   0  0  0  0  0  0  0  0  0  0  0  0
    1.0552   -9.6360   17.0650 C   0  0  0  0  0  0  0  0  0  0  0  0
    3.6519   -9.1783   16.9039 C   0  0  0  0  0  0  0  0  0  0  0  0
    7.8675   -7.0096   15.9415 C   0  0  0  0  0  0  0  0  0  0  0  0
    5.9733   -9.6553   17.3832 N   0  0  0  0  0  0  0  0  0  0  0  0
   10.2411   -2.9363   23.4301 C   0  0  0  0  0  0  0  0  0  0  0  0
   10.7288   -3.8197   19.9525 C   0  0  0  0  0  0  0  0  0  0  0  0
   10.1189   -5.0054   19.6987 C   0  0  0  0  0  0  0  0  0  0  0  0
  1  3  4  0
  1  7  4  0
  2 21  4  0
  2 27  4  0
  3  9  4  0
  3 10  4  0
  4  8  4  0
  4 18  4  0
  4 25  1  0
  5  9  4  0
  5 12  4  0
  6 13  1  0
  6 27  1  0
  7 28  4  0
  8 11  4  0
  9 29  4  0
 10 12  4  0
 11 24  1  0
 11 26  4  0
 12 25  1  0
 13 28  1  0
 14 20  4  0
 14 23  4  0
 15 17  4  0
 15 21  4  0
 16 19  4  0
 16 23  4  0
 17 22  4  0
 18 26  4  0
 19 24  4  0
 20 24  4  0
 22 27  4  0
 28 29  4  0
M  END
$$$$

 Created by Python create_sdf_string function

 29 33  0  0  0  0  0  0  0  0999 V2000
   10.7215   -3.3326   17.6437 C   0  0  0  0  0  0  0  0  0  0  0  0
    9.9489   -3.4675   24.6487 N   0  0  0  0  0  0  0  0  0  0  0  0
   10.0172   -4.4740   17.4101 C   0  0  0  0  0  0  0  0  0  0  0  0
    6.9051   -7.9575   16.4222 C   0  0  0  0  0  0  0  0  0  0  0  0
    8.9969   -6.3552   17.9668 N   0  0  0  0  0  0  0  0  0  0  0  0
   10.6702   -3.9051   22.4070 C   0  0  0  0  0  0  0  0  0  0  0  0
   11.0625   -3.0028   18.8894 C   0  0  0  0  0  0  0  0  0  0  0  0
    5.6180   -7.9194   16.1754 O   0  0  0  0  0  0  0  0  0  0  0  0
    9.7259   -5.3080   18.4485 C   0  0  0  0  0  0  0  0  0  0  0  0
    9.4578   -5.0200   16.3036 N   0  0  0  0  0  0  0  0  0  0  0  0
    5.0287   -8.9365   16.8223 C   0  0  0  0  0  0  0  0  0  0  0  0
    8.7742   -6.1498   16.6764 C   0  0  0  0  0  0  0  0  0  0  0  0
   10.9418   -3.4032   21.2053 O   0  0  0  0  0  0  0  0  0  0  0  0
    1.4797   -8.6258   16.2950 C   0  0  0  0  0  0  0  0  0  0  0  0
    9.2861   -1.2743   25.3585 C   0  0  0  0  0  0  0  0  0  0  0  0
    1.8892  -10.3985   17.7511 N   0  0  0  0  0  0  0  0  0  0  0  0
    9.6210   -0.6952   24.0976 C   0  0  0  0  0  0  0  0  0  0  0  0
    7.0792   -9.0217   17.1429 C   0  0  0  0  0  0  0  0  0  0  0  0
    3.1713  -10.1816   17.6634 C   0  0  0  0  0  0  0  0  0  0  0  0
    2.7878   -8.3822   16.2137 C   0  0  0  0  0  0  0  0  0  0  0  0
    9.4601   -2.6590   25.6528 C   0  0  0  0  0  0  0  0  0  0  0  0
   10.1182   -1.5672   23.1165 C   0  0  0  0  0  0  0  0  0  0  0  0
    1.0552   -9.6360   17.0650 C   0  0  0  0  0  0  0  0  0  0  0  0
    3.6519   -9.1783   16.9039 C   0  0  0  0  0  0  0  0  0  0  0  0
    7.8675   -7.0096   15.9415 C   0  0  0  0  0  0  0  0  0  0  0  0
    5.9733   -9.6553   17.3832 N   0  0  0  0  0  0  0  0  0  0  0  0
   10.2411   -2.9363   23.4301 C   0  0  0  0  0  0  0  0  0  0  0  0
   10.7288   -3.8197   19.9525 C   0  0  0  0  0  0  0  0  0  0  0  0
   10.1189   -5.0054   19.6987 C   0  0  0  0  0  0  0  0  0  0  0  0
  1  3  4  0
  1  7  4  0
  2 21  4  0
  2 27  4  0
  3  9  4  0
  3 10  4  0
  4  8  4  0
  4 18  4  0
  4 25  1  0
  5  9  4  0
  5 12  4  0
  6 13  1  0
  6 27  1  0
  7 28  4  0
  8 11  4  0
  9 29  4  0
 10 12  4  0
 11 24  1  0
 11 26  4  0
 12 25  1  0
 13 28  1  0
 14 20  4  0
 14 23  4  0
 15 17  4  0
 15 21  4  0
 16 19  4  0
 16 23  4  0
 17 22  4  0
 18 26  4  0
 19 24  4  0
 20 24  4  0
 22 27  4  0
 28 29  4  0
M  END
$$$$

 Created by Python create_sdf_string function

 29 33  0  0  0  0  0  0  0  0999 V2000
   10.7215   -3.3326   17.6437 C   0  0  0  0  0  0  0  0  0  0  0  0
    9.9489   -3.4675   24.6487 N   0  0  0  0  0  0  0  0  0  0  0  0
   10.0172   -4.4740   17.4101 C   0  0  0  0  0  0  0  0  0  0  0  0
    6.9051   -7.9575   16.4222 C   0  0  0  0  0  0  0  0  0  0  0  0
    8.9969   -6.3552   17.9668 N   0  0  0  0  0  0  0  0  0  0  0  0
   10.6702   -3.9051   22.4070 C   0  0  0  0  0  0  0  0  0  0  0  0
   11.0625   -3.0028   18.8894 C   0  0  0  0  0  0  0  0  0  0  0  0
    5.6180   -7.9194   16.1754 O   0  0  0  0  0  0  0  0  0  0  0  0
    9.7259   -5.3080   18.4485 C   0  0  0  0  0  0  0  0  0  0  0  0
    9.4578   -5.0200   16.3036 N   0  0  0  0  0  0  0  0  0  0  0  0
    5.0287   -8.9365   16.8223 C   0  0  0  0  0  0  0  0  0  0  0  0
    8.7742   -6.1498   16.6764 C   0  0  0  0  0  0  0  0  0  0  0  0
   10.9418   -3.4032   21.2053 O   0  0  0  0  0  0  0  0  0  0  0  0
    1.4797   -8.6258   16.2950 C   0  0  0  0  0  0  0  0  0  0  0  0
    9.2861   -1.2743   25.3585 C   0  0  0  0  0  0  0  0  0  0  0  0
    1.8892  -10.3985   17.7511 N   0  0  0  0  0  0  0  0  0  0  0  0
    9.6210   -0.6952   24.0976 C   0  0  0  0  0  0  0  0  0  0  0  0
    7.0792   -9.0217   17.1429 C   0  0  0  0  0  0  0  0  0  0  0  0
    3.1713  -10.1816   17.6634 C   0  0  0  0  0  0  0  0  0  0  0  0
    2.7878   -8.3822   16.2137 C   0  0  0  0  0  0  0  0  0  0  0  0
    9.4601   -2.6590   25.6528 C   0  0  0  0  0  0  0  0  0  0  0  0
   10.1182   -1.5672   23.1165 C   0  0  0  0  0  0  0  0  0  0  0  0
    1.0552   -9.6360   17.0650 C   0  0  0  0  0  0  0  0  0  0  0  0
    3.6519   -9.1783   16.9039 C   0  0  0  0  0  0  0  0  0  0  0  0
    7.8675   -7.0096   15.9415 C   0  0  0  0  0  0  0  0  0  0  0  0
    5.9733   -9.6553   17.3832 N   0  0  0  0  0  0  0  0  0  0  0  0
   10.2411   -2.9363   23.4301 C   0  0  0  0  0  0  0  0  0  0  0  0
   10.7288   -3.8197   19.9525 C   0  0  0  0  0  0  0  0  0  0  0  0
   10.1189   -5.0054   19.6987 C   0  0  0  0  0  0  0  0  0  0  0  0
  1  3  4  0
  1  7  4  0
  2 21  4  0
  2 27  4  0
  3  9  4  0
  3 10  4  0
  4  8  4  0
  4 18  4  0
  4 25  1  0
  5  9  4  0
  5 12  4  0
  6 13  1  0
  6 27  1  0
  7 28  4  0
  8 11  4  0
  9 29  4  0
 10 12  4  0
 11 24  1  0
 11 26  4  0
 12 25  1  0
 13 28  1  0
 14 20  4  0
 14 23  4  0
 15 17  4  0
 15 21  4  0
 16 19  4  0
 16 23  4  0
 17 22  4  0
 18 26  4  0
 19 24  4  0
 20 24  4  0
 22 27  4  0
 28 29  4  0
M  END
$$$$

 Created by Python create_sdf_string function

 29 33  0  0  0  0  0  0  0  0999 V2000
   10.7215   -3.3326   17.6437 C   0  0  0  0  0  0  0  0  0  0  0  0
    9.9489   -3.4675   24.6487 N   0  0  0  0  0  0  0  0  0  0  0  0
   10.0172   -4.4740   17.4101 C   0  0  0  0  0  0  0  0  0  0  0  0
    6.9051   -7.9575   16.4222 C   0  0  0  0  0  0  0  0  0  0  0  0
    8.9969   -6.3552   17.9668 N   0  0  0  0  0  0  0  0  0  0  0  0
   10.6702   -3.9051   22.4070 C   0  0  0  0  0  0  0  0  0  0  0  0
   11.0625   -3.0028   18.8894 C   0  0  0  0  0  0  0  0  0  0  0  0
    5.6180   -7.9194   16.1754 O   0  0  0  0  0  0  0  0  0  0  0  0
    9.7259   -5.3080   18.4485 C   0  0  0  0  0  0  0  0  0  0  0  0
    9.4578   -5.0200   16.3036 N   0  0  0  0  0  0  0  0  0  0  0  0
    5.0287   -8.9365   16.8223 C   0  0  0  0  0  0  0  0  0  0  0  0
    8.7742   -6.1498   16.6764 C   0  0  0  0  0  0  0  0  0  0  0  0
   10.9418   -3.4032   21.2053 O   0  0  0  0  0  0  0  0  0  0  0  0
    1.4797   -8.6258   16.2950 C   0  0  0  0  0  0  0  0  0  0  0  0
    9.2861   -1.2743   25.3585 C   0  0  0  0  0  0  0  0  0  0  0  0
    1.8892  -10.3985   17.7511 N   0  0  0  0  0  0  0  0  0  0  0  0
    9.6210   -0.6952   24.0976 C   0  0  0  0  0  0  0  0  0  0  0  0
    7.0792   -9.0217   17.1429 C   0  0  0  0  0  0  0  0  0  0  0  0
    3.1713  -10.1816   17.6634 C   0  0  0  0  0  0  0  0  0  0  0  0
    2.7878   -8.3822   16.2137 C   0  0  0  0  0  0  0  0  0  0  0  0
    9.4601   -2.6590   25.6528 C   0  0  0  0  0  0  0  0  0  0  0  0
   10.1182   -1.5672   23.1165 C   0  0  0  0  0  0  0  0  0  0  0  0
    1.0552   -9.6360   17.0650 C   0  0  0  0  0  0  0  0  0  0  0  0
    3.6519   -9.1783   16.9039 C   0  0  0  0  0  0  0  0  0  0  0  0
    7.8675   -7.0096   15.9415 C   0  0  0  0  0  0  0  0  0  0  0  0
    5.9733   -9.6553   17.3832 N   0  0  0  0  0  0  0  0  0  0  0  0
   10.2411   -2.9363   23.4301 C   0  0  0  0  0  0  0  0  0  0  0  0
   10.7288   -3.8197   19.9525 C   0  0  0  0  0  0  0  0  0  0  0  0
   10.1189   -5.0054   19.6987 C   0  0  0  0  0  0  0  0  0  0  0  0
  1  3  4  0
  1  7  4  0
  2 21  4  0
  2 27  4  0
  3  9  4  0
  3 10  4  0
  4  8  4  0
  4 18  4  0
  4 25  1  0
  5  9  4  0
  5 12  4  0
  6 13  1  0
  6 27  1  0
  7 28  4  0
  8 11  4  0
  9 29  4  0
 10 12  4  0
 11 24  1  0
 11 26  4  0
 12 25  1  0
 13 28  1  0
 14 20  4  0
 14 23  4  0
 15 17  4  0
 15 21  4  0
 16 19  4  0
 16 23  4  0
 17 22  4  0
 18 26  4  0
 19 24  4  0
 20 24  4  0
 22 27  4  0
 28 29  4  0
M  END
$$$$

 Created by Python create_sdf_string function

 29 33  0  0  0  0  0  0  0  0999 V2000
   10.7215   -3.3326   17.6437 C   0  0  0  0  0  0  0  0  0  0  0  0
    9.9489   -3.4675   24.6487 N   0  0  0  0  0  0  0  0  0  0  0  0
   10.0172   -4.4740   17.4101 C   0  0  0  0  0  0  0  0  0  0  0  0
    6.9051   -7.9575   16.4222 C   0  0  0  0  0  0  0  0  0  0  0  0
    8.9969   -6.3552   17.9668 N   0  0  0  0  0  0  0  0  0  0  0  0
   10.6702   -3.9051   22.4070 C   0  0  0  0  0  0  0  0  0  0  0  0
   11.0625   -3.0028   18.8894 C   0  0  0  0  0  0  0  0  0  0  0  0
    5.6180   -7.9194   16.1754 O   0  0  0  0  0  0  0  0  0  0  0  0
    9.7259   -5.3080   18.4485 C   0  0  0  0  0  0  0  0  0  0  0  0
    9.4578   -5.0200   16.3036 N   0  0  0  0  0  0  0  0  0  0  0  0
    5.0287   -8.9365   16.8223 C   0  0  0  0  0  0  0  0  0  0  0  0
    8.7742   -6.1498   16.6764 C   0  0  0  0  0  0  0  0  0  0  0  0
   10.9418   -3.4032   21.2053 O   0  0  0  0  0  0  0  0  0  0  0  0
    1.4797   -8.6258   16.2950 C   0  0  0  0  0  0  0  0  0  0  0  0
    9.2861   -1.2743   25.3585 C   0  0  0  0  0  0  0  0  0  0  0  0
    1.8892  -10.3985   17.7511 N   0  0  0  0  0  0  0  0  0  0  0  0
    9.6210   -0.6952   24.0976 C   0  0  0  0  0  0  0  0  0  0  0  0
    7.0792   -9.0217   17.1429 C   0  0  0  0  0  0  0  0  0  0  0  0
    3.1713  -10.1816   17.6634 C   0  0  0  0  0  0  0  0  0  0  0  0
    2.7878   -8.3822   16.2137 C   0  0  0  0  0  0  0  0  0  0  0  0
    9.4601   -2.6590   25.6528 C   0  0  0  0  0  0  0  0  0  0  0  0
   10.1182   -1.5672   23.1165 C   0  0  0  0  0  0  0  0  0  0  0  0
    1.0552   -9.6360   17.0650 C   0  0  0  0  0  0  0  0  0  0  0  0
    3.6519   -9.1783   16.9039 C   0  0  0  0  0  0  0  0  0  0  0  0
    7.8675   -7.0096   15.9415 C   0  0  0  0  0  0  0  0  0  0  0  0
    5.9733   -9.6553   17.3832 N   0  0  0  0  0  0  0  0  0  0  0  0
   10.2411   -2.9363   23.4301 C   0  0  0  0  0  0  0  0  0  0  0  0
   10.7288   -3.8197   19.9525 C   0  0  0  0  0  0  0  0  0  0  0  0
   10.1189   -5.0054   19.6987 C   0  0  0  0  0  0  0  0  0  0  0  0
  1  3  4  0
  1  7  4  0
  2 21  4  0
  2 27  4  0
  3  9  4  0
  3 10  4  0
  4  8  4  0
  4 18  4  0
  4 25  1  0
  5  9  4  0
  5 12  4  0
  6 13  1  0
  6 27  1  0
  7 28  4  0
  8 11  4  0
  9 29  4  0
 10 12  4  0
 11 24  1  0
 11 26  4  0
 12 25  1  0
 13 28  1  0
 14 20  4  0
 14 23  4  0
 15 17  4  0
 15 21  4  0
 16 19  4  0
 16 23  4  0
 17 22  4  0
 18 26  4  0
 19 24  4  0
 20 24  4  0
 22 27  4  0
 28 29  4  0
M  END
$$$$

 Created by Python create_sdf_string function

 29 33  0  0  0  0  0  0  0  0999 V2000
   10.7215   -3.3326   17.6437 C   0  0  0  0  0  0  0  0  0  0  0  0
    9.9489   -3.4675   24.6487 N   0  0  0  0  0  0  0  0  0  0  0  0
   10.0172   -4.4740   17.4101 C   0  0  0  0  0  0  0  0  0  0  0  0
    6.9051   -7.9575   16.4222 C   0  0  0  0  0  0  0  0  0  0  0  0
    8.9969   -6.3552   17.9668 N   0  0  0  0  0  0  0  0  0  0  0  0
   10.6702   -3.9051   22.4070 C   0  0  0  0  0  0  0  0  0  0  0  0
   11.0625   -3.0028   18.8894 C   0  0  0  0  0  0  0  0  0  0  0  0
    5.6180   -7.9194   16.1754 O   0  0  0  0  0  0  0  0  0  0  0  0
    9.7259   -5.3080   18.4485 C   0  0  0  0  0  0  0  0  0  0  0  0
    9.4578   -5.0200   16.3036 N   0  0  0  0  0  0  0  0  0  0  0  0
    5.0287   -8.9365   16.8223 C   0  0  0  0  0  0  0  0  0  0  0  0
    8.7742   -6.1498   16.6764 C   0  0  0  0  0  0  0  0  0  0  0  0
   10.9418   -3.4032   21.2053 O   0  0  0  0  0  0  0  0  0  0  0  0
    1.4797   -8.6258   16.2950 C   0  0  0  0  0  0  0  0  0  0  0  0
    9.2861   -1.2743   25.3585 C   0  0  0  0  0  0  0  0  0  0  0  0
    1.8892  -10.3985   17.7511 N   0  0  0  0  0  0  0  0  0  0  0  0
    9.6210   -0.6952   24.0976 C   0  0  0  0  0  0  0  0  0  0  0  0
    7.0792   -9.0217   17.1429 C   0  0  0  0  0  0  0  0  0  0  0  0
    3.1713  -10.1816   17.6634 C   0  0  0  0  0  0  0  0  0  0  0  0
    2.7878   -8.3822   16.2137 C   0  0  0  0  0  0  0  0  0  0  0  0
    9.4601   -2.6590   25.6528 C   0  0  0  0  0  0  0  0  0  0  0  0
   10.1182   -1.5672   23.1165 C   0  0  0  0  0  0  0  0  0  0  0  0
    1.0552   -9.6360   17.0650 C   0  0  0  0  0  0  0  0  0  0  0  0
    3.6519   -9.1783   16.9039 C   0  0  0  0  0  0  0  0  0  0  0  0
    7.8675   -7.0096   15.9415 C   0  0  0  0  0  0  0  0  0  0  0  0
    5.9733   -9.6553   17.3832 N   0  0  0  0  0  0  0  0  0  0  0  0
   10.2411   -2.9363   23.4301 C   0  0  0  0  0  0  0  0  0  0  0  0
   10.7288   -3.8197   19.9525 C   0  0  0  0  0  0  0  0  0  0  0  0
   10.1189   -5.0054   19.6987 C   0  0  0  0  0  0  0  0  0  0  0  0
  1  3  4  0
  1  7  4  0
  2 21  4  0
  2 27  4  0
  3  9  4  0
  3 10  4  0
  4  8  4  0
  4 18  4  0
  4 25  1  0
  5  9  4  0
  5 12  4  0
  6 13  1  0
  6 27  1  0
  7 28  4  0
  8 11  4  0
  9 29  4  0
 10 12  4  0
 11 24  1  0
 11 26  4  0
 12 25  1  0
 13 28  1  0
 14 20  4  0
 14 23  4  0
 15 17  4  0
 15 21  4  0
 16 19  4  0
 16 23  4  0
 17 22  4  0
 18 26  4  0
 19 24  4  0
 20 24  4  0
 22 27  4  0
 28 29  4  0
M  END
$$$$

 Created by Python create_sdf_string function

 29 33  0  0  0  0  0  0  0  0999 V2000
   10.7215   -3.3326   17.6437 C   0  0  0  0  0  0  0  0  0  0  0  0
    9.9489   -3.4675   24.6487 N   0  0  0  0  0  0  0  0  0  0  0  0
   10.0172   -4.4740   17.4101 C   0  0  0  0  0  0  0  0  0  0  0  0
    6.9051   -7.9575   16.4222 C   0  0  0  0  0  0  0  0  0  0  0  0
    8.9969   -6.3552   17.9668 N   0  0  0  0  0  0  0  0  0  0  0  0
   10.6702   -3.9051   22.4070 C   0  0  0  0  0  0  0  0  0  0  0  0
   11.0625   -3.0028   18.8894 C   0  0  0  0  0  0  0  0  0  0  0  0
    5.6180   -7.9194   16.1754 O   0  0  0  0  0  0  0  0  0  0  0  0
    9.7259   -5.3080   18.4485 C   0  0  0  0  0  0  0  0  0  0  0  0
    9.4578   -5.0200   16.3036 N   0  0  0  0  0  0  0  0  0  0  0  0
    5.0287   -8.9365   16.8223 C   0  0  0  0  0  0  0  0  0  0  0  0
    8.7742   -6.1498   16.6764 C   0  0  0  0  0  0  0  0  0  0  0  0
   10.9418   -3.4032   21.2053 O   0  0  0  0  0  0  0  0  0  0  0  0
    1.4797   -8.6258   16.2950 C   0  0  0  0  0  0  0  0  0  0  0  0
    9.2861   -1.2743   25.3585 C   0  0  0  0  0  0  0  0  0  0  0  0
    1.8892  -10.3985   17.7511 N   0  0  0  0  0  0  0  0  0  0  0  0
    9.6210   -0.6952   24.0976 C   0  0  0  0  0  0  0  0  0  0  0  0
    7.0792   -9.0217   17.1429 C   0  0  0  0  0  0  0  0  0  0  0  0
    3.1713  -10.1816   17.6634 C   0  0  0  0  0  0  0  0  0  0  0  0
    2.7878   -8.3822   16.2137 C   0  0  0  0  0  0  0  0  0  0  0  0
    9.4601   -2.6590   25.6528 C   0  0  0  0  0  0  0  0  0  0  0  0
   10.1182   -1.5672   23.1165 C   0  0  0  0  0  0  0  0  0  0  0  0
    1.0552   -9.6360   17.0650 C   0  0  0  0  0  0  0  0  0  0  0  0
    3.6519   -9.1783   16.9039 C   0  0  0  0  0  0  0  0  0  0  0  0
    7.8675   -7.0096   15.9415 C   0  0  0  0  0  0  0  0  0  0  0  0
    5.9733   -9.6553   17.3832 N   0  0  0  0  0  0  0  0  0  0  0  0
   10.2411   -2.9363   23.4301 C   0  0  0  0  0  0  0  0  0  0  0  0
   10.7288   -3.8197   19.9525 C   0  0  0  0  0  0  0  0  0  0  0  0
   10.1189   -5.0054   19.6987 C   0  0  0  0  0  0  0  0  0  0  0  0
  1  3  4  0
  1  7  4  0
  2 21  4  0
  2 27  4  0
  3  9  4  0
  3 10  4  0
  4  8  4  0
  4 18  4  0
  4 25  1  0
  5  9  4  0
  5 12  4  0
  6 13  1  0
  6 27  1  0
  7 28  4  0
  8 11  4  0
  9 29  4  0
 10 12  4  0
 11 24  1  0
 11 26  4  0
 12 25  1  0
 13 28  1  0
 14 20  4  0
 14 23  4  0
 15 17  4  0
 15 21  4  0
 16 19  4  0
 16 23  4  0
 17 22  4  0
 18 26  4  0
 19 24  4  0
 20 24  4  0
 22 27  4  0
 28 29  4  0
M  END
$$$$

 Created by Python create_sdf_string function

 29 33  0  0  0  0  0  0  0  0999 V2000
   10.7215   -3.3326   17.6437 C   0  0  0  0  0  0  0  0  0  0  0  0
    9.9489   -3.4675   24.6487 N   0  0  0  0  0  0  0  0  0  0  0  0
   10.0172   -4.4740   17.4101 C   0  0  0  0  0  0  0  0  0  0  0  0
    6.9051   -7.9575   16.4222 C   0  0  0  0  0  0  0  0  0  0  0  0
    8.9969   -6.3552   17.9668 N   0  0  0  0  0  0  0  0  0  0  0  0
   10.6702   -3.9051   22.4070 C   0  0  0  0  0  0  0  0  0  0  0  0
   11.0625   -3.0028   18.8894 C   0  0  0  0  0  0  0  0  0  0  0  0
    5.6180   -7.9194   16.1754 O   0  0  0  0  0  0  0  0  0  0  0  0
    9.7259   -5.3080   18.4485 C   0  0  0  0  0  0  0  0  0  0  0  0
    9.4578   -5.0200   16.3036 N   0  0  0  0  0  0  0  0  0  0  0  0
    5.0287   -8.9365   16.8223 C   0  0  0  0  0  0  0  0  0  0  0  0
    8.7742   -6.1498   16.6764 C   0  0  0  0  0  0  0  0  0  0  0  0
   10.9418   -3.4032   21.2053 O   0  0  0  0  0  0  0  0  0  0  0  0
    1.4797   -8.6258   16.2950 C   0  0  0  0  0  0  0  0  0  0  0  0
    9.2861   -1.2743   25.3585 C   0  0  0  0  0  0  0  0  0  0  0  0
    1.8892  -10.3985   17.7511 N   0  0  0  0  0  0  0  0  0  0  0  0
    9.6210   -0.6952   24.0976 C   0  0  0  0  0  0  0  0  0  0  0  0
    7.0792   -9.0217   17.1429 C   0  0  0  0  0  0  0  0  0  0  0  0
    3.1713  -10.1816   17.6634 C   0  0  0  0  0  0  0  0  0  0  0  0
    2.7878   -8.3822   16.2137 C   0  0  0  0  0  0  0  0  0  0  0  0
    9.4601   -2.6590   25.6528 C   0  0  0  0  0  0  0  0  0  0  0  0
   10.1182   -1.5672   23.1165 C   0  0  0  0  0  0  0  0  0  0  0  0
    1.0552   -9.6360   17.0650 C   0  0  0  0  0  0  0  0  0  0  0  0
    3.6519   -9.1783   16.9039 C   0  0  0  0  0  0  0  0  0  0  0  0
    7.8675   -7.0096   15.9415 C   0  0  0  0  0  0  0  0  0  0  0  0
    5.9733   -9.6553   17.3832 N   0  0  0  0  0  0  0  0  0  0  0  0
   10.2411   -2.9363   23.4301 C   0  0  0  0  0  0  0  0  0  0  0  0
   10.7288   -3.8197   19.9525 C   0  0  0  0  0  0  0  0  0  0  0  0
   10.1189   -5.0054   19.6987 C   0  0  0  0  0  0  0  0  0  0  0  0
  1  3  4  0
  1  7  4  0
  2 21  4  0
  2 27  4  0
  3  9  4  0
  3 10  4  0
  4  8  4  0
  4 18  4  0
  4 25  1  0
  5  9  4  0
  5 12  4  0
  6 13  1  0
  6 27  1  0
  7 28  4  0
  8 11  4  0
  9 29  4  0
 10 12  4  0
 11 24  1  0
 11 26  4  0
 12 25  1  0
 13 28  1  0
 14 20  4  0
 14 23  4  0
 15 17  4  0
 15 21  4  0
 16 19  4  0
 16 23  4  0
 17 22  4  0
 18 26  4  0
 19 24  4  0
 20 24  4  0
 22 27  4  0
 28 29  4  0
M  END
$$$$

 Created by Python create_sdf_string function

 29 33  0  0  0  0  0  0  0  0999 V2000
   10.7215   -3.3326   17.6437 C   0  0  0  0  0  0  0  0  0  0  0  0
    9.9489   -3.4675   24.6487 N   0  0  0  0  0  0  0  0  0  0  0  0
   10.0172   -4.4740   17.4101 C   0  0  0  0  0  0  0  0  0  0  0  0
    6.9051   -7.9575   16.4222 C   0  0  0  0  0  0  0  0  0  0  0  0
    8.9969   -6.3552   17.9668 N   0  0  0  0  0  0  0  0  0  0  0  0
   10.6702   -3.9051   22.4070 C   0  0  0  0  0  0  0  0  0  0  0  0
   11.0625   -3.0028   18.8894 C   0  0  0  0  0  0  0  0  0  0  0  0
    5.6180   -7.9194   16.1754 O   0  0  0  0  0  0  0  0  0  0  0  0
    9.7259   -5.3080   18.4485 C   0  0  0  0  0  0  0  0  0  0  0  0
    9.4578   -5.0200   16.3036 N   0  0  0  0  0  0  0  0  0  0  0  0
    5.0287   -8.9365   16.8223 C   0  0  0  0  0  0  0  0  0  0  0  0
    8.7742   -6.1498   16.6764 C   0  0  0  0  0  0  0  0  0  0  0  0
   10.9418   -3.4032   21.2053 O   0  0  0  0  0  0  0  0  0  0  0  0
    1.4797   -8.6258   16.2950 C   0  0  0  0  0  0  0  0  0  0  0  0
    9.2861   -1.2743   25.3585 C   0  0  0  0  0  0  0  0  0  0  0  0
    1.8892  -10.3985   17.7511 N   0  0  0  0  0  0  0  0  0  0  0  0
    9.6210   -0.6952   24.0976 C   0  0  0  0  0  0  0  0  0  0  0  0
    7.0792   -9.0217   17.1429 C   0  0  0  0  0  0  0  0  0  0  0  0
    3.1713  -10.1816   17.6634 C   0  0  0  0  0  0  0  0  0  0  0  0
    2.7878   -8.3822   16.2137 C   0  0  0  0  0  0  0  0  0  0  0  0
    9.4601   -2.6590   25.6528 C   0  0  0  0  0  0  0  0  0  0  0  0
   10.1182   -1.5672   23.1165 C   0  0  0  0  0  0  0  0  0  0  0  0
    1.0552   -9.6360   17.0650 C   0  0  0  0  0  0  0  0  0  0  0  0
    3.6519   -9.1783   16.9039 C   0  0  0  0  0  0  0  0  0  0  0  0
    7.8675   -7.0096   15.9415 C   0  0  0  0  0  0  0  0  0  0  0  0
    5.9733   -9.6553   17.3832 N   0  0  0  0  0  0  0  0  0  0  0  0
   10.2411   -2.9363   23.4301 C   0  0  0  0  0  0  0  0  0  0  0  0
   10.7288   -3.8197   19.9525 C   0  0  0  0  0  0  0  0  0  0  0  0
   10.1189   -5.0054   19.6987 C   0  0  0  0  0  0  0  0  0  0  0  0
  1  3  4  0
  1  7  4  0
  2 21  4  0
  2 27  4  0
  3  9  4  0
  3 10  4  0
  4  8  4  0
  4 18  4  0
  4 25  1  0
  5  9  4  0
  5 12  4  0
  6 13  1  0
  6 27  1  0
  7 28  4  0
  8 11  4  0
  9 29  4  0
 10 12  4  0
 11 24  1  0
 11 26  4  0
 12 25  1  0
 13 28  1  0
 14 20  4  0
 14 23  4  0
 15 17  4  0
 15 21  4  0
 16 19  4  0
 16 23  4  0
 17 22  4  0
 18 26  4  0
 19 24  4  0
 20 24  4  0
 22 27  4  0
 28 29  4  0
M  END
$$$$

 Created by Python create_sdf_string function

 29 33  0  0  0  0  0  0  0  0999 V2000
   10.7215   -3.3326   17.6437 C   0  0  0  0  0  0  0  0  0  0  0  0
    9.9489   -3.4675   24.6487 N   0  0  0  0  0  0  0  0  0  0  0  0
   10.0172   -4.4740   17.4101 C   0  0  0  0  0  0  0  0  0  0  0  0
    6.9051   -7.9575   16.4222 C   0  0  0  0  0  0  0  0  0  0  0  0
    8.9969   -6.3552   17.9668 N   0  0  0  0  0  0  0  0  0  0  0  0
   10.6702   -3.9051   22.4070 C   0  0  0  0  0  0  0  0  0  0  0  0
   11.0625   -3.0028   18.8894 C   0  0  0  0  0  0  0  0  0  0  0  0
    5.6180   -7.9194   16.1754 O   0  0  0  0  0  0  0  0  0  0  0  0
    9.7259   -5.3080   18.4485 C   0  0  0  0  0  0  0  0  0  0  0  0
    9.4578   -5.0200   16.3036 N   0  0  0  0  0  0  0  0  0  0  0  0
    5.0287   -8.9365   16.8223 C   0  0  0  0  0  0  0  0  0  0  0  0
    8.7742   -6.1498   16.6764 C   0  0  0  0  0  0  0  0  0  0  0  0
   10.9418   -3.4032   21.2053 O   0  0  0  0  0  0  0  0  0  0  0  0
    1.4797   -8.6258   16.2950 C   0  0  0  0  0  0  0  0  0  0  0  0
    9.2861   -1.2743   25.3585 C   0  0  0  0  0  0  0  0  0  0  0  0
    1.8892  -10.3985   17.7511 N   0  0  0  0  0  0  0  0  0  0  0  0
    9.6210   -0.6952   24.0976 C   0  0  0  0  0  0  0  0  0  0  0  0
    7.0792   -9.0217   17.1429 C   0  0  0  0  0  0  0  0  0  0  0  0
    3.1713  -10.1816   17.6634 C   0  0  0  0  0  0  0  0  0  0  0  0
    2.7878   -8.3822   16.2137 C   0  0  0  0  0  0  0  0  0  0  0  0
    9.4601   -2.6590   25.6528 C   0  0  0  0  0  0  0  0  0  0  0  0
   10.1182   -1.5672   23.1165 C   0  0  0  0  0  0  0  0  0  0  0  0
    1.0552   -9.6360   17.0650 C   0  0  0  0  0  0  0  0  0  0  0  0
    3.6519   -9.1783   16.9039 C   0  0  0  0  0  0  0  0  0  0  0  0
    7.8675   -7.0096   15.9415 C   0  0  0  0  0  0  0  0  0  0  0  0
    5.9733   -9.6553   17.3832 N   0  0  0  0  0  0  0  0  0  0  0  0
   10.2411   -2.9363   23.4301 C   0  0  0  0  0  0  0  0  0  0  0  0
   10.7288   -3.8197   19.9525 C   0  0  0  0  0  0  0  0  0  0  0  0
   10.1189   -5.0054   19.6987 C   0  0  0  0  0  0  0  0  0  0  0  0
  1  3  4  0
  1  7  4  0
  2 21  4  0
  2 27  4  0
  3  9  4  0
  3 10  4  0
  4  8  4  0
  4 18  4  0
  4 25  1  0
  5  9  4  0
  5 12  4  0
  6 13  1  0
  6 27  1  0
  7 28  4  0
  8 11  4  0
  9 29  4  0
 10 12  4  0
 11 24  1  0
 11 26  4  0
 12 25  1  0
 13 28  1  0
 14 20  4  0
 14 23  4  0
 15 17  4  0
 15 21  4  0
 16 19  4  0
 16 23  4  0
 17 22  4  0
 18 26  4  0
 19 24  4  0
 20 24  4  0
 22 27  4  0
 28 29  4  0
M  END
$$$$

 Created by Python create_sdf_string function

 29 33  0  0  0  0  0  0  0  0999 V2000
   10.7215   -3.3326   17.6437 C   0  0  0  0  0  0  0  0  0  0  0  0
    9.9489   -3.4675   24.6487 N   0  0  0  0  0  0  0  0  0  0  0  0
   10.0172   -4.4740   17.4101 C   0  0  0  0  0  0  0  0  0  0  0  0
    6.9051   -7.9575   16.4222 C   0  0  0  0  0  0  0  0  0  0  0  0
    8.9969   -6.3552   17.9668 N   0  0  0  0  0  0  0  0  0  0  0  0
   10.6702   -3.9051   22.4070 C   0  0  0  0  0  0  0  0  0  0  0  0
   11.0625   -3.0028   18.8894 C   0  0  0  0  0  0  0  0  0  0  0  0
    5.6180   -7.9194   16.1754 O   0  0  0  0  0  0  0  0  0  0  0  0
    9.7259   -5.3080   18.4485 C   0  0  0  0  0  0  0  0  0  0  0  0
    9.4578   -5.0200   16.3036 N   0  0  0  0  0  0  0  0  0  0  0  0
    5.0287   -8.9365   16.8223 C   0  0  0  0  0  0  0  0  0  0  0  0
    8.7742   -6.1498   16.6764 C   0  0  0  0  0  0  0  0  0  0  0  0
   10.9418   -3.4032   21.2053 O   0  0  0  0  0  0  0  0  0  0  0  0
    1.4797   -8.6258   16.2950 C   0  0  0  0  0  0  0  0  0  0  0  0
    9.2861   -1.2743   25.3585 C   0  0  0  0  0  0  0  0  0  0  0  0
    1.8892  -10.3985   17.7511 N   0  0  0  0  0  0  0  0  0  0  0  0
    9.6210   -0.6952   24.0976 C   0  0  0  0  0  0  0  0  0  0  0  0
    7.0792   -9.0217   17.1429 C   0  0  0  0  0  0  0  0  0  0  0  0
    3.1713  -10.1816   17.6634 C   0  0  0  0  0  0  0  0  0  0  0  0
    2.7878   -8.3822   16.2137 C   0  0  0  0  0  0  0  0  0  0  0  0
    9.4601   -2.6590   25.6528 C   0  0  0  0  0  0  0  0  0  0  0  0
   10.1182   -1.5672   23.1165 C   0  0  0  0  0  0  0  0  0  0  0  0
    1.0552   -9.6360   17.0650 C   0  0  0  0  0  0  0  0  0  0  0  0
    3.6519   -9.1783   16.9039 C   0  0  0  0  0  0  0  0  0  0  0  0
    7.8675   -7.0096   15.9415 C   0  0  0  0  0  0  0  0  0  0  0  0
    5.9733   -9.6553   17.3832 N   0  0  0  0  0  0  0  0  0  0  0  0
   10.2411   -2.9363   23.4301 C   0  0  0  0  0  0  0  0  0  0  0  0
   10.7288   -3.8197   19.9525 C   0  0  0  0  0  0  0  0  0  0  0  0
   10.1189   -5.0054   19.6987 C   0  0  0  0  0  0  0  0  0  0  0  0
  1  3  4  0
  1  7  4  0
  2 21  4  0
  2 27  4  0
  3  9  4  0
  3 10  4  0
  4  8  4  0
  4 18  4  0
  4 25  1  0
  5  9  4  0
  5 12  4  0
  6 13  1  0
  6 27  1  0
  7 28  4  0
  8 11  4  0
  9 29  4  0
 10 12  4  0
 11 24  1  0
 11 26  4  0
 12 25  1  0
 13 28  1  0
 14 20  4  0
 14 23  4  0
 15 17  4  0
 15 21  4  0
 16 19  4  0
 16 23  4  0
 17 22  4  0
 18 26  4  0
 19 24  4  0
 20 24  4  0
 22 27  4  0
 28 29  4  0
M  END
$$$$

 Created by Python create_sdf_string function

 29 33  0  0  0  0  0  0  0  0999 V2000
   10.7215   -3.3326   17.6437 C   0  0  0  0  0  0  0  0  0  0  0  0
    9.9489   -3.4675   24.6487 N   0  0  0  0  0  0  0  0  0  0  0  0
   10.0172   -4.4740   17.4101 C   0  0  0  0  0  0  0  0  0  0  0  0
    6.9051   -7.9575   16.4222 C   0  0  0  0  0  0  0  0  0  0  0  0
    8.9969   -6.3552   17.9668 N   0  0  0  0  0  0  0  0  0  0  0  0
   10.6702   -3.9051   22.4070 C   0  0  0  0  0  0  0  0  0  0  0  0
   11.0625   -3.0028   18.8894 C   0  0  0  0  0  0  0  0  0  0  0  0
    5.6180   -7.9194   16.1754 O   0  0  0  0  0  0  0  0  0  0  0  0
    9.7259   -5.3080   18.4485 C   0  0  0  0  0  0  0  0  0  0  0  0
    9.4578   -5.0200   16.3036 N   0  0  0  0  0  0  0  0  0  0  0  0
    5.0287   -8.9365   16.8223 C   0  0  0  0  0  0  0  0  0  0  0  0
    8.7742   -6.1498   16.6764 C   0  0  0  0  0  0  0  0  0  0  0  0
   10.9418   -3.4032   21.2053 O   0  0  0  0  0  0  0  0  0  0  0  0
    1.4797   -8.6258   16.2950 C   0  0  0  0  0  0  0  0  0  0  0  0
    9.2861   -1.2743   25.3585 C   0  0  0  0  0  0  0  0  0  0  0  0
    1.8892  -10.3985   17.7511 N   0  0  0  0  0  0  0  0  0  0  0  0
    9.6210   -0.6952   24.0976 C   0  0  0  0  0  0  0  0  0  0  0  0
    7.0792   -9.0217   17.1429 C   0  0  0  0  0  0  0  0  0  0  0  0
    3.1713  -10.1816   17.6634 C   0  0  0  0  0  0  0  0  0  0  0  0
    2.7878   -8.3822   16.2137 C   0  0  0  0  0  0  0  0  0  0  0  0
    9.4601   -2.6590   25.6528 C   0  0  0  0  0  0  0  0  0  0  0  0
   10.1182   -1.5672   23.1165 C   0  0  0  0  0  0  0  0  0  0  0  0
    1.0552   -9.6360   17.0650 C   0  0  0  0  0  0  0  0  0  0  0  0
    3.6519   -9.1783   16.9039 C   0  0  0  0  0  0  0  0  0  0  0  0
    7.8675   -7.0096   15.9415 C   0  0  0  0  0  0  0  0  0  0  0  0
    5.9733   -9.6553   17.3832 N   0  0  0  0  0  0  0  0  0  0  0  0
   10.2411   -2.9363   23.4301 C   0  0  0  0  0  0  0  0  0  0  0  0
   10.7288   -3.8197   19.9525 C   0  0  0  0  0  0  0  0  0  0  0  0
   10.1189   -5.0054   19.6987 C   0  0  0  0  0  0  0  0  0  0  0  0
  1  3  4  0
  1  7  4  0
  2 21  4  0
  2 27  4  0
  3  9  4  0
  3 10  4  0
  4  8  4  0
  4 18  4  0
  4 25  1  0
  5  9  4  0
  5 12  4  0
  6 13  1  0
  6 27  1  0
  7 28  4  0
  8 11  4  0
  9 29  4  0
 10 12  4  0
 11 24  1  0
 11 26  4  0
 12 25  1  0
 13 28  1  0
 14 20  4  0
 14 23  4  0
 15 17  4  0
 15 21  4  0
 16 19  4  0
 16 23  4  0
 17 22  4  0
 18 26  4  0
 19 24  4  0
 20 24  4  0
 22 27  4  0
 28 29  4  0
M  END
$$$$

 Created by Python create_sdf_string function

 29 33  0  0  0  0  0  0  0  0999 V2000
   10.7215   -3.3326   17.6437 C   0  0  0  0  0  0  0  0  0  0  0  0
    9.9489   -3.4675   24.6487 N   0  0  0  0  0  0  0  0  0  0  0  0
   10.0172   -4.4740   17.4101 C   0  0  0  0  0  0  0  0  0  0  0  0
    6.9051   -7.9575   16.4222 C   0  0  0  0  0  0  0  0  0  0  0  0
    8.9969   -6.3552   17.9668 N   0  0  0  0  0  0  0  0  0  0  0  0
   10.6702   -3.9051   22.4070 C   0  0  0  0  0  0  0  0  0  0  0  0
   11.0625   -3.0028   18.8894 C   0  0  0  0  0  0  0  0  0  0  0  0
    5.6180   -7.9194   16.1754 O   0  0  0  0  0  0  0  0  0  0  0  0
    9.7259   -5.3080   18.4485 C   0  0  0  0  0  0  0  0  0  0  0  0
    9.4578   -5.0200   16.3036 N   0  0  0  0  0  0  0  0  0  0  0  0
    5.0287   -8.9365   16.8223 C   0  0  0  0  0  0  0  0  0  0  0  0
    8.7742   -6.1498   16.6764 C   0  0  0  0  0  0  0  0  0  0  0  0
   10.9418   -3.4032   21.2053 O   0  0  0  0  0  0  0  0  0  0  0  0
    1.4797   -8.6258   16.2950 C   0  0  0  0  0  0  0  0  0  0  0  0
    9.2861   -1.2743   25.3585 C   0  0  0  0  0  0  0  0  0  0  0  0
    1.8892  -10.3985   17.7511 N   0  0  0  0  0  0  0  0  0  0  0  0
    9.6210   -0.6952   24.0976 C   0  0  0  0  0  0  0  0  0  0  0  0
    7.0792   -9.0217   17.1429 C   0  0  0  0  0  0  0  0  0  0  0  0
    3.1713  -10.1816   17.6634 C   0  0  0  0  0  0  0  0  0  0  0  0
    2.7878   -8.3822   16.2137 C   0  0  0  0  0  0  0  0  0  0  0  0
    9.4601   -2.6590   25.6528 C   0  0  0  0  0  0  0  0  0  0  0  0
   10.1182   -1.5672   23.1165 C   0  0  0  0  0  0  0  0  0  0  0  0
    1.0552   -9.6360   17.0650 C   0  0  0  0  0  0  0  0  0  0  0  0
    3.6519   -9.1783   16.9039 C   0  0  0  0  0  0  0  0  0  0  0  0
    7.8675   -7.0096   15.9415 C   0  0  0  0  0  0  0  0  0  0  0  0
    5.9733   -9.6553   17.3832 N   0  0  0  0  0  0  0  0  0  0  0  0
   10.2411   -2.9363   23.4301 C   0  0  0  0  0  0  0  0  0  0  0  0
   10.7288   -3.8197   19.9525 C   0  0  0  0  0  0  0  0  0  0  0  0
   10.1189   -5.0054   19.6987 C   0  0  0  0  0  0  0  0  0  0  0  0
  1  3  4  0
  1  7  4  0
  2 21  4  0
  2 27  4  0
  3  9  4  0
  3 10  4  0
  4  8  4  0
  4 18  4  0
  4 25  1  0
  5  9  4  0
  5 12  4  0
  6 13  1  0
  6 27  1  0
  7 28  4  0
  8 11  4  0
  9 29  4  0
 10 12  4  0
 11 24  1  0
 11 26  4  0
 12 25  1  0
 13 28  1  0
 14 20  4  0
 14 23  4  0
 15 17  4  0
 15 21  4  0
 16 19  4  0
 16 23  4  0
 17 22  4  0
 18 26  4  0
 19 24  4  0
 20 24  4  0
 22 27  4  0
 28 29  4  0
M  END
$$$$

 Created by Python create_sdf_string function

 29 33  0  0  0  0  0  0  0  0999 V2000
   10.7215   -3.3326   17.6437 C   0  0  0  0  0  0  0  0  0  0  0  0
    9.9489   -3.4675   24.6487 N   0  0  0  0  0  0  0  0  0  0  0  0
   10.0172   -4.4740   17.4101 C   0  0  0  0  0  0  0  0  0  0  0  0
    6.9051   -7.9575   16.4222 C   0  0  0  0  0  0  0  0  0  0  0  0
    8.9969   -6.3552   17.9668 N   0  0  0  0  0  0  0  0  0  0  0  0
   10.6702   -3.9051   22.4070 C   0  0  0  0  0  0  0  0  0  0  0  0
   11.0625   -3.0028   18.8894 C   0  0  0  0  0  0  0  0  0  0  0  0
    5.6180   -7.9194   16.1754 O   0  0  0  0  0  0  0  0  0  0  0  0
    9.7259   -5.3080   18.4485 C   0  0  0  0  0  0  0  0  0  0  0  0
    9.4578   -5.0200   16.3036 N   0  0  0  0  0  0  0  0  0  0  0  0
    5.0287   -8.9365   16.8223 C   0  0  0  0  0  0  0  0  0  0  0  0
    8.7742   -6.1498   16.6764 C   0  0  0  0  0  0  0  0  0  0  0  0
   10.9418   -3.4032   21.2053 O   0  0  0  0  0  0  0  0  0  0  0  0
    1.4797   -8.6258   16.2950 C   0  0  0  0  0  0  0  0  0  0  0  0
    9.2861   -1.2743   25.3585 C   0  0  0  0  0  0  0  0  0  0  0  0
    1.8892  -10.3985   17.7511 N   0  0  0  0  0  0  0  0  0  0  0  0
    9.6210   -0.6952   24.0976 C   0  0  0  0  0  0  0  0  0  0  0  0
    7.0792   -9.0217   17.1429 C   0  0  0  0  0  0  0  0  0  0  0  0
    3.1713  -10.1816   17.6634 C   0  0  0  0  0  0  0  0  0  0  0  0
    2.7878   -8.3822   16.2137 C   0  0  0  0  0  0  0  0  0  0  0  0
    9.4601   -2.6590   25.6528 C   0  0  0  0  0  0  0  0  0  0  0  0
   10.1182   -1.5672   23.1165 C   0  0  0  0  0  0  0  0  0  0  0  0
    1.0552   -9.6360   17.0650 C   0  0  0  0  0  0  0  0  0  0  0  0
    3.6519   -9.1783   16.9039 C   0  0  0  0  0  0  0  0  0  0  0  0
    7.8675   -7.0096   15.9415 C   0  0  0  0  0  0  0  0  0  0  0  0
    5.9733   -9.6553   17.3832 N   0  0  0  0  0  0  0  0  0  0  0  0
   10.2411   -2.9363   23.4301 C   0  0  0  0  0  0  0  0  0  0  0  0
   10.7288   -3.8197   19.9525 C   0  0  0  0  0  0  0  0  0  0  0  0
   10.1189   -5.0054   19.6987 C   0  0  0  0  0  0  0  0  0  0  0  0
  1  3  4  0
  1  7  4  0
  2 21  4  0
  2 27  4  0
  3  9  4  0
  3 10  4  0
  4  8  4  0
  4 18  4  0
  4 25  1  0
  5  9  4  0
  5 12  4  0
  6 13  1  0
  6 27  1  0
  7 28  4  0
  8 11  4  0
  9 29  4  0
 10 12  4  0
 11 24  1  0
 11 26  4  0
 12 25  1  0
 13 28  1  0
 14 20  4  0
 14 23  4  0
 15 17  4  0
 15 21  4  0
 16 19  4  0
 16 23  4  0
 17 22  4  0
 18 26  4  0
 19 24  4  0
 20 24  4  0
 22 27  4  0
 28 29  4  0
M  END
$$$$

 Created by Python create_sdf_string function

 29 33  0  0  0  0  0  0  0  0999 V2000
   10.7215   -3.3326   17.6437 C   0  0  0  0  0  0  0  0  0  0  0  0
    9.9489   -3.4675   24.6487 N   0  0  0  0  0  0  0  0  0  0  0  0
   10.0172   -4.4740   17.4101 C   0  0  0  0  0  0  0  0  0  0  0  0
    6.9051   -7.9575   16.4222 C   0  0  0  0  0  0  0  0  0  0  0  0
    8.9969   -6.3552   17.9668 N   0  0  0  0  0  0  0  0  0  0  0  0
   10.6702   -3.9051   22.4070 C   0  0  0  0  0  0  0  0  0  0  0  0
   11.0625   -3.0028   18.8894 C   0  0  0  0  0  0  0  0  0  0  0  0
    5.6180   -7.9194   16.1754 O   0  0  0  0  0  0  0  0  0  0  0  0
    9.7259   -5.3080   18.4485 C   0  0  0  0  0  0  0  0  0  0  0  0
    9.4578   -5.0200   16.3036 N   0  0  0  0  0  0  0  0  0  0  0  0
    5.0287   -8.9365   16.8223 C   0  0  0  0  0  0  0  0  0  0  0  0
    8.7742   -6.1498   16.6764 C   0  0  0  0  0  0  0  0  0  0  0  0
   10.9418   -3.4032   21.2053 O   0  0  0  0  0  0  0  0  0  0  0  0
    1.4797   -8.6258   16.2950 C   0  0  0  0  0  0  0  0  0  0  0  0
    9.2861   -1.2743   25.3585 C   0  0  0  0  0  0  0  0  0  0  0  0
    1.8892  -10.3985   17.7511 N   0  0  0  0  0  0  0  0  0  0  0  0
    9.6210   -0.6952   24.0976 C   0  0  0  0  0  0  0  0  0  0  0  0
    7.0792   -9.0217   17.1429 C   0  0  0  0  0  0  0  0  0  0  0  0
    3.1713  -10.1816   17.6634 C   0  0  0  0  0  0  0  0  0  0  0  0
    2.7878   -8.3822   16.2137 C   0  0  0  0  0  0  0  0  0  0  0  0
    9.4601   -2.6590   25.6528 C   0  0  0  0  0  0  0  0  0  0  0  0
   10.1182   -1.5672   23.1165 C   0  0  0  0  0  0  0  0  0  0  0  0
    1.0552   -9.6360   17.0650 C   0  0  0  0  0  0  0  0  0  0  0  0
    3.6519   -9.1783   16.9039 C   0  0  0  0  0  0  0  0  0  0  0  0
    7.8675   -7.0096   15.9415 C   0  0  0  0  0  0  0  0  0  0  0  0
    5.9733   -9.6553   17.3832 N   0  0  0  0  0  0  0  0  0  0  0  0
   10.2411   -2.9363   23.4301 C   0  0  0  0  0  0  0  0  0  0  0  0
   10.7288   -3.8197   19.9525 C   0  0  0  0  0  0  0  0  0  0  0  0
   10.1189   -5.0054   19.6987 C   0  0  0  0  0  0  0  0  0  0  0  0
  1  3  4  0
  1  7  4  0
  2 21  4  0
  2 27  4  0
  3  9  4  0
  3 10  4  0
  4  8  4  0
  4 18  4  0
  4 25  1  0
  5  9  4  0
  5 12  4  0
  6 13  1  0
  6 27  1  0
  7 28  4  0
  8 11  4  0
  9 29  4  0
 10 12  4  0
 11 24  1  0
 11 26  4  0
 12 25  1  0
 13 28  1  0
 14 20  4  0
 14 23  4  0
 15 17  4  0
 15 21  4  0
 16 19  4  0
 16 23  4  0
 17 22  4  0
 18 26  4  0
 19 24  4  0
 20 24  4  0
 22 27  4  0
 28 29  4  0
M  END
$$$$

 Created by Python create_sdf_string function

 29 33  0  0  0  0  0  0  0  0999 V2000
   10.7215   -3.3326   17.6437 C   0  0  0  0  0  0  0  0  0  0  0  0
    9.9489   -3.4675   24.6487 N   0  0  0  0  0  0  0  0  0  0  0  0
   10.0172   -4.4740   17.4101 C   0  0  0  0  0  0  0  0  0  0  0  0
    6.9051   -7.9575   16.4222 C   0  0  0  0  0  0  0  0  0  0  0  0
    8.9969   -6.3552   17.9668 N   0  0  0  0  0  0  0  0  0  0  0  0
   10.6702   -3.9051   22.4070 C   0  0  0  0  0  0  0  0  0  0  0  0
   11.0625   -3.0028   18.8894 C   0  0  0  0  0  0  0  0  0  0  0  0
    5.6180   -7.9194   16.1754 O   0  0  0  0  0  0  0  0  0  0  0  0
    9.7259   -5.3080   18.4485 C   0  0  0  0  0  0  0  0  0  0  0  0
    9.4578   -5.0200   16.3036 N   0  0  0  0  0  0  0  0  0  0  0  0
    5.0287   -8.9365   16.8223 C   0  0  0  0  0  0  0  0  0  0  0  0
    8.7742   -6.1498   16.6764 C   0  0  0  0  0  0  0  0  0  0  0  0
   10.9418   -3.4032   21.2053 O   0  0  0  0  0  0  0  0  0  0  0  0
    1.4797   -8.6258   16.2950 C   0  0  0  0  0  0  0  0  0  0  0  0
    9.2861   -1.2743   25.3585 C   0  0  0  0  0  0  0  0  0  0  0  0
    1.8892  -10.3985   17.7511 N   0  0  0  0  0  0  0  0  0  0  0  0
    9.6210   -0.6952   24.0976 C   0  0  0  0  0  0  0  0  0  0  0  0
    7.0792   -9.0217   17.1429 C   0  0  0  0  0  0  0  0  0  0  0  0
    3.1713  -10.1816   17.6634 C   0  0  0  0  0  0  0  0  0  0  0  0
    2.7878   -8.3822   16.2137 C   0  0  0  0  0  0  0  0  0  0  0  0
    9.4601   -2.6590   25.6528 C   0  0  0  0  0  0  0  0  0  0  0  0
   10.1182   -1.5672   23.1165 C   0  0  0  0  0  0  0  0  0  0  0  0
    1.0552   -9.6360   17.0650 C   0  0  0  0  0  0  0  0  0  0  0  0
    3.6519   -9.1783   16.9039 C   0  0  0  0  0  0  0  0  0  0  0  0
    7.8675   -7.0096   15.9415 C   0  0  0  0  0  0  0  0  0  0  0  0
    5.9733   -9.6553   17.3832 N   0  0  0  0  0  0  0  0  0  0  0  0
   10.2411   -2.9363   23.4301 C   0  0  0  0  0  0  0  0  0  0  0  0
   10.7288   -3.8197   19.9525 C   0  0  0  0  0  0  0  0  0  0  0  0
   10.1189   -5.0054   19.6987 C   0  0  0  0  0  0  0  0  0  0  0  0
  1  3  4  0
  1  7  4  0
  2 21  4  0
  2 27  4  0
  3  9  4  0
  3 10  4  0
  4  8  4  0
  4 18  4  0
  4 25  1  0
  5  9  4  0
  5 12  4  0
  6 13  1  0
  6 27  1  0
  7 28  4  0
  8 11  4  0
  9 29  4  0
 10 12  4  0
 11 24  1  0
 11 26  4  0
 12 25  1  0
 13 28  1  0
 14 20  4  0
 14 23  4  0
 15 17  4  0
 15 21  4  0
 16 19  4  0
 16 23  4  0
 17 22  4  0
 18 26  4  0
 19 24  4  0
 20 24  4  0
 22 27  4  0
 28 29  4  0
M  END
$$$$

 Created by Python create_sdf_string function

 29 33  0  0  0  0  0  0  0  0999 V2000
   10.7215   -3.3326   17.6437 C   0  0  0  0  0  0  0  0  0  0  0  0
    9.9489   -3.4675   24.6487 N   0  0  0  0  0  0  0  0  0  0  0  0
   10.0172   -4.4740   17.4101 C   0  0  0  0  0  0  0  0  0  0  0  0
    6.9051   -7.9575   16.4222 C   0  0  0  0  0  0  0  0  0  0  0  0
    8.9969   -6.3552   17.9668 N   0  0  0  0  0  0  0  0  0  0  0  0
   10.6702   -3.9051   22.4070 C   0  0  0  0  0  0  0  0  0  0  0  0
   11.0625   -3.0028   18.8894 C   0  0  0  0  0  0  0  0  0  0  0  0
    5.6180   -7.9194   16.1754 O   0  0  0  0  0  0  0  0  0  0  0  0
    9.7259   -5.3080   18.4485 C   0  0  0  0  0  0  0  0  0  0  0  0
    9.4578   -5.0200   16.3036 N   0  0  0  0  0  0  0  0  0  0  0  0
    5.0287   -8.9365   16.8223 C   0  0  0  0  0  0  0  0  0  0  0  0
    8.7742   -6.1498   16.6764 C   0  0  0  0  0  0  0  0  0  0  0  0
   10.9418   -3.4032   21.2053 O   0  0  0  0  0  0  0  0  0  0  0  0
    1.4797   -8.6258   16.2950 C   0  0  0  0  0  0  0  0  0  0  0  0
    9.2861   -1.2743   25.3585 C   0  0  0  0  0  0  0  0  0  0  0  0
    1.8892  -10.3985   17.7511 N   0  0  0  0  0  0  0  0  0  0  0  0
    9.6210   -0.6952   24.0976 C   0  0  0  0  0  0  0  0  0  0  0  0
    7.0792   -9.0217   17.1429 C   0  0  0  0  0  0  0  0  0  0  0  0
    3.1713  -10.1816   17.6634 C   0  0  0  0  0  0  0  0  0  0  0  0
    2.7878   -8.3822   16.2137 C   0  0  0  0  0  0  0  0  0  0  0  0
    9.4601   -2.6590   25.6528 C   0  0  0  0  0  0  0  0  0  0  0  0
   10.1182   -1.5672   23.1165 C   0  0  0  0  0  0  0  0  0  0  0  0
    1.0552   -9.6360   17.0650 C   0  0  0  0  0  0  0  0  0  0  0  0
    3.6519   -9.1783   16.9039 C   0  0  0  0  0  0  0  0  0  0  0  0
    7.8675   -7.0096   15.9415 C   0  0  0  0  0  0  0  0  0  0  0  0
    5.9733   -9.6553   17.3832 N   0  0  0  0  0  0  0  0  0  0  0  0
   10.2411   -2.9363   23.4301 C   0  0  0  0  0  0  0  0  0  0  0  0
   10.7288   -3.8197   19.9525 C   0  0  0  0  0  0  0  0  0  0  0  0
   10.1189   -5.0054   19.6987 C   0  0  0  0  0  0  0  0  0  0  0  0
  1  3  4  0
  1  7  4  0
  2 21  4  0
  2 27  4  0
  3  9  4  0
  3 10  4  0
  4  8  4  0
  4 18  4  0
  4 25  1  0
  5  9  4  0
  5 12  4  0
  6 13  1  0
  6 27  1  0
  7 28  4  0
  8 11  4  0
  9 29  4  0
 10 12  4  0
 11 24  1  0
 11 26  4  0
 12 25  1  0
 13 28  1  0
 14 20  4  0
 14 23  4  0
 15 17  4  0
 15 21  4  0
 16 19  4  0
 16 23  4  0
 17 22  4  0
 18 26  4  0
 19 24  4  0
 20 24  4  0
 22 27  4  0
 28 29  4  0
M  END
$$$$

 Created by Python create_sdf_string function

 29 33  0  0  0  0  0  0  0  0999 V2000
   10.7215   -3.3326   17.6437 C   0  0  0  0  0  0  0  0  0  0  0  0
    9.9489   -3.4675   24.6487 N   0  0  0  0  0  0  0  0  0  0  0  0
   10.0172   -4.4740   17.4101 C   0  0  0  0  0  0  0  0  0  0  0  0
    6.9051   -7.9575   16.4222 C   0  0  0  0  0  0  0  0  0  0  0  0
    8.9969   -6.3552   17.9668 N   0  0  0  0  0  0  0  0  0  0  0  0
   10.6702   -3.9051   22.4070 C   0  0  0  0  0  0  0  0  0  0  0  0
   11.0625   -3.0028   18.8894 C   0  0  0  0  0  0  0  0  0  0  0  0
    5.6180   -7.9194   16.1754 O   0  0  0  0  0  0  0  0  0  0  0  0
    9.7259   -5.3080   18.4485 C   0  0  0  0  0  0  0  0  0  0  0  0
    9.4578   -5.0200   16.3036 N   0  0  0  0  0  0  0  0  0  0  0  0
    5.0287   -8.9365   16.8223 C   0  0  0  0  0  0  0  0  0  0  0  0
    8.7742   -6.1498   16.6764 C   0  0  0  0  0  0  0  0  0  0  0  0
   10.9418   -3.4032   21.2053 O   0  0  0  0  0  0  0  0  0  0  0  0
    1.4797   -8.6258   16.2950 C   0  0  0  0  0  0  0  0  0  0  0  0
    9.2861   -1.2743   25.3585 C   0  0  0  0  0  0  0  0  0  0  0  0
    1.8892  -10.3985   17.7511 N   0  0  0  0  0  0  0  0  0  0  0  0
    9.6210   -0.6952   24.0976 C   0  0  0  0  0  0  0  0  0  0  0  0
    7.0792   -9.0217   17.1429 C   0  0  0  0  0  0  0  0  0  0  0  0
    3.1713  -10.1816   17.6634 C   0  0  0  0  0  0  0  0  0  0  0  0
    2.7878   -8.3822   16.2137 C   0  0  0  0  0  0  0  0  0  0  0  0
    9.4601   -2.6590   25.6528 C   0  0  0  0  0  0  0  0  0  0  0  0
   10.1182   -1.5672   23.1165 C   0  0  0  0  0  0  0  0  0  0  0  0
    1.0552   -9.6360   17.0650 C   0  0  0  0  0  0  0  0  0  0  0  0
    3.6519   -9.1783   16.9039 C   0  0  0  0  0  0  0  0  0  0  0  0
    7.8675   -7.0096   15.9415 C   0  0  0  0  0  0  0  0  0  0  0  0
    5.9733   -9.6553   17.3832 N   0  0  0  0  0  0  0  0  0  0  0  0
   10.2411   -2.9363   23.4301 C   0  0  0  0  0  0  0  0  0  0  0  0
   10.7288   -3.8197   19.9525 C   0  0  0  0  0  0  0  0  0  0  0  0
   10.1189   -5.0054   19.6987 C   0  0  0  0  0  0  0  0  0  0  0  0
  1  3  4  0
  1  7  4  0
  2 21  4  0
  2 27  4  0
  3  9  4  0
  3 10  4  0
  4  8  4  0
  4 18  4  0
  4 25  1  0
  5  9  4  0
  5 12  4  0
  6 13  1  0
  6 27  1  0
  7 28  4  0
  8 11  4  0
  9 29  4  0
 10 12  4  0
 11 24  1  0
 11 26  4  0
 12 25  1  0
 13 28  1  0
 14 20  4  0
 14 23  4  0
 15 17  4  0
 15 21  4  0
 16 19  4  0
 16 23  4  0
 17 22  4  0
 18 26  4  0
 19 24  4  0
 20 24  4  0
 22 27  4  0
 28 29  4  0
M  END
$$$$

 Created by Python create_sdf_string function

 29 33  0  0  0  0  0  0  0  0999 V2000
   10.7215   -3.3326   17.6437 C   0  0  0  0  0  0  0  0  0  0  0  0
    9.9489   -3.4675   24.6487 N   0  0  0  0  0  0  0  0  0  0  0  0
   10.0172   -4.4740   17.4101 C   0  0  0  0  0  0  0  0  0  0  0  0
    6.9051   -7.9575   16.4222 C   0  0  0  0  0  0  0  0  0  0  0  0
    8.9969   -6.3552   17.9668 N   0  0  0  0  0  0  0  0  0  0  0  0
   10.6702   -3.9051   22.4070 C   0  0  0  0  0  0  0  0  0  0  0  0
   11.0625   -3.0028   18.8894 C   0  0  0  0  0  0  0  0  0  0  0  0
    5.6180   -7.9194   16.1754 O   0  0  0  0  0  0  0  0  0  0  0  0
    9.7259   -5.3080   18.4485 C   0  0  0  0  0  0  0  0  0  0  0  0
    9.4578   -5.0200   16.3036 N   0  0  0  0  0  0  0  0  0  0  0  0
    5.0287   -8.9365   16.8223 C   0  0  0  0  0  0  0  0  0  0  0  0
    8.7742   -6.1498   16.6764 C   0  0  0  0  0  0  0  0  0  0  0  0
   10.9418   -3.4032   21.2053 O   0  0  0  0  0  0  0  0  0  0  0  0
    1.4797   -8.6258   16.2950 C   0  0  0  0  0  0  0  0  0  0  0  0
    9.2861   -1.2743   25.3585 C   0  0  0  0  0  0  0  0  0  0  0  0
    1.8892  -10.3985   17.7511 N   0  0  0  0  0  0  0  0  0  0  0  0
    9.6210   -0.6952   24.0976 C   0  0  0  0  0  0  0  0  0  0  0  0
    7.0792   -9.0217   17.1429 C   0  0  0  0  0  0  0  0  0  0  0  0
    3.1713  -10.1816   17.6634 C   0  0  0  0  0  0  0  0  0  0  0  0
    2.7878   -8.3822   16.2137 C   0  0  0  0  0  0  0  0  0  0  0  0
    9.4601   -2.6590   25.6528 C   0  0  0  0  0  0  0  0  0  0  0  0
   10.1182   -1.5672   23.1165 C   0  0  0  0  0  0  0  0  0  0  0  0
    1.0552   -9.6360   17.0650 C   0  0  0  0  0  0  0  0  0  0  0  0
    3.6519   -9.1783   16.9039 C   0  0  0  0  0  0  0  0  0  0  0  0
    7.8675   -7.0096   15.9415 C   0  0  0  0  0  0  0  0  0  0  0  0
    5.9733   -9.6553   17.3832 N   0  0  0  0  0  0  0  0  0  0  0  0
   10.2411   -2.9363   23.4301 C   0  0  0  0  0  0  0  0  0  0  0  0
   10.7288   -3.8197   19.9525 C   0  0  0  0  0  0  0  0  0  0  0  0
   10.1189   -5.0054   19.6987 C   0  0  0  0  0  0  0  0  0  0  0  0
  1  3  4  0
  1  7  4  0
  2 21  4  0
  2 27  4  0
  3  9  4  0
  3 10  4  0
  4  8  4  0
  4 18  4  0
  4 25  1  0
  5  9  4  0
  5 12  4  0
  6 13  1  0
  6 27  1  0
  7 28  4  0
  8 11  4  0
  9 29  4  0
 10 12  4  0
 11 24  1  0
 11 26  4  0
 12 25  1  0
 13 28  1  0
 14 20  4  0
 14 23  4  0
 15 17  4  0
 15 21  4  0
 16 19  4  0
 16 23  4  0
 17 22  4  0
 18 26  4  0
 19 24  4  0
 20 24  4  0
 22 27  4  0
 28 29  4  0
M  END
$$$$

 Created by Python create_sdf_string function

 29 33  0  0  0  0  0  0  0  0999 V2000
   10.7215   -3.3326   17.6437 C   0  0  0  0  0  0  0  0  0  0  0  0
    9.9489   -3.4675   24.6487 N   0  0  0  0  0  0  0  0  0  0  0  0
   10.0172   -4.4740   17.4101 C   0  0  0  0  0  0  0  0  0  0  0  0
    6.9051   -7.9575   16.4222 C   0  0  0  0  0  0  0  0  0  0  0  0
    8.9969   -6.3552   17.9668 N   0  0  0  0  0  0  0  0  0  0  0  0
   10.6702   -3.9051   22.4070 C   0  0  0  0  0  0  0  0  0  0  0  0
   11.0625   -3.0028   18.8894 C   0  0  0  0  0  0  0  0  0  0  0  0
    5.6180   -7.9194   16.1754 O   0  0  0  0  0  0  0  0  0  0  0  0
    9.7259   -5.3080   18.4485 C   0  0  0  0  0  0  0  0  0  0  0  0
    9.4578   -5.0200   16.3036 N   0  0  0  0  0  0  0  0  0  0  0  0
    5.0287   -8.9365   16.8223 C   0  0  0  0  0  0  0  0  0  0  0  0
    8.7742   -6.1498   16.6764 C   0  0  0  0  0  0  0  0  0  0  0  0
   10.9418   -3.4032   21.2053 O   0  0  0  0  0  0  0  0  0  0  0  0
    1.4797   -8.6258   16.2950 C   0  0  0  0  0  0  0  0  0  0  0  0
    9.2861   -1.2743   25.3585 C   0  0  0  0  0  0  0  0  0  0  0  0
    1.8892  -10.3985   17.7511 N   0  0  0  0  0  0  0  0  0  0  0  0
    9.6210   -0.6952   24.0976 C   0  0  0  0  0  0  0  0  0  0  0  0
    7.0792   -9.0217   17.1429 C   0  0  0  0  0  0  0  0  0  0  0  0
    3.1713  -10.1816   17.6634 C   0  0  0  0  0  0  0  0  0  0  0  0
    2.7878   -8.3822   16.2137 C   0  0  0  0  0  0  0  0  0  0  0  0
    9.4601   -2.6590   25.6528 C   0  0  0  0  0  0  0  0  0  0  0  0
   10.1182   -1.5672   23.1165 C   0  0  0  0  0  0  0  0  0  0  0  0
    1.0552   -9.6360   17.0650 C   0  0  0  0  0  0  0  0  0  0  0  0
    3.6519   -9.1783   16.9039 C   0  0  0  0  0  0  0  0  0  0  0  0
    7.8675   -7.0096   15.9415 C   0  0  0  0  0  0  0  0  0  0  0  0
    5.9733   -9.6553   17.3832 N   0  0  0  0  0  0  0  0  0  0  0  0
   10.2411   -2.9363   23.4301 C   0  0  0  0  0  0  0  0  0  0  0  0
   10.7288   -3.8197   19.9525 C   0  0  0  0  0  0  0  0  0  0  0  0
   10.1189   -5.0054   19.6987 C   0  0  0  0  0  0  0  0  0  0  0  0
  1  3  4  0
  1  7  4  0
  2 21  4  0
  2 27  4  0
  3  9  4  0
  3 10  4  0
  4  8  4  0
  4 18  4  0
  4 25  1  0
  5  9  4  0
  5 12  4  0
  6 13  1  0
  6 27  1  0
  7 28  4  0
  8 11  4  0
  9 29  4  0
 10 12  4  0
 11 24  1  0
 11 26  4  0
 12 25  1  0
 13 28  1  0
 14 20  4  0
 14 23  4  0
 15 17  4  0
 15 21  4  0
 16 19  4  0
 16 23  4  0
 17 22  4  0
 18 26  4  0
 19 24  4  0
 20 24  4  0
 22 27  4  0
 28 29  4  0
M  END
$$$$

 Created by Python create_sdf_string function

 29 33  0  0  0  0  0  0  0  0999 V2000
   10.7215   -3.3326   17.6437 C   0  0  0  0  0  0  0  0  0  0  0  0
    9.9489   -3.4675   24.6487 N   0  0  0  0  0  0  0  0  0  0  0  0
   10.0172   -4.4740   17.4101 C   0  0  0  0  0  0  0  0  0  0  0  0
    6.9051   -7.9575   16.4222 C   0  0  0  0  0  0  0  0  0  0  0  0
    8.9969   -6.3552   17.9668 N   0  0  0  0  0  0  0  0  0  0  0  0
   10.6702   -3.9051   22.4070 C   0  0  0  0  0  0  0  0  0  0  0  0
   11.0625   -3.0028   18.8894 C   0  0  0  0  0  0  0  0  0  0  0  0
    5.6180   -7.9194   16.1754 O   0  0  0  0  0  0  0  0  0  0  0  0
    9.7259   -5.3080   18.4485 C   0  0  0  0  0  0  0  0  0  0  0  0
    9.4578   -5.0200   16.3036 N   0  0  0  0  0  0  0  0  0  0  0  0
    5.0287   -8.9365   16.8223 C   0  0  0  0  0  0  0  0  0  0  0  0
    8.7742   -6.1498   16.6764 C   0  0  0  0  0  0  0  0  0  0  0  0
   10.9418   -3.4032   21.2053 O   0  0  0  0  0  0  0  0  0  0  0  0
    1.4797   -8.6258   16.2950 C   0  0  0  0  0  0  0  0  0  0  0  0
    9.2861   -1.2743   25.3585 C   0  0  0  0  0  0  0  0  0  0  0  0
    1.8892  -10.3985   17.7511 N   0  0  0  0  0  0  0  0  0  0  0  0
    9.6210   -0.6952   24.0976 C   0  0  0  0  0  0  0  0  0  0  0  0
    7.0792   -9.0217   17.1429 C   0  0  0  0  0  0  0  0  0  0  0  0
    3.1713  -10.1816   17.6634 C   0  0  0  0  0  0  0  0  0  0  0  0
    2.7878   -8.3822   16.2137 C   0  0  0  0  0  0  0  0  0  0  0  0
    9.4601   -2.6590   25.6528 C   0  0  0  0  0  0  0  0  0  0  0  0
   10.1182   -1.5672   23.1165 C   0  0  0  0  0  0  0  0  0  0  0  0
    1.0552   -9.6360   17.0650 C   0  0  0  0  0  0  0  0  0  0  0  0
    3.6519   -9.1783   16.9039 C   0  0  0  0  0  0  0  0  0  0  0  0
    7.8675   -7.0096   15.9415 C   0  0  0  0  0  0  0  0  0  0  0  0
    5.9733   -9.6553   17.3832 N   0  0  0  0  0  0  0  0  0  0  0  0
   10.2411   -2.9363   23.4301 C   0  0  0  0  0  0  0  0  0  0  0  0
   10.7288   -3.8197   19.9525 C   0  0  0  0  0  0  0  0  0  0  0  0
   10.1189   -5.0054   19.6987 C   0  0  0  0  0  0  0  0  0  0  0  0
  1  3  4  0
  1  7  4  0
  2 21  4  0
  2 27  4  0
  3  9  4  0
  3 10  4  0
  4  8  4  0
  4 18  4  0
  4 25  1  0
  5  9  4  0
  5 12  4  0
  6 13  1  0
  6 27  1  0
  7 28  4  0
  8 11  4  0
  9 29  4  0
 10 12  4  0
 11 24  1  0
 11 26  4  0
 12 25  1  0
 13 28  1  0
 14 20  4  0
 14 23  4  0
 15 17  4  0
 15 21  4  0
 16 19  4  0
 16 23  4  0
 17 22  4  0
 18 26  4  0
 19 24  4  0
 20 24  4  0
 22 27  4  0
 28 29  4  0
M  END
$$$$

 Created by Python create_sdf_string function

 29 33  0  0  0  0  0  0  0  0999 V2000
   10.7215   -3.3326   17.6437 C   0  0  0  0  0  0  0  0  0  0  0  0
    9.9489   -3.4675   24.6487 N   0  0  0  0  0  0  0  0  0  0  0  0
   10.0172   -4.4740   17.4101 C   0  0  0  0  0  0  0  0  0  0  0  0
    6.9051   -7.9575   16.4222 C   0  0  0  0  0  0  0  0  0  0  0  0
    8.9969   -6.3552   17.9668 N   0  0  0  0  0  0  0  0  0  0  0  0
   10.6702   -3.9051   22.4070 C   0  0  0  0  0  0  0  0  0  0  0  0
   11.0625   -3.0028   18.8894 C   0  0  0  0  0  0  0  0  0  0  0  0
    5.6180   -7.9194   16.1754 O   0  0  0  0  0  0  0  0  0  0  0  0
    9.7259   -5.3080   18.4485 C   0  0  0  0  0  0  0  0  0  0  0  0
    9.4578   -5.0200   16.3036 N   0  0  0  0  0  0  0  0  0  0  0  0
    5.0287   -8.9365   16.8223 C   0  0  0  0  0  0  0  0  0  0  0  0
    8.7742   -6.1498   16.6764 C   0  0  0  0  0  0  0  0  0  0  0  0
   10.9418   -3.4032   21.2053 O   0  0  0  0  0  0  0  0  0  0  0  0
    1.4797   -8.6258   16.2950 C   0  0  0  0  0  0  0  0  0  0  0  0
    9.2861   -1.2743   25.3585 C   0  0  0  0  0  0  0  0  0  0  0  0
    1.8892  -10.3985   17.7511 N   0  0  0  0  0  0  0  0  0  0  0  0
    9.6210   -0.6952   24.0976 C   0  0  0  0  0  0  0  0  0  0  0  0
    7.0792   -9.0217   17.1429 C   0  0  0  0  0  0  0  0  0  0  0  0
    3.1713  -10.1816   17.6634 C   0  0  0  0  0  0  0  0  0  0  0  0
    2.7878   -8.3822   16.2137 C   0  0  0  0  0  0  0  0  0  0  0  0
    9.4601   -2.6590   25.6528 C   0  0  0  0  0  0  0  0  0  0  0  0
   10.1182   -1.5672   23.1165 C   0  0  0  0  0  0  0  0  0  0  0  0
    1.0552   -9.6360   17.0650 C   0  0  0  0  0  0  0  0  0  0  0  0
    3.6519   -9.1783   16.9039 C   0  0  0  0  0  0  0  0  0  0  0  0
    7.8675   -7.0096   15.9415 C   0  0  0  0  0  0  0  0  0  0  0  0
    5.9733   -9.6553   17.3832 N   0  0  0  0  0  0  0  0  0  0  0  0
   10.2411   -2.9363   23.4301 C   0  0  0  0  0  0  0  0  0  0  0  0
   10.7288   -3.8197   19.9525 C   0  0  0  0  0  0  0  0  0  0  0  0
   10.1189   -5.0054   19.6987 C   0  0  0  0  0  0  0  0  0  0  0  0
  1  3  4  0
  1  7  4  0
  2 21  4  0
  2 27  4  0
  3  9  4  0
  3 10  4  0
  4  8  4  0
  4 18  4  0
  4 25  1  0
  5  9  4  0
  5 12  4  0
  6 13  1  0
  6 27  1  0
  7 28  4  0
  8 11  4  0
  9 29  4  0
 10 12  4  0
 11 24  1  0
 11 26  4  0
 12 25  1  0
 13 28  1  0
 14 20  4  0
 14 23  4  0
 15 17  4  0
 15 21  4  0
 16 19  4  0
 16 23  4  0
 17 22  4  0
 18 26  4  0
 19 24  4  0
 20 24  4  0
 22 27  4  0
 28 29  4  0
M  END
$$$$

 Created by Python create_sdf_string function

 29 33  0  0  0  0  0  0  0  0999 V2000
   10.7215   -3.3326   17.6437 C   0  0  0  0  0  0  0  0  0  0  0  0
    9.9489   -3.4675   24.6487 N   0  0  0  0  0  0  0  0  0  0  0  0
   10.0172   -4.4740   17.4101 C   0  0  0  0  0  0  0  0  0  0  0  0
    6.9051   -7.9575   16.4222 C   0  0  0  0  0  0  0  0  0  0  0  0
    8.9969   -6.3552   17.9668 N   0  0  0  0  0  0  0  0  0  0  0  0
   10.6702   -3.9051   22.4070 C   0  0  0  0  0  0  0  0  0  0  0  0
   11.0625   -3.0028   18.8894 C   0  0  0  0  0  0  0  0  0  0  0  0
    5.6180   -7.9194   16.1754 O   0  0  0  0  0  0  0  0  0  0  0  0
    9.7259   -5.3080   18.4485 C   0  0  0  0  0  0  0  0  0  0  0  0
    9.4578   -5.0200   16.3036 N   0  0  0  0  0  0  0  0  0  0  0  0
    5.0287   -8.9365   16.8223 C   0  0  0  0  0  0  0  0  0  0  0  0
    8.7742   -6.1498   16.6764 C   0  0  0  0  0  0  0  0  0  0  0  0
   10.9418   -3.4032   21.2053 O   0  0  0  0  0  0  0  0  0  0  0  0
    1.4797   -8.6258   16.2950 C   0  0  0  0  0  0  0  0  0  0  0  0
    9.2861   -1.2743   25.3585 C   0  0  0  0  0  0  0  0  0  0  0  0
    1.8892  -10.3985   17.7511 N   0  0  0  0  0  0  0  0  0  0  0  0
    9.6210   -0.6952   24.0976 C   0  0  0  0  0  0  0  0  0  0  0  0
    7.0792   -9.0217   17.1429 C   0  0  0  0  0  0  0  0  0  0  0  0
    3.1713  -10.1816   17.6634 C   0  0  0  0  0  0  0  0  0  0  0  0
    2.7878   -8.3822   16.2137 C   0  0  0  0  0  0  0  0  0  0  0  0
    9.4601   -2.6590   25.6528 C   0  0  0  0  0  0  0  0  0  0  0  0
   10.1182   -1.5672   23.1165 C   0  0  0  0  0  0  0  0  0  0  0  0
    1.0552   -9.6360   17.0650 C   0  0  0  0  0  0  0  0  0  0  0  0
    3.6519   -9.1783   16.9039 C   0  0  0  0  0  0  0  0  0  0  0  0
    7.8675   -7.0096   15.9415 C   0  0  0  0  0  0  0  0  0  0  0  0
    5.9733   -9.6553   17.3832 N   0  0  0  0  0  0  0  0  0  0  0  0
   10.2411   -2.9363   23.4301 C   0  0  0  0  0  0  0  0  0  0  0  0
   10.7288   -3.8197   19.9525 C   0  0  0  0  0  0  0  0  0  0  0  0
   10.1189   -5.0054   19.6987 C   0  0  0  0  0  0  0  0  0  0  0  0
  1  3  4  0
  1  7  4  0
  2 21  4  0
  2 27  4  0
  3  9  4  0
  3 10  4  0
  4  8  4  0
  4 18  4  0
  4 25  1  0
  5  9  4  0
  5 12  4  0
  6 13  1  0
  6 27  1  0
  7 28  4  0
  8 11  4  0
  9 29  4  0
 10 12  4  0
 11 24  1  0
 11 26  4  0
 12 25  1  0
 13 28  1  0
 14 20  4  0
 14 23  4  0
 15 17  4  0
 15 21  4  0
 16 19  4  0
 16 23  4  0
 17 22  4  0
 18 26  4  0
 19 24  4  0
 20 24  4  0
 22 27  4  0
 28 29  4  0
M  END
$$$$

 Created by Python create_sdf_string function

 29 33  0  0  0  0  0  0  0  0999 V2000
   10.7215   -3.3326   17.6437 C   0  0  0  0  0  0  0  0  0  0  0  0
    9.9489   -3.4675   24.6487 N   0  0  0  0  0  0  0  0  0  0  0  0
   10.0172   -4.4740   17.4101 C   0  0  0  0  0  0  0  0  0  0  0  0
    6.9051   -7.9575   16.4222 C   0  0  0  0  0  0  0  0  0  0  0  0
    8.9969   -6.3552   17.9668 N   0  0  0  0  0  0  0  0  0  0  0  0
   10.6702   -3.9051   22.4070 C   0  0  0  0  0  0  0  0  0  0  0  0
   11.0625   -3.0028   18.8894 C   0  0  0  0  0  0  0  0  0  0  0  0
    5.6180   -7.9194   16.1754 O   0  0  0  0  0  0  0  0  0  0  0  0
    9.7259   -5.3080   18.4485 C   0  0  0  0  0  0  0  0  0  0  0  0
    9.4578   -5.0200   16.3036 N   0  0  0  0  0  0  0  0  0  0  0  0
    5.0287   -8.9365   16.8223 C   0  0  0  0  0  0  0  0  0  0  0  0
    8.7742   -6.1498   16.6764 C   0  0  0  0  0  0  0  0  0  0  0  0
   10.9418   -3.4032   21.2053 O   0  0  0  0  0  0  0  0  0  0  0  0
    1.4797   -8.6258   16.2950 C   0  0  0  0  0  0  0  0  0  0  0  0
    9.2861   -1.2743   25.3585 C   0  0  0  0  0  0  0  0  0  0  0  0
    1.8892  -10.3985   17.7511 N   0  0  0  0  0  0  0  0  0  0  0  0
    9.6210   -0.6952   24.0976 C   0  0  0  0  0  0  0  0  0  0  0  0
    7.0792   -9.0217   17.1429 C   0  0  0  0  0  0  0  0  0  0  0  0
    3.1713  -10.1816   17.6634 C   0  0  0  0  0  0  0  0  0  0  0  0
    2.7878   -8.3822   16.2137 C   0  0  0  0  0  0  0  0  0  0  0  0
    9.4601   -2.6590   25.6528 C   0  0  0  0  0  0  0  0  0  0  0  0
   10.1182   -1.5672   23.1165 C   0  0  0  0  0  0  0  0  0  0  0  0
    1.0552   -9.6360   17.0650 C   0  0  0  0  0  0  0  0  0  0  0  0
    3.6519   -9.1783   16.9039 C   0  0  0  0  0  0  0  0  0  0  0  0
    7.8675   -7.0096   15.9415 C   0  0  0  0  0  0  0  0  0  0  0  0
    5.9733   -9.6553   17.3832 N   0  0  0  0  0  0  0  0  0  0  0  0
   10.2411   -2.9363   23.4301 C   0  0  0  0  0  0  0  0  0  0  0  0
   10.7288   -3.8197   19.9525 C   0  0  0  0  0  0  0  0  0  0  0  0
   10.1189   -5.0054   19.6987 C   0  0  0  0  0  0  0  0  0  0  0  0
  1  3  4  0
  1  7  4  0
  2 21  4  0
  2 27  4  0
  3  9  4  0
  3 10  4  0
  4  8  4  0
  4 18  4  0
  4 25  1  0
  5  9  4  0
  5 12  4  0
  6 13  1  0
  6 27  1  0
  7 28  4  0
  8 11  4  0
  9 29  4  0
 10 12  4  0
 11 24  1  0
 11 26  4  0
 12 25  1  0
 13 28  1  0
 14 20  4  0
 14 23  4  0
 15 17  4  0
 15 21  4  0
 16 19  4  0
 16 23  4  0
 17 22  4  0
 18 26  4  0
 19 24  4  0
 20 24  4  0
 22 27  4  0
 28 29  4  0
M  END
$$$$

 Created by Python create_sdf_string function

 29 33  0  0  0  0  0  0  0  0999 V2000
   10.7215   -3.3326   17.6437 C   0  0  0  0  0  0  0  0  0  0  0  0
    9.9489   -3.4675   24.6487 N   0  0  0  0  0  0  0  0  0  0  0  0
   10.0172   -4.4740   17.4101 C   0  0  0  0  0  0  0  0  0  0  0  0
    6.9051   -7.9575   16.4222 C   0  0  0  0  0  0  0  0  0  0  0  0
    8.9969   -6.3552   17.9668 N   0  0  0  0  0  0  0  0  0  0  0  0
   10.6702   -3.9051   22.4070 C   0  0  0  0  0  0  0  0  0  0  0  0
   11.0625   -3.0028   18.8894 C   0  0  0  0  0  0  0  0  0  0  0  0
    5.6180   -7.9194   16.1754 O   0  0  0  0  0  0  0  0  0  0  0  0
    9.7259   -5.3080   18.4485 C   0  0  0  0  0  0  0  0  0  0  0  0
    9.4578   -5.0200   16.3036 N   0  0  0  0  0  0  0  0  0  0  0  0
    5.0287   -8.9365   16.8223 C   0  0  0  0  0  0  0  0  0  0  0  0
    8.7742   -6.1498   16.6764 C   0  0  0  0  0  0  0  0  0  0  0  0
   10.9418   -3.4032   21.2053 O   0  0  0  0  0  0  0  0  0  0  0  0
    1.4797   -8.6258   16.2950 C   0  0  0  0  0  0  0  0  0  0  0  0
    9.2861   -1.2743   25.3585 C   0  0  0  0  0  0  0  0  0  0  0  0
    1.8892  -10.3985   17.7511 N   0  0  0  0  0  0  0  0  0  0  0  0
    9.6210   -0.6952   24.0976 C   0  0  0  0  0  0  0  0  0  0  0  0
    7.0792   -9.0217   17.1429 C   0  0  0  0  0  0  0  0  0  0  0  0
    3.1713  -10.1816   17.6634 C   0  0  0  0  0  0  0  0  0  0  0  0
    2.7878   -8.3822   16.2137 C   0  0  0  0  0  0  0  0  0  0  0  0
    9.4601   -2.6590   25.6528 C   0  0  0  0  0  0  0  0  0  0  0  0
   10.1182   -1.5672   23.1165 C   0  0  0  0  0  0  0  0  0  0  0  0
    1.0552   -9.6360   17.0650 C   0  0  0  0  0  0  0  0  0  0  0  0
    3.6519   -9.1783   16.9039 C   0  0  0  0  0  0  0  0  0  0  0  0
    7.8675   -7.0096   15.9415 C   0  0  0  0  0  0  0  0  0  0  0  0
    5.9733   -9.6553   17.3832 N   0  0  0  0  0  0  0  0  0  0  0  0
   10.2411   -2.9363   23.4301 C   0  0  0  0  0  0  0  0  0  0  0  0
   10.7288   -3.8197   19.9525 C   0  0  0  0  0  0  0  0  0  0  0  0
   10.1189   -5.0054   19.6987 C   0  0  0  0  0  0  0  0  0  0  0  0
  1  3  4  0
  1  7  4  0
  2 21  4  0
  2 27  4  0
  3  9  4  0
  3 10  4  0
  4  8  4  0
  4 18  4  0
  4 25  1  0
  5  9  4  0
  5 12  4  0
  6 13  1  0
  6 27  1  0
  7 28  4  0
  8 11  4  0
  9 29  4  0
 10 12  4  0
 11 24  1  0
 11 26  4  0
 12 25  1  0
 13 28  1  0
 14 20  4  0
 14 23  4  0
 15 17  4  0
 15 21  4  0
 16 19  4  0
 16 23  4  0
 17 22  4  0
 18 26  4  0
 19 24  4  0
 20 24  4  0
 22 27  4  0
 28 29  4  0
M  END
$$$$

 Created by Python create_sdf_string function

 29 33  0  0  0  0  0  0  0  0999 V2000
   10.7215   -3.3326   17.6437 C   0  0  0  0  0  0  0  0  0  0  0  0
    9.9489   -3.4675   24.6487 N   0  0  0  0  0  0  0  0  0  0  0  0
   10.0172   -4.4740   17.4101 C   0  0  0  0  0  0  0  0  0  0  0  0
    6.9051   -7.9575   16.4222 C   0  0  0  0  0  0  0  0  0  0  0  0
    8.9969   -6.3552   17.9668 N   0  0  0  0  0  0  0  0  0  0  0  0
   10.6702   -3.9051   22.4070 C   0  0  0  0  0  0  0  0  0  0  0  0
   11.0625   -3.0028   18.8894 C   0  0  0  0  0  0  0  0  0  0  0  0
    5.6180   -7.9194   16.1754 O   0  0  0  0  0  0  0  0  0  0  0  0
    9.7259   -5.3080   18.4485 C   0  0  0  0  0  0  0  0  0  0  0  0
    9.4578   -5.0200   16.3036 N   0  0  0  0  0  0  0  0  0  0  0  0
    5.0287   -8.9365   16.8223 C   0  0  0  0  0  0  0  0  0  0  0  0
    8.7742   -6.1498   16.6764 C   0  0  0  0  0  0  0  0  0  0  0  0
   10.9418   -3.4032   21.2053 O   0  0  0  0  0  0  0  0  0  0  0  0
    1.4797   -8.6258   16.2950 C   0  0  0  0  0  0  0  0  0  0  0  0
    9.2861   -1.2743   25.3585 C   0  0  0  0  0  0  0  0  0  0  0  0
    1.8892  -10.3985   17.7511 N   0  0  0  0  0  0  0  0  0  0  0  0
    9.6210   -0.6952   24.0976 C   0  0  0  0  0  0  0  0  0  0  0  0
    7.0792   -9.0217   17.1429 C   0  0  0  0  0  0  0  0  0  0  0  0
    3.1713  -10.1816   17.6634 C   0  0  0  0  0  0  0  0  0  0  0  0
    2.7878   -8.3822   16.2137 C   0  0  0  0  0  0  0  0  0  0  0  0
    9.4601   -2.6590   25.6528 C   0  0  0  0  0  0  0  0  0  0  0  0
   10.1182   -1.5672   23.1165 C   0  0  0  0  0  0  0  0  0  0  0  0
    1.0552   -9.6360   17.0650 C   0  0  0  0  0  0  0  0  0  0  0  0
    3.6519   -9.1783   16.9039 C   0  0  0  0  0  0  0  0  0  0  0  0
    7.8675   -7.0096   15.9415 C   0  0  0  0  0  0  0  0  0  0  0  0
    5.9733   -9.6553   17.3832 N   0  0  0  0  0  0  0  0  0  0  0  0
   10.2411   -2.9363   23.4301 C   0  0  0  0  0  0  0  0  0  0  0  0
   10.7288   -3.8197   19.9525 C   0  0  0  0  0  0  0  0  0  0  0  0
   10.1189   -5.0054   19.6987 C   0  0  0  0  0  0  0  0  0  0  0  0
  1  3  4  0
  1  7  4  0
  2 21  4  0
  2 27  4  0
  3  9  4  0
  3 10  4  0
  4  8  4  0
  4 18  4  0
  4 25  1  0
  5  9  4  0
  5 12  4  0
  6 13  1  0
  6 27  1  0
  7 28  4  0
  8 11  4  0
  9 29  4  0
 10 12  4  0
 11 24  1  0
 11 26  4  0
 12 25  1  0
 13 28  1  0
 14 20  4  0
 14 23  4  0
 15 17  4  0
 15 21  4  0
 16 19  4  0
 16 23  4  0
 17 22  4  0
 18 26  4  0
 19 24  4  0
 20 24  4  0
 22 27  4  0
 28 29  4  0
M  END
$$$$

 Created by Python create_sdf_string function

 29 33  0  0  0  0  0  0  0  0999 V2000
   10.7215   -3.3326   17.6437 C   0  0  0  0  0  0  0  0  0  0  0  0
    9.9489   -3.4675   24.6487 N   0  0  0  0  0  0  0  0  0  0  0  0
   10.0172   -4.4740   17.4101 C   0  0  0  0  0  0  0  0  0  0  0  0
    6.9051   -7.9575   16.4222 C   0  0  0  0  0  0  0  0  0  0  0  0
    8.9969   -6.3552   17.9668 N   0  0  0  0  0  0  0  0  0  0  0  0
   10.6702   -3.9051   22.4070 C   0  0  0  0  0  0  0  0  0  0  0  0
   11.0625   -3.0028   18.8894 C   0  0  0  0  0  0  0  0  0  0  0  0
    5.6180   -7.9194   16.1754 O   0  0  0  0  0  0  0  0  0  0  0  0
    9.7259   -5.3080   18.4485 C   0  0  0  0  0  0  0  0  0  0  0  0
    9.4578   -5.0200   16.3036 N   0  0  0  0  0  0  0  0  0  0  0  0
    5.0287   -8.9365   16.8223 C   0  0  0  0  0  0  0  0  0  0  0  0
    8.7742   -6.1498   16.6764 C   0  0  0  0  0  0  0  0  0  0  0  0
   10.9418   -3.4032   21.2053 O   0  0  0  0  0  0  0  0  0  0  0  0
    1.4797   -8.6258   16.2950 C   0  0  0  0  0  0  0  0  0  0  0  0
    9.2861   -1.2743   25.3585 C   0  0  0  0  0  0  0  0  0  0  0  0
    1.8892  -10.3985   17.7511 N   0  0  0  0  0  0  0  0  0  0  0  0
    9.6210   -0.6952   24.0976 C   0  0  0  0  0  0  0  0  0  0  0  0
    7.0792   -9.0217   17.1429 C   0  0  0  0  0  0  0  0  0  0  0  0
    3.1713  -10.1816   17.6634 C   0  0  0  0  0  0  0  0  0  0  0  0
    2.7878   -8.3822   16.2137 C   0  0  0  0  0  0  0  0  0  0  0  0
    9.4601   -2.6590   25.6528 C   0  0  0  0  0  0  0  0  0  0  0  0
   10.1182   -1.5672   23.1165 C   0  0  0  0  0  0  0  0  0  0  0  0
    1.0552   -9.6360   17.0650 C   0  0  0  0  0  0  0  0  0  0  0  0
    3.6519   -9.1783   16.9039 C   0  0  0  0  0  0  0  0  0  0  0  0
    7.8675   -7.0096   15.9415 C   0  0  0  0  0  0  0  0  0  0  0  0
    5.9733   -9.6553   17.3832 N   0  0  0  0  0  0  0  0  0  0  0  0
   10.2411   -2.9363   23.4301 C   0  0  0  0  0  0  0  0  0  0  0  0
   10.7288   -3.8197   19.9525 C   0  0  0  0  0  0  0  0  0  0  0  0
   10.1189   -5.0054   19.6987 C   0  0  0  0  0  0  0  0  0  0  0  0
  1  3  4  0
  1  7  4  0
  2 21  4  0
  2 27  4  0
  3  9  4  0
  3 10  4  0
  4  8  4  0
  4 18  4  0
  4 25  1  0
  5  9  4  0
  5 12  4  0
  6 13  1  0
  6 27  1  0
  7 28  4  0
  8 11  4  0
  9 29  4  0
 10 12  4  0
 11 24  1  0
 11 26  4  0
 12 25  1  0
 13 28  1  0
 14 20  4  0
 14 23  4  0
 15 17  4  0
 15 21  4  0
 16 19  4  0
 16 23  4  0
 17 22  4  0
 18 26  4  0
 19 24  4  0
 20 24  4  0
 22 27  4  0
 28 29  4  0
M  END
$$$$

 Created by Python create_sdf_string function

 29 33  0  0  0  0  0  0  0  0999 V2000
   10.7215   -3.3326   17.6437 C   0  0  0  0  0  0  0  0  0  0  0  0
    9.9489   -3.4675   24.6487 N   0  0  0  0  0  0  0  0  0  0  0  0
   10.0172   -4.4740   17.4101 C   0  0  0  0  0  0  0  0  0  0  0  0
    6.9051   -7.9575   16.4222 C   0  0  0  0  0  0  0  0  0  0  0  0
    8.9969   -6.3552   17.9668 N   0  0  0  0  0  0  0  0  0  0  0  0
   10.6702   -3.9051   22.4070 C   0  0  0  0  0  0  0  0  0  0  0  0
   11.0625   -3.0028   18.8894 C   0  0  0  0  0  0  0  0  0  0  0  0
    5.6180   -7.9194   16.1754 O   0  0  0  0  0  0  0  0  0  0  0  0
    9.7259   -5.3080   18.4485 C   0  0  0  0  0  0  0  0  0  0  0  0
    9.4578   -5.0200   16.3036 N   0  0  0  0  0  0  0  0  0  0  0  0
    5.0287   -8.9365   16.8223 C   0  0  0  0  0  0  0  0  0  0  0  0
    8.7742   -6.1498   16.6764 C   0  0  0  0  0  0  0  0  0  0  0  0
   10.9418   -3.4032   21.2053 O   0  0  0  0  0  0  0  0  0  0  0  0
    1.4797   -8.6258   16.2950 C   0  0  0  0  0  0  0  0  0  0  0  0
    9.2861   -1.2743   25.3585 C   0  0  0  0  0  0  0  0  0  0  0  0
    1.8892  -10.3985   17.7511 N   0  0  0  0  0  0  0  0  0  0  0  0
    9.6210   -0.6952   24.0976 C   0  0  0  0  0  0  0  0  0  0  0  0
    7.0792   -9.0217   17.1429 C   0  0  0  0  0  0  0  0  0  0  0  0
    3.1713  -10.1816   17.6634 C   0  0  0  0  0  0  0  0  0  0  0  0
    2.7878   -8.3822   16.2137 C   0  0  0  0  0  0  0  0  0  0  0  0
    9.4601   -2.6590   25.6528 C   0  0  0  0  0  0  0  0  0  0  0  0
   10.1182   -1.5672   23.1165 C   0  0  0  0  0  0  0  0  0  0  0  0
    1.0552   -9.6360   17.0650 C   0  0  0  0  0  0  0  0  0  0  0  0
    3.6519   -9.1783   16.9039 C   0  0  0  0  0  0  0  0  0  0  0  0
    7.8675   -7.0096   15.9415 C   0  0  0  0  0  0  0  0  0  0  0  0
    5.9733   -9.6553   17.3832 N   0  0  0  0  0  0  0  0  0  0  0  0
   10.2411   -2.9363   23.4301 C   0  0  0  0  0  0  0  0  0  0  0  0
   10.7288   -3.8197   19.9525 C   0  0  0  0  0  0  0  0  0  0  0  0
   10.1189   -5.0054   19.6987 C   0  0  0  0  0  0  0  0  0  0  0  0
  1  3  4  0
  1  7  4  0
  2 21  4  0
  2 27  4  0
  3  9  4  0
  3 10  4  0
  4  8  4  0
  4 18  4  0
  4 25  1  0
  5  9  4  0
  5 12  4  0
  6 13  1  0
  6 27  1  0
  7 28  4  0
  8 11  4  0
  9 29  4  0
 10 12  4  0
 11 24  1  0
 11 26  4  0
 12 25  1  0
 13 28  1  0
 14 20  4  0
 14 23  4  0
 15 17  4  0
 15 21  4  0
 16 19  4  0
 16 23  4  0
 17 22  4  0
 18 26  4  0
 19 24  4  0
 20 24  4  0
 22 27  4  0
 28 29  4  0
M  END
$$$$

 Created by Python create_sdf_string function

 29 33  0  0  0  0  0  0  0  0999 V2000
   10.7215   -3.3326   17.6437 C   0  0  0  0  0  0  0  0  0  0  0  0
    9.9489   -3.4675   24.6487 N   0  0  0  0  0  0  0  0  0  0  0  0
   10.0172   -4.4740   17.4101 C   0  0  0  0  0  0  0  0  0  0  0  0
    6.9051   -7.9575   16.4222 C   0  0  0  0  0  0  0  0  0  0  0  0
    8.9969   -6.3552   17.9668 N   0  0  0  0  0  0  0  0  0  0  0  0
   10.6702   -3.9051   22.4070 C   0  0  0  0  0  0  0  0  0  0  0  0
   11.0625   -3.0028   18.8894 C   0  0  0  0  0  0  0  0  0  0  0  0
    5.6180   -7.9194   16.1754 O   0  0  0  0  0  0  0  0  0  0  0  0
    9.7259   -5.3080   18.4485 C   0  0  0  0  0  0  0  0  0  0  0  0
    9.4578   -5.0200   16.3036 N   0  0  0  0  0  0  0  0  0  0  0  0
    5.0287   -8.9365   16.8223 C   0  0  0  0  0  0  0  0  0  0  0  0
    8.7742   -6.1498   16.6764 C   0  0  0  0  0  0  0  0  0  0  0  0
   10.9418   -3.4032   21.2053 O   0  0  0  0  0  0  0  0  0  0  0  0
    1.4797   -8.6258   16.2950 C   0  0  0  0  0  0  0  0  0  0  0  0
    9.2861   -1.2743   25.3585 C   0  0  0  0  0  0  0  0  0  0  0  0
    1.8892  -10.3985   17.7511 N   0  0  0  0  0  0  0  0  0  0  0  0
    9.6210   -0.6952   24.0976 C   0  0  0  0  0  0  0  0  0  0  0  0
    7.0792   -9.0217   17.1429 C   0  0  0  0  0  0  0  0  0  0  0  0
    3.1713  -10.1816   17.6634 C   0  0  0  0  0  0  0  0  0  0  0  0
    2.7878   -8.3822   16.2137 C   0  0  0  0  0  0  0  0  0  0  0  0
    9.4601   -2.6590   25.6528 C   0  0  0  0  0  0  0  0  0  0  0  0
   10.1182   -1.5672   23.1165 C   0  0  0  0  0  0  0  0  0  0  0  0
    1.0552   -9.6360   17.0650 C   0  0  0  0  0  0  0  0  0  0  0  0
    3.6519   -9.1783   16.9039 C   0  0  0  0  0  0  0  0  0  0  0  0
    7.8675   -7.0096   15.9415 C   0  0  0  0  0  0  0  0  0  0  0  0
    5.9733   -9.6553   17.3832 N   0  0  0  0  0  0  0  0  0  0  0  0
   10.2411   -2.9363   23.4301 C   0  0  0  0  0  0  0  0  0  0  0  0
   10.7288   -3.8197   19.9525 C   0  0  0  0  0  0  0  0  0  0  0  0
   10.1189   -5.0054   19.6987 C   0  0  0  0  0  0  0  0  0  0  0  0
  1  3  4  0
  1  7  4  0
  2 21  4  0
  2 27  4  0
  3  9  4  0
  3 10  4  0
  4  8  4  0
  4 18  4  0
  4 25  1  0
  5  9  4  0
  5 12  4  0
  6 13  1  0
  6 27  1  0
  7 28  4  0
  8 11  4  0
  9 29  4  0
 10 12  4  0
 11 24  1  0
 11 26  4  0
 12 25  1  0
 13 28  1  0
 14 20  4  0
 14 23  4  0
 15 17  4  0
 15 21  4  0
 16 19  4  0
 16 23  4  0
 17 22  4  0
 18 26  4  0
 19 24  4  0
 20 24  4  0
 22 27  4  0
 28 29  4  0
M  END
$$$$

 Created by Python create_sdf_string function

 29 33  0  0  0  0  0  0  0  0999 V2000
   10.7215   -3.3326   17.6437 C   0  0  0  0  0  0  0  0  0  0  0  0
    9.9489   -3.4675   24.6487 N   0  0  0  0  0  0  0  0  0  0  0  0
   10.0172   -4.4740   17.4101 C   0  0  0  0  0  0  0  0  0  0  0  0
    6.9051   -7.9575   16.4222 C   0  0  0  0  0  0  0  0  0  0  0  0
    8.9969   -6.3552   17.9668 N   0  0  0  0  0  0  0  0  0  0  0  0
   10.6702   -3.9051   22.4070 C   0  0  0  0  0  0  0  0  0  0  0  0
   11.0625   -3.0028   18.8894 C   0  0  0  0  0  0  0  0  0  0  0  0
    5.6180   -7.9194   16.1754 O   0  0  0  0  0  0  0  0  0  0  0  0
    9.7259   -5.3080   18.4485 C   0  0  0  0  0  0  0  0  0  0  0  0
    9.4578   -5.0200   16.3036 N   0  0  0  0  0  0  0  0  0  0  0  0
    5.0287   -8.9365   16.8223 C   0  0  0  0  0  0  0  0  0  0  0  0
    8.7742   -6.1498   16.6764 C   0  0  0  0  0  0  0  0  0  0  0  0
   10.9418   -3.4032   21.2053 O   0  0  0  0  0  0  0  0  0  0  0  0
    1.4797   -8.6258   16.2950 C   0  0  0  0  0  0  0  0  0  0  0  0
    9.2861   -1.2743   25.3585 C   0  0  0  0  0  0  0  0  0  0  0  0
    1.8892  -10.3985   17.7511 N   0  0  0  0  0  0  0  0  0  0  0  0
    9.6210   -0.6952   24.0976 C   0  0  0  0  0  0  0  0  0  0  0  0
    7.0792   -9.0217   17.1429 C   0  0  0  0  0  0  0  0  0  0  0  0
    3.1713  -10.1816   17.6634 C   0  0  0  0  0  0  0  0  0  0  0  0
    2.7878   -8.3822   16.2137 C   0  0  0  0  0  0  0  0  0  0  0  0
    9.4601   -2.6590   25.6528 C   0  0  0  0  0  0  0  0  0  0  0  0
   10.1182   -1.5672   23.1165 C   0  0  0  0  0  0  0  0  0  0  0  0
    1.0552   -9.6360   17.0650 C   0  0  0  0  0  0  0  0  0  0  0  0
    3.6519   -9.1783   16.9039 C   0  0  0  0  0  0  0  0  0  0  0  0
    7.8675   -7.0096   15.9415 C   0  0  0  0  0  0  0  0  0  0  0  0
    5.9733   -9.6553   17.3832 N   0  0  0  0  0  0  0  0  0  0  0  0
   10.2411   -2.9363   23.4301 C   0  0  0  0  0  0  0  0  0  0  0  0
   10.7288   -3.8197   19.9525 C   0  0  0  0  0  0  0  0  0  0  0  0
   10.1189   -5.0054   19.6987 C   0  0  0  0  0  0  0  0  0  0  0  0
  1  3  4  0
  1  7  4  0
  2 21  4  0
  2 27  4  0
  3  9  4  0
  3 10  4  0
  4  8  4  0
  4 18  4  0
  4 25  1  0
  5  9  4  0
  5 12  4  0
  6 13  1  0
  6 27  1  0
  7 28  4  0
  8 11  4  0
  9 29  4  0
 10 12  4  0
 11 24  1  0
 11 26  4  0
 12 25  1  0
 13 28  1  0
 14 20  4  0
 14 23  4  0
 15 17  4  0
 15 21  4  0
 16 19  4  0
 16 23  4  0
 17 22  4  0
 18 26  4  0
 19 24  4  0
 20 24  4  0
 22 27  4  0
 28 29  4  0
M  END
$$$$

 Created by Python create_sdf_string function

 29 33  0  0  0  0  0  0  0  0999 V2000
   10.7215   -3.3326   17.6437 C   0  0  0  0  0  0  0  0  0  0  0  0
    9.9489   -3.4675   24.6487 N   0  0  0  0  0  0  0  0  0  0  0  0
   10.0172   -4.4740   17.4101 C   0  0  0  0  0  0  0  0  0  0  0  0
    6.9051   -7.9575   16.4222 C   0  0  0  0  0  0  0  0  0  0  0  0
    8.9969   -6.3552   17.9668 N   0  0  0  0  0  0  0  0  0  0  0  0
   10.6702   -3.9051   22.4070 C   0  0  0  0  0  0  0  0  0  0  0  0
   11.0625   -3.0028   18.8894 C   0  0  0  0  0  0  0  0  0  0  0  0
    5.6180   -7.9194   16.1754 O   0  0  0  0  0  0  0  0  0  0  0  0
    9.7259   -5.3080   18.4485 C   0  0  0  0  0  0  0  0  0  0  0  0
    9.4578   -5.0200   16.3036 N   0  0  0  0  0  0  0  0  0  0  0  0
    5.0287   -8.9365   16.8223 C   0  0  0  0  0  0  0  0  0  0  0  0
    8.7742   -6.1498   16.6764 C   0  0  0  0  0  0  0  0  0  0  0  0
   10.9418   -3.4032   21.2053 O   0  0  0  0  0  0  0  0  0  0  0  0
    1.4797   -8.6258   16.2950 C   0  0  0  0  0  0  0  0  0  0  0  0
    9.2861   -1.2743   25.3585 C   0  0  0  0  0  0  0  0  0  0  0  0
    1.8892  -10.3985   17.7511 N   0  0  0  0  0  0  0  0  0  0  0  0
    9.6210   -0.6952   24.0976 C   0  0  0  0  0  0  0  0  0  0  0  0
    7.0792   -9.0217   17.1429 C   0  0  0  0  0  0  0  0  0  0  0  0
    3.1713  -10.1816   17.6634 C   0  0  0  0  0  0  0  0  0  0  0  0
    2.7878   -8.3822   16.2137 C   0  0  0  0  0  0  0  0  0  0  0  0
    9.4601   -2.6590   25.6528 C   0  0  0  0  0  0  0  0  0  0  0  0
   10.1182   -1.5672   23.1165 C   0  0  0  0  0  0  0  0  0  0  0  0
    1.0552   -9.6360   17.0650 C   0  0  0  0  0  0  0  0  0  0  0  0
    3.6519   -9.1783   16.9039 C   0  0  0  0  0  0  0  0  0  0  0  0
    7.8675   -7.0096   15.9415 C   0  0  0  0  0  0  0  0  0  0  0  0
    5.9733   -9.6553   17.3832 N   0  0  0  0  0  0  0  0  0  0  0  0
   10.2411   -2.9363   23.4301 C   0  0  0  0  0  0  0  0  0  0  0  0
   10.7288   -3.8197   19.9525 C   0  0  0  0  0  0  0  0  0  0  0  0
   10.1189   -5.0054   19.6987 C   0  0  0  0  0  0  0  0  0  0  0  0
  1  3  4  0
  1  7  4  0
  2 21  4  0
  2 27  4  0
  3  9  4  0
  3 10  4  0
  4  8  4  0
  4 18  4  0
  4 25  1  0
  5  9  4  0
  5 12  4  0
  6 13  1  0
  6 27  1  0
  7 28  4  0
  8 11  4  0
  9 29  4  0
 10 12  4  0
 11 24  1  0
 11 26  4  0
 12 25  1  0
 13 28  1  0
 14 20  4  0
 14 23  4  0
 15 17  4  0
 15 21  4  0
 16 19  4  0
 16 23  4  0
 17 22  4  0
 18 26  4  0
 19 24  4  0
 20 24  4  0
 22 27  4  0
 28 29  4  0
M  END
$$$$

 Created by Python create_sdf_string function

 29 33  0  0  0  0  0  0  0  0999 V2000
   10.7215   -3.3326   17.6437 C   0  0  0  0  0  0  0  0  0  0  0  0
    9.9489   -3.4675   24.6487 N   0  0  0  0  0  0  0  0  0  0  0  0
   10.0172   -4.4740   17.4101 C   0  0  0  0  0  0  0  0  0  0  0  0
    6.9051   -7.9575   16.4222 C   0  0  0  0  0  0  0  0  0  0  0  0
    8.9969   -6.3552   17.9668 N   0  0  0  0  0  0  0  0  0  0  0  0
   10.6702   -3.9051   22.4070 C   0  0  0  0  0  0  0  0  0  0  0  0
   11.0625   -3.0028   18.8894 C   0  0  0  0  0  0  0  0  0  0  0  0
    5.6180   -7.9194   16.1754 O   0  0  0  0  0  0  0  0  0  0  0  0
    9.7259   -5.3080   18.4485 C   0  0  0  0  0  0  0  0  0  0  0  0
    9.4578   -5.0200   16.3036 N   0  0  0  0  0  0  0  0  0  0  0  0
    5.0287   -8.9365   16.8223 C   0  0  0  0  0  0  0  0  0  0  0  0
    8.7742   -6.1498   16.6764 C   0  0  0  0  0  0  0  0  0  0  0  0
   10.9418   -3.4032   21.2053 O   0  0  0  0  0  0  0  0  0  0  0  0
    1.4797   -8.6258   16.2950 C   0  0  0  0  0  0  0  0  0  0  0  0
    9.2861   -1.2743   25.3585 C   0  0  0  0  0  0  0  0  0  0  0  0
    1.8892  -10.3985   17.7511 N   0  0  0  0  0  0  0  0  0  0  0  0
    9.6210   -0.6952   24.0976 C   0  0  0  0  0  0  0  0  0  0  0  0
    7.0792   -9.0217   17.1429 C   0  0  0  0  0  0  0  0  0  0  0  0
    3.1713  -10.1816   17.6634 C   0  0  0  0  0  0  0  0  0  0  0  0
    2.7878   -8.3822   16.2137 C   0  0  0  0  0  0  0  0  0  0  0  0
    9.4601   -2.6590   25.6528 C   0  0  0  0  0  0  0  0  0  0  0  0
   10.1182   -1.5672   23.1165 C   0  0  0  0  0  0  0  0  0  0  0  0
    1.0552   -9.6360   17.0650 C   0  0  0  0  0  0  0  0  0  0  0  0
    3.6519   -9.1783   16.9039 C   0  0  0  0  0  0  0  0  0  0  0  0
    7.8675   -7.0096   15.9415 C   0  0  0  0  0  0  0  0  0  0  0  0
    5.9733   -9.6553   17.3832 N   0  0  0  0  0  0  0  0  0  0  0  0
   10.2411   -2.9363   23.4301 C   0  0  0  0  0  0  0  0  0  0  0  0
   10.7288   -3.8197   19.9525 C   0  0  0  0  0  0  0  0  0  0  0  0
   10.1189   -5.0054   19.6987 C   0  0  0  0  0  0  0  0  0  0  0  0
  1  3  4  0
  1  7  4  0
  2 21  4  0
  2 27  4  0
  3  9  4  0
  3 10  4  0
  4  8  4  0
  4 18  4  0
  4 25  1  0
  5  9  4  0
  5 12  4  0
  6 13  1  0
  6 27  1  0
  7 28  4  0
  8 11  4  0
  9 29  4  0
 10 12  4  0
 11 24  1  0
 11 26  4  0
 12 25  1  0
 13 28  1  0
 14 20  4  0
 14 23  4  0
 15 17  4  0
 15 21  4  0
 16 19  4  0
 16 23  4  0
 17 22  4  0
 18 26  4  0
 19 24  4  0
 20 24  4  0
 22 27  4  0
 28 29  4  0
M  END
$$$$

 Created by Python create_sdf_string function

 29 33  0  0  0  0  0  0  0  0999 V2000
   10.7215   -3.3326   17.6437 C   0  0  0  0  0  0  0  0  0  0  0  0
    9.9489   -3.4675   24.6487 N   0  0  0  0  0  0  0  0  0  0  0  0
   10.0172   -4.4740   17.4101 C   0  0  0  0  0  0  0  0  0  0  0  0
    6.9051   -7.9575   16.4222 C   0  0  0  0  0  0  0  0  0  0  0  0
    8.9969   -6.3552   17.9668 N   0  0  0  0  0  0  0  0  0  0  0  0
   10.6702   -3.9051   22.4070 C   0  0  0  0  0  0  0  0  0  0  0  0
   11.0625   -3.0028   18.8894 C   0  0  0  0  0  0  0  0  0  0  0  0
    5.6180   -7.9194   16.1754 O   0  0  0  0  0  0  0  0  0  0  0  0
    9.7259   -5.3080   18.4485 C   0  0  0  0  0  0  0  0  0  0  0  0
    9.4578   -5.0200   16.3036 N   0  0  0  0  0  0  0  0  0  0  0  0
    5.0287   -8.9365   16.8223 C   0  0  0  0  0  0  0  0  0  0  0  0
    8.7742   -6.1498   16.6764 C   0  0  0  0  0  0  0  0  0  0  0  0
   10.9418   -3.4032   21.2053 O   0  0  0  0  0  0  0  0  0  0  0  0
    1.4797   -8.6258   16.2950 C   0  0  0  0  0  0  0  0  0  0  0  0
    9.2861   -1.2743   25.3585 C   0  0  0  0  0  0  0  0  0  0  0  0
    1.8892  -10.3985   17.7511 N   0  0  0  0  0  0  0  0  0  0  0  0
    9.6210   -0.6952   24.0976 C   0  0  0  0  0  0  0  0  0  0  0  0
    7.0792   -9.0217   17.1429 C   0  0  0  0  0  0  0  0  0  0  0  0
    3.1713  -10.1816   17.6634 C   0  0  0  0  0  0  0  0  0  0  0  0
    2.7878   -8.3822   16.2137 C   0  0  0  0  0  0  0  0  0  0  0  0
    9.4601   -2.6590   25.6528 C   0  0  0  0  0  0  0  0  0  0  0  0
   10.1182   -1.5672   23.1165 C   0  0  0  0  0  0  0  0  0  0  0  0
    1.0552   -9.6360   17.0650 C   0  0  0  0  0  0  0  0  0  0  0  0
    3.6519   -9.1783   16.9039 C   0  0  0  0  0  0  0  0  0  0  0  0
    7.8675   -7.0096   15.9415 C   0  0  0  0  0  0  0  0  0  0  0  0
    5.9733   -9.6553   17.3832 N   0  0  0  0  0  0  0  0  0  0  0  0
   10.2411   -2.9363   23.4301 C   0  0  0  0  0  0  0  0  0  0  0  0
   10.7288   -3.8197   19.9525 C   0  0  0  0  0  0  0  0  0  0  0  0
   10.1189   -5.0054   19.6987 C   0  0  0  0  0  0  0  0  0  0  0  0
  1  3  4  0
  1  7  4  0
  2 21  4  0
  2 27  4  0
  3  9  4  0
  3 10  4  0
  4  8  4  0
  4 18  4  0
  4 25  1  0
  5  9  4  0
  5 12  4  0
  6 13  1  0
  6 27  1  0
  7 28  4  0
  8 11  4  0
  9 29  4  0
 10 12  4  0
 11 24  1  0
 11 26  4  0
 12 25  1  0
 13 28  1  0
 14 20  4  0
 14 23  4  0
 15 17  4  0
 15 21  4  0
 16 19  4  0
 16 23  4  0
 17 22  4  0
 18 26  4  0
 19 24  4  0
 20 24  4  0
 22 27  4  0
 28 29  4  0
M  END
$$$$

 Created by Python create_sdf_string function

 29 33  0  0  0  0  0  0  0  0999 V2000
   10.7215   -3.3326   17.6437 C   0  0  0  0  0  0  0  0  0  0  0  0
    9.9489   -3.4675   24.6487 N   0  0  0  0  0  0  0  0  0  0  0  0
   10.0172   -4.4740   17.4101 C   0  0  0  0  0  0  0  0  0  0  0  0
    6.9051   -7.9575   16.4222 C   0  0  0  0  0  0  0  0  0  0  0  0
    8.9969   -6.3552   17.9668 N   0  0  0  0  0  0  0  0  0  0  0  0
   10.6702   -3.9051   22.4070 C   0  0  0  0  0  0  0  0  0  0  0  0
   11.0625   -3.0028   18.8894 C   0  0  0  0  0  0  0  0  0  0  0  0
    5.6180   -7.9194   16.1754 O   0  0  0  0  0  0  0  0  0  0  0  0
    9.7259   -5.3080   18.4485 C   0  0  0  0  0  0  0  0  0  0  0  0
    9.4578   -5.0200   16.3036 N   0  0  0  0  0  0  0  0  0  0  0  0
    5.0287   -8.9365   16.8223 C   0  0  0  0  0  0  0  0  0  0  0  0
    8.7742   -6.1498   16.6764 C   0  0  0  0  0  0  0  0  0  0  0  0
   10.9418   -3.4032   21.2053 O   0  0  0  0  0  0  0  0  0  0  0  0
    1.4797   -8.6258   16.2950 C   0  0  0  0  0  0  0  0  0  0  0  0
    9.2861   -1.2743   25.3585 C   0  0  0  0  0  0  0  0  0  0  0  0
    1.8892  -10.3985   17.7511 N   0  0  0  0  0  0  0  0  0  0  0  0
    9.6210   -0.6952   24.0976 C   0  0  0  0  0  0  0  0  0  0  0  0
    7.0792   -9.0217   17.1429 C   0  0  0  0  0  0  0  0  0  0  0  0
    3.1713  -10.1816   17.6634 C   0  0  0  0  0  0  0  0  0  0  0  0
    2.7878   -8.3822   16.2137 C   0  0  0  0  0  0  0  0  0  0  0  0
    9.4601   -2.6590   25.6528 C   0  0  0  0  0  0  0  0  0  0  0  0
   10.1182   -1.5672   23.1165 C   0  0  0  0  0  0  0  0  0  0  0  0
    1.0552   -9.6360   17.0650 C   0  0  0  0  0  0  0  0  0  0  0  0
    3.6519   -9.1783   16.9039 C   0  0  0  0  0  0  0  0  0  0  0  0
    7.8675   -7.0096   15.9415 C   0  0  0  0  0  0  0  0  0  0  0  0
    5.9733   -9.6553   17.3832 N   0  0  0  0  0  0  0  0  0  0  0  0
   10.2411   -2.9363   23.4301 C   0  0  0  0  0  0  0  0  0  0  0  0
   10.7288   -3.8197   19.9525 C   0  0  0  0  0  0  0  0  0  0  0  0
   10.1189   -5.0054   19.6987 C   0  0  0  0  0  0  0  0  0  0  0  0
  1  3  4  0
  1  7  4  0
  2 21  4  0
  2 27  4  0
  3  9  4  0
  3 10  4  0
  4  8  4  0
  4 18  4  0
  4 25  1  0
  5  9  4  0
  5 12  4  0
  6 13  1  0
  6 27  1  0
  7 28  4  0
  8 11  4  0
  9 29  4  0
 10 12  4  0
 11 24  1  0
 11 26  4  0
 12 25  1  0
 13 28  1  0
 14 20  4  0
 14 23  4  0
 15 17  4  0
 15 21  4  0
 16 19  4  0
 16 23  4  0
 17 22  4  0
 18 26  4  0
 19 24  4  0
 20 24  4  0
 22 27  4  0
 28 29  4  0
M  END
$$$$

 Created by Python create_sdf_string function

 29 33  0  0  0  0  0  0  0  0999 V2000
   10.7215   -3.3326   17.6437 C   0  0  0  0  0  0  0  0  0  0  0  0
    9.9489   -3.4675   24.6487 N   0  0  0  0  0  0  0  0  0  0  0  0
   10.0172   -4.4740   17.4101 C   0  0  0  0  0  0  0  0  0  0  0  0
    6.9051   -7.9575   16.4222 C   0  0  0  0  0  0  0  0  0  0  0  0
    8.9969   -6.3552   17.9668 N   0  0  0  0  0  0  0  0  0  0  0  0
   10.6702   -3.9051   22.4070 C   0  0  0  0  0  0  0  0  0  0  0  0
   11.0625   -3.0028   18.8894 C   0  0  0  0  0  0  0  0  0  0  0  0
    5.6180   -7.9194   16.1754 O   0  0  0  0  0  0  0  0  0  0  0  0
    9.7259   -5.3080   18.4485 C   0  0  0  0  0  0  0  0  0  0  0  0
    9.4578   -5.0200   16.3036 N   0  0  0  0  0  0  0  0  0  0  0  0
    5.0287   -8.9365   16.8223 C   0  0  0  0  0  0  0  0  0  0  0  0
    8.7742   -6.1498   16.6764 C   0  0  0  0  0  0  0  0  0  0  0  0
   10.9418   -3.4032   21.2053 O   0  0  0  0  0  0  0  0  0  0  0  0
    1.4797   -8.6258   16.2950 C   0  0  0  0  0  0  0  0  0  0  0  0
    9.2861   -1.2743   25.3585 C   0  0  0  0  0  0  0  0  0  0  0  0
    1.8892  -10.3985   17.7511 N   0  0  0  0  0  0  0  0  0  0  0  0
    9.6210   -0.6952   24.0976 C   0  0  0  0  0  0  0  0  0  0  0  0
    7.0792   -9.0217   17.1429 C   0  0  0  0  0  0  0  0  0  0  0  0
    3.1713  -10.1816   17.6634 C   0  0  0  0  0  0  0  0  0  0  0  0
    2.7878   -8.3822   16.2137 C   0  0  0  0  0  0  0  0  0  0  0  0
    9.4601   -2.6590   25.6528 C   0  0  0  0  0  0  0  0  0  0  0  0
   10.1182   -1.5672   23.1165 C   0  0  0  0  0  0  0  0  0  0  0  0
    1.0552   -9.6360   17.0650 C   0  0  0  0  0  0  0  0  0  0  0  0
    3.6519   -9.1783   16.9039 C   0  0  0  0  0  0  0  0  0  0  0  0
    7.8675   -7.0096   15.9415 C   0  0  0  0  0  0  0  0  0  0  0  0
    5.9733   -9.6553   17.3832 N   0  0  0  0  0  0  0  0  0  0  0  0
   10.2411   -2.9363   23.4301 C   0  0  0  0  0  0  0  0  0  0  0  0
   10.7288   -3.8197   19.9525 C   0  0  0  0  0  0  0  0  0  0  0  0
   10.1189   -5.0054   19.6987 C   0  0  0  0  0  0  0  0  0  0  0  0
  1  3  4  0
  1  7  4  0
  2 21  4  0
  2 27  4  0
  3  9  4  0
  3 10  4  0
  4  8  4  0
  4 18  4  0
  4 25  1  0
  5  9  4  0
  5 12  4  0
  6 13  1  0
  6 27  1  0
  7 28  4  0
  8 11  4  0
  9 29  4  0
 10 12  4  0
 11 24  1  0
 11 26  4  0
 12 25  1  0
 13 28  1  0
 14 20  4  0
 14 23  4  0
 15 17  4  0
 15 21  4  0
 16 19  4  0
 16 23  4  0
 17 22  4  0
 18 26  4  0
 19 24  4  0
 20 24  4  0
 22 27  4  0
 28 29  4  0
M  END
$$$$

 Created by Python create_sdf_string function

 29 33  0  0  0  0  0  0  0  0999 V2000
   10.7215   -3.3326   17.6437 C   0  0  0  0  0  0  0  0  0  0  0  0
    9.9489   -3.4675   24.6487 N   0  0  0  0  0  0  0  0  0  0  0  0
   10.0172   -4.4740   17.4101 C   0  0  0  0  0  0  0  0  0  0  0  0
    6.9051   -7.9575   16.4222 C   0  0  0  0  0  0  0  0  0  0  0  0
    8.9969   -6.3552   17.9668 N   0  0  0  0  0  0  0  0  0  0  0  0
   10.6702   -3.9051   22.4070 C   0  0  0  0  0  0  0  0  0  0  0  0
   11.0625   -3.0028   18.8894 C   0  0  0  0  0  0  0  0  0  0  0  0
    5.6180   -7.9194   16.1754 O   0  0  0  0  0  0  0  0  0  0  0  0
    9.7259   -5.3080   18.4485 C   0  0  0  0  0  0  0  0  0  0  0  0
    9.4578   -5.0200   16.3036 N   0  0  0  0  0  0  0  0  0  0  0  0
    5.0287   -8.9365   16.8223 C   0  0  0  0  0  0  0  0  0  0  0  0
    8.7742   -6.1498   16.6764 C   0  0  0  0  0  0  0  0  0  0  0  0
   10.9418   -3.4032   21.2053 O   0  0  0  0  0  0  0  0  0  0  0  0
    1.4797   -8.6258   16.2950 C   0  0  0  0  0  0  0  0  0  0  0  0
    9.2861   -1.2743   25.3585 C   0  0  0  0  0  0  0  0  0  0  0  0
    1.8892  -10.3985   17.7511 N   0  0  0  0  0  0  0  0  0  0  0  0
    9.6210   -0.6952   24.0976 C   0  0  0  0  0  0  0  0  0  0  0  0
    7.0792   -9.0217   17.1429 C   0  0  0  0  0  0  0  0  0  0  0  0
    3.1713  -10.1816   17.6634 C   0  0  0  0  0  0  0  0  0  0  0  0
    2.7878   -8.3822   16.2137 C   0  0  0  0  0  0  0  0  0  0  0  0
    9.4601   -2.6590   25.6528 C   0  0  0  0  0  0  0  0  0  0  0  0
   10.1182   -1.5672   23.1165 C   0  0  0  0  0  0  0  0  0  0  0  0
    1.0552   -9.6360   17.0650 C   0  0  0  0  0  0  0  0  0  0  0  0
    3.6519   -9.1783   16.9039 C   0  0  0  0  0  0  0  0  0  0  0  0
    7.8675   -7.0096   15.9415 C   0  0  0  0  0  0  0  0  0  0  0  0
    5.9733   -9.6553   17.3832 N   0  0  0  0  0  0  0  0  0  0  0  0
   10.2411   -2.9363   23.4301 C   0  0  0  0  0  0  0  0  0  0  0  0
   10.7288   -3.8197   19.9525 C   0  0  0  0  0  0  0  0  0  0  0  0
   10.1189   -5.0054   19.6987 C   0  0  0  0  0  0  0  0  0  0  0  0
  1  3  4  0
  1  7  4  0
  2 21  4  0
  2 27  4  0
  3  9  4  0
  3 10  4  0
  4  8  4  0
  4 18  4  0
  4 25  1  0
  5  9  4  0
  5 12  4  0
  6 13  1  0
  6 27  1  0
  7 28  4  0
  8 11  4  0
  9 29  4  0
 10 12  4  0
 11 24  1  0
 11 26  4  0
 12 25  1  0
 13 28  1  0
 14 20  4  0
 14 23  4  0
 15 17  4  0
 15 21  4  0
 16 19  4  0
 16 23  4  0
 17 22  4  0
 18 26  4  0
 19 24  4  0
 20 24  4  0
 22 27  4  0
 28 29  4  0
M  END
$$$$

 Created by Python create_sdf_string function

 29 33  0  0  0  0  0  0  0  0999 V2000
   10.7215   -3.3326   17.6437 C   0  0  0  0  0  0  0  0  0  0  0  0
    9.9489   -3.4675   24.6487 N   0  0  0  0  0  0  0  0  0  0  0  0
   10.0172   -4.4740   17.4101 C   0  0  0  0  0  0  0  0  0  0  0  0
    6.9051   -7.9575   16.4222 C   0  0  0  0  0  0  0  0  0  0  0  0
    8.9969   -6.3552   17.9668 N   0  0  0  0  0  0  0  0  0  0  0  0
   10.6702   -3.9051   22.4070 C   0  0  0  0  0  0  0  0  0  0  0  0
   11.0625   -3.0028   18.8894 C   0  0  0  0  0  0  0  0  0  0  0  0
    5.6180   -7.9194   16.1754 O   0  0  0  0  0  0  0  0  0  0  0  0
    9.7259   -5.3080   18.4485 C   0  0  0  0  0  0  0  0  0  0  0  0
    9.4578   -5.0200   16.3036 N   0  0  0  0  0  0  0  0  0  0  0  0
    5.0287   -8.9365   16.8223 C   0  0  0  0  0  0  0  0  0  0  0  0
    8.7742   -6.1498   16.6764 C   0  0  0  0  0  0  0  0  0  0  0  0
   10.9418   -3.4032   21.2053 O   0  0  0  0  0  0  0  0  0  0  0  0
    1.4797   -8.6258   16.2950 C   0  0  0  0  0  0  0  0  0  0  0  0
    9.2861   -1.2743   25.3585 C   0  0  0  0  0  0  0  0  0  0  0  0
    1.8892  -10.3985   17.7511 N   0  0  0  0  0  0  0  0  0  0  0  0
    9.6210   -0.6952   24.0976 C   0  0  0  0  0  0  0  0  0  0  0  0
    7.0792   -9.0217   17.1429 C   0  0  0  0  0  0  0  0  0  0  0  0
    3.1713  -10.1816   17.6634 C   0  0  0  0  0  0  0  0  0  0  0  0
    2.7878   -8.3822   16.2137 C   0  0  0  0  0  0  0  0  0  0  0  0
    9.4601   -2.6590   25.6528 C   0  0  0  0  0  0  0  0  0  0  0  0
   10.1182   -1.5672   23.1165 C   0  0  0  0  0  0  0  0  0  0  0  0
    1.0552   -9.6360   17.0650 C   0  0  0  0  0  0  0  0  0  0  0  0
    3.6519   -9.1783   16.9039 C   0  0  0  0  0  0  0  0  0  0  0  0
    7.8675   -7.0096   15.9415 C   0  0  0  0  0  0  0  0  0  0  0  0
    5.9733   -9.6553   17.3832 N   0  0  0  0  0  0  0  0  0  0  0  0
   10.2411   -2.9363   23.4301 C   0  0  0  0  0  0  0  0  0  0  0  0
   10.7288   -3.8197   19.9525 C   0  0  0  0  0  0  0  0  0  0  0  0
   10.1189   -5.0054   19.6987 C   0  0  0  0  0  0  0  0  0  0  0  0
  1  3  4  0
  1  7  4  0
  2 21  4  0
  2 27  4  0
  3  9  4  0
  3 10  4  0
  4  8  4  0
  4 18  4  0
  4 25  1  0
  5  9  4  0
  5 12  4  0
  6 13  1  0
  6 27  1  0
  7 28  4  0
  8 11  4  0
  9 29  4  0
 10 12  4  0
 11 24  1  0
 11 26  4  0
 12 25  1  0
 13 28  1  0
 14 20  4  0
 14 23  4  0
 15 17  4  0
 15 21  4  0
 16 19  4  0
 16 23  4  0
 17 22  4  0
 18 26  4  0
 19 24  4  0
 20 24  4  0
 22 27  4  0
 28 29  4  0
M  END
$$$$

 Created by Python create_sdf_string function

 29 33  0  0  0  0  0  0  0  0999 V2000
   10.7215   -3.3326   17.6437 C   0  0  0  0  0  0  0  0  0  0  0  0
    9.9489   -3.4675   24.6487 N   0  0  0  0  0  0  0  0  0  0  0  0
   10.0172   -4.4740   17.4101 C   0  0  0  0  0  0  0  0  0  0  0  0
    6.9051   -7.9575   16.4222 C   0  0  0  0  0  0  0  0  0  0  0  0
    8.9969   -6.3552   17.9668 N   0  0  0  0  0  0  0  0  0  0  0  0
   10.6702   -3.9051   22.4070 C   0  0  0  0  0  0  0  0  0  0  0  0
   11.0625   -3.0028   18.8894 C   0  0  0  0  0  0  0  0  0  0  0  0
    5.6180   -7.9194   16.1754 O   0  0  0  0  0  0  0  0  0  0  0  0
    9.7259   -5.3080   18.4485 C   0  0  0  0  0  0  0  0  0  0  0  0
    9.4578   -5.0200   16.3036 N   0  0  0  0  0  0  0  0  0  0  0  0
    5.0287   -8.9365   16.8223 C   0  0  0  0  0  0  0  0  0  0  0  0
    8.7742   -6.1498   16.6764 C   0  0  0  0  0  0  0  0  0  0  0  0
   10.9418   -3.4032   21.2053 O   0  0  0  0  0  0  0  0  0  0  0  0
    1.4797   -8.6258   16.2950 C   0  0  0  0  0  0  0  0  0  0  0  0
    9.2861   -1.2743   25.3585 C   0  0  0  0  0  0  0  0  0  0  0  0
    1.8892  -10.3985   17.7511 N   0  0  0  0  0  0  0  0  0  0  0  0
    9.6210   -0.6952   24.0976 C   0  0  0  0  0  0  0  0  0  0  0  0
    7.0792   -9.0217   17.1429 C   0  0  0  0  0  0  0  0  0  0  0  0
    3.1713  -10.1816   17.6634 C   0  0  0  0  0  0  0  0  0  0  0  0
    2.7878   -8.3822   16.2137 C   0  0  0  0  0  0  0  0  0  0  0  0
    9.4601   -2.6590   25.6528 C   0  0  0  0  0  0  0  0  0  0  0  0
   10.1182   -1.5672   23.1165 C   0  0  0  0  0  0  0  0  0  0  0  0
    1.0552   -9.6360   17.0650 C   0  0  0  0  0  0  0  0  0  0  0  0
    3.6519   -9.1783   16.9039 C   0  0  0  0  0  0  0  0  0  0  0  0
    7.8675   -7.0096   15.9415 C   0  0  0  0  0  0  0  0  0  0  0  0
    5.9733   -9.6553   17.3832 N   0  0  0  0  0  0  0  0  0  0  0  0
   10.2411   -2.9363   23.4301 C   0  0  0  0  0  0  0  0  0  0  0  0
   10.7288   -3.8197   19.9525 C   0  0  0  0  0  0  0  0  0  0  0  0
   10.1189   -5.0054   19.6987 C   0  0  0  0  0  0  0  0  0  0  0  0
  1  3  4  0
  1  7  4  0
  2 21  4  0
  2 27  4  0
  3  9  4  0
  3 10  4  0
  4  8  4  0
  4 18  4  0
  4 25  1  0
  5  9  4  0
  5 12  4  0
  6 13  1  0
  6 27  1  0
  7 28  4  0
  8 11  4  0
  9 29  4  0
 10 12  4  0
 11 24  1  0
 11 26  4  0
 12 25  1  0
 13 28  1  0
 14 20  4  0
 14 23  4  0
 15 17  4  0
 15 21  4  0
 16 19  4  0
 16 23  4  0
 17 22  4  0
 18 26  4  0
 19 24  4  0
 20 24  4  0
 22 27  4  0
 28 29  4  0
M  END
$$$$

 Created by Python create_sdf_string function

 29 33  0  0  0  0  0  0  0  0999 V2000
   10.7215   -3.3326   17.6437 C   0  0  0  0  0  0  0  0  0  0  0  0
    9.9489   -3.4675   24.6487 N   0  0  0  0  0  0  0  0  0  0  0  0
   10.0172   -4.4740   17.4101 C   0  0  0  0  0  0  0  0  0  0  0  0
    6.9051   -7.9575   16.4222 C   0  0  0  0  0  0  0  0  0  0  0  0
    8.9969   -6.3552   17.9668 N   0  0  0  0  0  0  0  0  0  0  0  0
   10.6702   -3.9051   22.4070 C   0  0  0  0  0  0  0  0  0  0  0  0
   11.0625   -3.0028   18.8894 C   0  0  0  0  0  0  0  0  0  0  0  0
    5.6180   -7.9194   16.1754 O   0  0  0  0  0  0  0  0  0  0  0  0
    9.7259   -5.3080   18.4485 C   0  0  0  0  0  0  0  0  0  0  0  0
    9.4578   -5.0200   16.3036 N   0  0  0  0  0  0  0  0  0  0  0  0
    5.0287   -8.9365   16.8223 C   0  0  0  0  0  0  0  0  0  0  0  0
    8.7742   -6.1498   16.6764 C   0  0  0  0  0  0  0  0  0  0  0  0
   10.9418   -3.4032   21.2053 O   0  0  0  0  0  0  0  0  0  0  0  0
    1.4797   -8.6258   16.2950 C   0  0  0  0  0  0  0  0  0  0  0  0
    9.2861   -1.2743   25.3585 C   0  0  0  0  0  0  0  0  0  0  0  0
    1.8892  -10.3985   17.7511 N   0  0  0  0  0  0  0  0  0  0  0  0
    9.6210   -0.6952   24.0976 C   0  0  0  0  0  0  0  0  0  0  0  0
    7.0792   -9.0217   17.1429 C   0  0  0  0  0  0  0  0  0  0  0  0
    3.1713  -10.1816   17.6634 C   0  0  0  0  0  0  0  0  0  0  0  0
    2.7878   -8.3822   16.2137 C   0  0  0  0  0  0  0  0  0  0  0  0
    9.4601   -2.6590   25.6528 C   0  0  0  0  0  0  0  0  0  0  0  0
   10.1182   -1.5672   23.1165 C   0  0  0  0  0  0  0  0  0  0  0  0
    1.0552   -9.6360   17.0650 C   0  0  0  0  0  0  0  0  0  0  0  0
    3.6519   -9.1783   16.9039 C   0  0  0  0  0  0  0  0  0  0  0  0
    7.8675   -7.0096   15.9415 C   0  0  0  0  0  0  0  0  0  0  0  0
    5.9733   -9.6553   17.3832 N   0  0  0  0  0  0  0  0  0  0  0  0
   10.2411   -2.9363   23.4301 C   0  0  0  0  0  0  0  0  0  0  0  0
   10.7288   -3.8197   19.9525 C   0  0  0  0  0  0  0  0  0  0  0  0
   10.1189   -5.0054   19.6987 C   0  0  0  0  0  0  0  0  0  0  0  0
  1  3  4  0
  1  7  4  0
  2 21  4  0
  2 27  4  0
  3  9  4  0
  3 10  4  0
  4  8  4  0
  4 18  4  0
  4 25  1  0
  5  9  4  0
  5 12  4  0
  6 13  1  0
  6 27  1  0
  7 28  4  0
  8 11  4  0
  9 29  4  0
 10 12  4  0
 11 24  1  0
 11 26  4  0
 12 25  1  0
 13 28  1  0
 14 20  4  0
 14 23  4  0
 15 17  4  0
 15 21  4  0
 16 19  4  0
 16 23  4  0
 17 22  4  0
 18 26  4  0
 19 24  4  0
 20 24  4  0
 22 27  4  0
 28 29  4  0
M  END
$$$$

 Created by Python create_sdf_string function

 29 33  0  0  0  0  0  0  0  0999 V2000
   10.7215   -3.3326   17.6437 C   0  0  0  0  0  0  0  0  0  0  0  0
    9.9489   -3.4675   24.6487 N   0  0  0  0  0  0  0  0  0  0  0  0
   10.0172   -4.4740   17.4101 C   0  0  0  0  0  0  0  0  0  0  0  0
    6.9051   -7.9575   16.4222 C   0  0  0  0  0  0  0  0  0  0  0  0
    8.9969   -6.3552   17.9668 N   0  0  0  0  0  0  0  0  0  0  0  0
   10.6702   -3.9051   22.4070 C   0  0  0  0  0  0  0  0  0  0  0  0
   11.0625   -3.0028   18.8894 C   0  0  0  0  0  0  0  0  0  0  0  0
    5.6180   -7.9194   16.1754 O   0  0  0  0  0  0  0  0  0  0  0  0
    9.7259   -5.3080   18.4485 C   0  0  0  0  0  0  0  0  0  0  0  0
    9.4578   -5.0200   16.3036 N   0  0  0  0  0  0  0  0  0  0  0  0
    5.0287   -8.9365   16.8223 C   0  0  0  0  0  0  0  0  0  0  0  0
    8.7742   -6.1498   16.6764 C   0  0  0  0  0  0  0  0  0  0  0  0
   10.9418   -3.4032   21.2053 O   0  0  0  0  0  0  0  0  0  0  0  0
    1.4797   -8.6258   16.2950 C   0  0  0  0  0  0  0  0  0  0  0  0
    9.2861   -1.2743   25.3585 C   0  0  0  0  0  0  0  0  0  0  0  0
    1.8892  -10.3985   17.7511 N   0  0  0  0  0  0  0  0  0  0  0  0
    9.6210   -0.6952   24.0976 C   0  0  0  0  0  0  0  0  0  0  0  0
    7.0792   -9.0217   17.1429 C   0  0  0  0  0  0  0  0  0  0  0  0
    3.1713  -10.1816   17.6634 C   0  0  0  0  0  0  0  0  0  0  0  0
    2.7878   -8.3822   16.2137 C   0  0  0  0  0  0  0  0  0  0  0  0
    9.4601   -2.6590   25.6528 C   0  0  0  0  0  0  0  0  0  0  0  0
   10.1182   -1.5672   23.1165 C   0  0  0  0  0  0  0  0  0  0  0  0
    1.0552   -9.6360   17.0650 C   0  0  0  0  0  0  0  0  0  0  0  0
    3.6519   -9.1783   16.9039 C   0  0  0  0  0  0  0  0  0  0  0  0
    7.8675   -7.0096   15.9415 C   0  0  0  0  0  0  0  0  0  0  0  0
    5.9733   -9.6553   17.3832 N   0  0  0  0  0  0  0  0  0  0  0  0
   10.2411   -2.9363   23.4301 C   0  0  0  0  0  0  0  0  0  0  0  0
   10.7288   -3.8197   19.9525 C   0  0  0  0  0  0  0  0  0  0  0  0
   10.1189   -5.0054   19.6987 C   0  0  0  0  0  0  0  0  0  0  0  0
  1  3  4  0
  1  7  4  0
  2 21  4  0
  2 27  4  0
  3  9  4  0
  3 10  4  0
  4  8  4  0
  4 18  4  0
  4 25  1  0
  5  9  4  0
  5 12  4  0
  6 13  1  0
  6 27  1  0
  7 28  4  0
  8 11  4  0
  9 29  4  0
 10 12  4  0
 11 24  1  0
 11 26  4  0
 12 25  1  0
 13 28  1  0
 14 20  4  0
 14 23  4  0
 15 17  4  0
 15 21  4  0
 16 19  4  0
 16 23  4  0
 17 22  4  0
 18 26  4  0
 19 24  4  0
 20 24  4  0
 22 27  4  0
 28 29  4  0
M  END
$$$$

 Created by Python create_sdf_string function

 29 33  0  0  0  0  0  0  0  0999 V2000
   10.7215   -3.3326   17.6437 C   0  0  0  0  0  0  0  0  0  0  0  0
    9.9489   -3.4675   24.6487 N   0  0  0  0  0  0  0  0  0  0  0  0
   10.0172   -4.4740   17.4101 C   0  0  0  0  0  0  0  0  0  0  0  0
    6.9051   -7.9575   16.4222 C   0  0  0  0  0  0  0  0  0  0  0  0
    8.9969   -6.3552   17.9668 N   0  0  0  0  0  0  0  0  0  0  0  0
   10.6702   -3.9051   22.4070 C   0  0  0  0  0  0  0  0  0  0  0  0
   11.0625   -3.0028   18.8894 C   0  0  0  0  0  0  0  0  0  0  0  0
    5.6180   -7.9194   16.1754 O   0  0  0  0  0  0  0  0  0  0  0  0
    9.7259   -5.3080   18.4485 C   0  0  0  0  0  0  0  0  0  0  0  0
    9.4578   -5.0200   16.3036 N   0  0  0  0  0  0  0  0  0  0  0  0
    5.0287   -8.9365   16.8223 C   0  0  0  0  0  0  0  0  0  0  0  0
    8.7742   -6.1498   16.6764 C   0  0  0  0  0  0  0  0  0  0  0  0
   10.9418   -3.4032   21.2053 O   0  0  0  0  0  0  0  0  0  0  0  0
    1.4797   -8.6258   16.2950 C   0  0  0  0  0  0  0  0  0  0  0  0
    9.2861   -1.2743   25.3585 C   0  0  0  0  0  0  0  0  0  0  0  0
    1.8892  -10.3985   17.7511 N   0  0  0  0  0  0  0  0  0  0  0  0
    9.6210   -0.6952   24.0976 C   0  0  0  0  0  0  0  0  0  0  0  0
    7.0792   -9.0217   17.1429 C   0  0  0  0  0  0  0  0  0  0  0  0
    3.1713  -10.1816   17.6634 C   0  0  0  0  0  0  0  0  0  0  0  0
    2.7878   -8.3822   16.2137 C   0  0  0  0  0  0  0  0  0  0  0  0
    9.4601   -2.6590   25.6528 C   0  0  0  0  0  0  0  0  0  0  0  0
   10.1182   -1.5672   23.1165 C   0  0  0  0  0  0  0  0  0  0  0  0
    1.0552   -9.6360   17.0650 C   0  0  0  0  0  0  0  0  0  0  0  0
    3.6519   -9.1783   16.9039 C   0  0  0  0  0  0  0  0  0  0  0  0
    7.8675   -7.0096   15.9415 C   0  0  0  0  0  0  0  0  0  0  0  0
    5.9733   -9.6553   17.3832 N   0  0  0  0  0  0  0  0  0  0  0  0
   10.2411   -2.9363   23.4301 C   0  0  0  0  0  0  0  0  0  0  0  0
   10.7288   -3.8197   19.9525 C   0  0  0  0  0  0  0  0  0  0  0  0
   10.1189   -5.0054   19.6987 C   0  0  0  0  0  0  0  0  0  0  0  0
  1  3  4  0
  1  7  4  0
  2 21  4  0
  2 27  4  0
  3  9  4  0
  3 10  4  0
  4  8  4  0
  4 18  4  0
  4 25  1  0
  5  9  4  0
  5 12  4  0
  6 13  1  0
  6 27  1  0
  7 28  4  0
  8 11  4  0
  9 29  4  0
 10 12  4  0
 11 24  1  0
 11 26  4  0
 12 25  1  0
 13 28  1  0
 14 20  4  0
 14 23  4  0
 15 17  4  0
 15 21  4  0
 16 19  4  0
 16 23  4  0
 17 22  4  0
 18 26  4  0
 19 24  4  0
 20 24  4  0
 22 27  4  0
 28 29  4  0
M  END
$$$$

 Created by Python create_sdf_string function

 29 33  0  0  0  0  0  0  0  0999 V2000
   10.7215   -3.3326   17.6437 C   0  0  0  0  0  0  0  0  0  0  0  0
    9.9489   -3.4675   24.6487 N   0  0  0  0  0  0  0  0  0  0  0  0
   10.0172   -4.4740   17.4101 C   0  0  0  0  0  0  0  0  0  0  0  0
    6.9051   -7.9575   16.4222 C   0  0  0  0  0  0  0  0  0  0  0  0
    8.9969   -6.3552   17.9668 N   0  0  0  0  0  0  0  0  0  0  0  0
   10.6702   -3.9051   22.4070 C   0  0  0  0  0  0  0  0  0  0  0  0
   11.0625   -3.0028   18.8894 C   0  0  0  0  0  0  0  0  0  0  0  0
    5.6180   -7.9194   16.1754 O   0  0  0  0  0  0  0  0  0  0  0  0
    9.7259   -5.3080   18.4485 C   0  0  0  0  0  0  0  0  0  0  0  0
    9.4578   -5.0200   16.3036 N   0  0  0  0  0  0  0  0  0  0  0  0
    5.0287   -8.9365   16.8223 C   0  0  0  0  0  0  0  0  0  0  0  0
    8.7742   -6.1498   16.6764 C   0  0  0  0  0  0  0  0  0  0  0  0
   10.9418   -3.4032   21.2053 O   0  0  0  0  0  0  0  0  0  0  0  0
    1.4797   -8.6258   16.2950 C   0  0  0  0  0  0  0  0  0  0  0  0
    9.2861   -1.2743   25.3585 C   0  0  0  0  0  0  0  0  0  0  0  0
    1.8892  -10.3985   17.7511 N   0  0  0  0  0  0  0  0  0  0  0  0
    9.6210   -0.6952   24.0976 C   0  0  0  0  0  0  0  0  0  0  0  0
    7.0792   -9.0217   17.1429 C   0  0  0  0  0  0  0  0  0  0  0  0
    3.1713  -10.1816   17.6634 C   0  0  0  0  0  0  0  0  0  0  0  0
    2.7878   -8.3822   16.2137 C   0  0  0  0  0  0  0  0  0  0  0  0
    9.4601   -2.6590   25.6528 C   0  0  0  0  0  0  0  0  0  0  0  0
   10.1182   -1.5672   23.1165 C   0  0  0  0  0  0  0  0  0  0  0  0
    1.0552   -9.6360   17.0650 C   0  0  0  0  0  0  0  0  0  0  0  0
    3.6519   -9.1783   16.9039 C   0  0  0  0  0  0  0  0  0  0  0  0
    7.8675   -7.0096   15.9415 C   0  0  0  0  0  0  0  0  0  0  0  0
    5.9733   -9.6553   17.3832 N   0  0  0  0  0  0  0  0  0  0  0  0
   10.2411   -2.9363   23.4301 C   0  0  0  0  0  0  0  0  0  0  0  0
   10.7288   -3.8197   19.9525 C   0  0  0  0  0  0  0  0  0  0  0  0
   10.1189   -5.0054   19.6987 C   0  0  0  0  0  0  0  0  0  0  0  0
  1  3  4  0
  1  7  4  0
  2 21  4  0
  2 27  4  0
  3  9  4  0
  3 10  4  0
  4  8  4  0
  4 18  4  0
  4 25  1  0
  5  9  4  0
  5 12  4  0
  6 13  1  0
  6 27  1  0
  7 28  4  0
  8 11  4  0
  9 29  4  0
 10 12  4  0
 11 24  1  0
 11 26  4  0
 12 25  1  0
 13 28  1  0
 14 20  4  0
 14 23  4  0
 15 17  4  0
 15 21  4  0
 16 19  4  0
 16 23  4  0
 17 22  4  0
 18 26  4  0
 19 24  4  0
 20 24  4  0
 22 27  4  0
 28 29  4  0
M  END
$$$$

 Created by Python create_sdf_string function

 29 33  0  0  0  0  0  0  0  0999 V2000
   10.7215   -3.3326   17.6437 C   0  0  0  0  0  0  0  0  0  0  0  0
    9.9489   -3.4675   24.6487 N   0  0  0  0  0  0  0  0  0  0  0  0
   10.0172   -4.4740   17.4101 C   0  0  0  0  0  0  0  0  0  0  0  0
    6.9051   -7.9575   16.4222 C   0  0  0  0  0  0  0  0  0  0  0  0
    8.9969   -6.3552   17.9668 N   0  0  0  0  0  0  0  0  0  0  0  0
   10.6702   -3.9051   22.4070 C   0  0  0  0  0  0  0  0  0  0  0  0
   11.0625   -3.0028   18.8894 C   0  0  0  0  0  0  0  0  0  0  0  0
    5.6180   -7.9194   16.1754 O   0  0  0  0  0  0  0  0  0  0  0  0
    9.7259   -5.3080   18.4485 C   0  0  0  0  0  0  0  0  0  0  0  0
    9.4578   -5.0200   16.3036 N   0  0  0  0  0  0  0  0  0  0  0  0
    5.0287   -8.9365   16.8223 C   0  0  0  0  0  0  0  0  0  0  0  0
    8.7742   -6.1498   16.6764 C   0  0  0  0  0  0  0  0  0  0  0  0
   10.9418   -3.4032   21.2053 O   0  0  0  0  0  0  0  0  0  0  0  0
    1.4797   -8.6258   16.2950 C   0  0  0  0  0  0  0  0  0  0  0  0
    9.2861   -1.2743   25.3585 C   0  0  0  0  0  0  0  0  0  0  0  0
    1.8892  -10.3985   17.7511 N   0  0  0  0  0  0  0  0  0  0  0  0
    9.6210   -0.6952   24.0976 C   0  0  0  0  0  0  0  0  0  0  0  0
    7.0792   -9.0217   17.1429 C   0  0  0  0  0  0  0  0  0  0  0  0
    3.1713  -10.1816   17.6634 C   0  0  0  0  0  0  0  0  0  0  0  0
    2.7878   -8.3822   16.2137 C   0  0  0  0  0  0  0  0  0  0  0  0
    9.4601   -2.6590   25.6528 C   0  0  0  0  0  0  0  0  0  0  0  0
   10.1182   -1.5672   23.1165 C   0  0  0  0  0  0  0  0  0  0  0  0
    1.0552   -9.6360   17.0650 C   0  0  0  0  0  0  0  0  0  0  0  0
    3.6519   -9.1783   16.9039 C   0  0  0  0  0  0  0  0  0  0  0  0
    7.8675   -7.0096   15.9415 C   0  0  0  0  0  0  0  0  0  0  0  0
    5.9733   -9.6553   17.3832 N   0  0  0  0  0  0  0  0  0  0  0  0
   10.2411   -2.9363   23.4301 C   0  0  0  0  0  0  0  0  0  0  0  0
   10.7288   -3.8197   19.9525 C   0  0  0  0  0  0  0  0  0  0  0  0
   10.1189   -5.0054   19.6987 C   0  0  0  0  0  0  0  0  0  0  0  0
  1  3  4  0
  1  7  4  0
  2 21  4  0
  2 27  4  0
  3  9  4  0
  3 10  4  0
  4  8  4  0
  4 18  4  0
  4 25  1  0
  5  9  4  0
  5 12  4  0
  6 13  1  0
  6 27  1  0
  7 28  4  0
  8 11  4  0
  9 29  4  0
 10 12  4  0
 11 24  1  0
 11 26  4  0
 12 25  1  0
 13 28  1  0
 14 20  4  0
 14 23  4  0
 15 17  4  0
 15 21  4  0
 16 19  4  0
 16 23  4  0
 17 22  4  0
 18 26  4  0
 19 24  4  0
 20 24  4  0
 22 27  4  0
 28 29  4  0
M  END
$$$$

 Created by Python create_sdf_string function

 29 33  0  0  0  0  0  0  0  0999 V2000
   10.7215   -3.3326   17.6437 C   0  0  0  0  0  0  0  0  0  0  0  0
    9.9489   -3.4675   24.6487 N   0  0  0  0  0  0  0  0  0  0  0  0
   10.0172   -4.4740   17.4101 C   0  0  0  0  0  0  0  0  0  0  0  0
    6.9051   -7.9575   16.4222 C   0  0  0  0  0  0  0  0  0  0  0  0
    8.9969   -6.3552   17.9668 N   0  0  0  0  0  0  0  0  0  0  0  0
   10.6702   -3.9051   22.4070 C   0  0  0  0  0  0  0  0  0  0  0  0
   11.0625   -3.0028   18.8894 C   0  0  0  0  0  0  0  0  0  0  0  0
    5.6180   -7.9194   16.1754 O   0  0  0  0  0  0  0  0  0  0  0  0
    9.7259   -5.3080   18.4485 C   0  0  0  0  0  0  0  0  0  0  0  0
    9.4578   -5.0200   16.3036 N   0  0  0  0  0  0  0  0  0  0  0  0
    5.0287   -8.9365   16.8223 C   0  0  0  0  0  0  0  0  0  0  0  0
    8.7742   -6.1498   16.6764 C   0  0  0  0  0  0  0  0  0  0  0  0
   10.9418   -3.4032   21.2053 O   0  0  0  0  0  0  0  0  0  0  0  0
    1.4797   -8.6258   16.2950 C   0  0  0  0  0  0  0  0  0  0  0  0
    9.2861   -1.2743   25.3585 C   0  0  0  0  0  0  0  0  0  0  0  0
    1.8892  -10.3985   17.7511 N   0  0  0  0  0  0  0  0  0  0  0  0
    9.6210   -0.6952   24.0976 C   0  0  0  0  0  0  0  0  0  0  0  0
    7.0792   -9.0217   17.1429 C   0  0  0  0  0  0  0  0  0  0  0  0
    3.1713  -10.1816   17.6634 C   0  0  0  0  0  0  0  0  0  0  0  0
    2.7878   -8.3822   16.2137 C   0  0  0  0  0  0  0  0  0  0  0  0
    9.4601   -2.6590   25.6528 C   0  0  0  0  0  0  0  0  0  0  0  0
   10.1182   -1.5672   23.1165 C   0  0  0  0  0  0  0  0  0  0  0  0
    1.0552   -9.6360   17.0650 C   0  0  0  0  0  0  0  0  0  0  0  0
    3.6519   -9.1783   16.9039 C   0  0  0  0  0  0  0  0  0  0  0  0
    7.8675   -7.0096   15.9415 C   0  0  0  0  0  0  0  0  0  0  0  0
    5.9733   -9.6553   17.3832 N   0  0  0  0  0  0  0  0  0  0  0  0
   10.2411   -2.9363   23.4301 C   0  0  0  0  0  0  0  0  0  0  0  0
   10.7288   -3.8197   19.9525 C   0  0  0  0  0  0  0  0  0  0  0  0
   10.1189   -5.0054   19.6987 C   0  0  0  0  0  0  0  0  0  0  0  0
  1  3  4  0
  1  7  4  0
  2 21  4  0
  2 27  4  0
  3  9  4  0
  3 10  4  0
  4  8  4  0
  4 18  4  0
  4 25  1  0
  5  9  4  0
  5 12  4  0
  6 13  1  0
  6 27  1  0
  7 28  4  0
  8 11  4  0
  9 29  4  0
 10 12  4  0
 11 24  1  0
 11 26  4  0
 12 25  1  0
 13 28  1  0
 14 20  4  0
 14 23  4  0
 15 17  4  0
 15 21  4  0
 16 19  4  0
 16 23  4  0
 17 22  4  0
 18 26  4  0
 19 24  4  0
 20 24  4  0
 22 27  4  0
 28 29  4  0
M  END
$$$$

 Created by Python create_sdf_string function

 29 33  0  0  0  0  0  0  0  0999 V2000
   10.7215   -3.3326   17.6437 C   0  0  0  0  0  0  0  0  0  0  0  0
    9.9489   -3.4675   24.6487 N   0  0  0  0  0  0  0  0  0  0  0  0
   10.0172   -4.4740   17.4101 C   0  0  0  0  0  0  0  0  0  0  0  0
    6.9051   -7.9575   16.4222 C   0  0  0  0  0  0  0  0  0  0  0  0
    8.9969   -6.3552   17.9668 N   0  0  0  0  0  0  0  0  0  0  0  0
   10.6702   -3.9051   22.4070 C   0  0  0  0  0  0  0  0  0  0  0  0
   11.0625   -3.0028   18.8894 C   0  0  0  0  0  0  0  0  0  0  0  0
    5.6180   -7.9194   16.1754 O   0  0  0  0  0  0  0  0  0  0  0  0
    9.7259   -5.3080   18.4485 C   0  0  0  0  0  0  0  0  0  0  0  0
    9.4578   -5.0200   16.3036 N   0  0  0  0  0  0  0  0  0  0  0  0
    5.0287   -8.9365   16.8223 C   0  0  0  0  0  0  0  0  0  0  0  0
    8.7742   -6.1498   16.6764 C   0  0  0  0  0  0  0  0  0  0  0  0
   10.9418   -3.4032   21.2053 O   0  0  0  0  0  0  0  0  0  0  0  0
    1.4797   -8.6258   16.2950 C   0  0  0  0  0  0  0  0  0  0  0  0
    9.2861   -1.2743   25.3585 C   0  0  0  0  0  0  0  0  0  0  0  0
    1.8892  -10.3985   17.7511 N   0  0  0  0  0  0  0  0  0  0  0  0
    9.6210   -0.6952   24.0976 C   0  0  0  0  0  0  0  0  0  0  0  0
    7.0792   -9.0217   17.1429 C   0  0  0  0  0  0  0  0  0  0  0  0
    3.1713  -10.1816   17.6634 C   0  0  0  0  0  0  0  0  0  0  0  0
    2.7878   -8.3822   16.2137 C   0  0  0  0  0  0  0  0  0  0  0  0
    9.4601   -2.6590   25.6528 C   0  0  0  0  0  0  0  0  0  0  0  0
   10.1182   -1.5672   23.1165 C   0  0  0  0  0  0  0  0  0  0  0  0
    1.0552   -9.6360   17.0650 C   0  0  0  0  0  0  0  0  0  0  0  0
    3.6519   -9.1783   16.9039 C   0  0  0  0  0  0  0  0  0  0  0  0
    7.8675   -7.0096   15.9415 C   0  0  0  0  0  0  0  0  0  0  0  0
    5.9733   -9.6553   17.3832 N   0  0  0  0  0  0  0  0  0  0  0  0
   10.2411   -2.9363   23.4301 C   0  0  0  0  0  0  0  0  0  0  0  0
   10.7288   -3.8197   19.9525 C   0  0  0  0  0  0  0  0  0  0  0  0
   10.1189   -5.0054   19.6987 C   0  0  0  0  0  0  0  0  0  0  0  0
  1  3  4  0
  1  7  4  0
  2 21  4  0
  2 27  4  0
  3  9  4  0
  3 10  4  0
  4  8  4  0
  4 18  4  0
  4 25  1  0
  5  9  4  0
  5 12  4  0
  6 13  1  0
  6 27  1  0
  7 28  4  0
  8 11  4  0
  9 29  4  0
 10 12  4  0
 11 24  1  0
 11 26  4  0
 12 25  1  0
 13 28  1  0
 14 20  4  0
 14 23  4  0
 15 17  4  0
 15 21  4  0
 16 19  4  0
 16 23  4  0
 17 22  4  0
 18 26  4  0
 19 24  4  0
 20 24  4  0
 22 27  4  0
 28 29  4  0
M  END
$$$$

 Created by Python create_sdf_string function

 29 33  0  0  0  0  0  0  0  0999 V2000
   10.7215   -3.3326   17.6437 C   0  0  0  0  0  0  0  0  0  0  0  0
    9.9489   -3.4675   24.6487 N   0  0  0  0  0  0  0  0  0  0  0  0
   10.0172   -4.4740   17.4101 C   0  0  0  0  0  0  0  0  0  0  0  0
    6.9051   -7.9575   16.4222 C   0  0  0  0  0  0  0  0  0  0  0  0
    8.9969   -6.3552   17.9668 N   0  0  0  0  0  0  0  0  0  0  0  0
   10.6702   -3.9051   22.4070 C   0  0  0  0  0  0  0  0  0  0  0  0
   11.0625   -3.0028   18.8894 C   0  0  0  0  0  0  0  0  0  0  0  0
    5.6180   -7.9194   16.1754 O   0  0  0  0  0  0  0  0  0  0  0  0
    9.7259   -5.3080   18.4485 C   0  0  0  0  0  0  0  0  0  0  0  0
    9.4578   -5.0200   16.3036 N   0  0  0  0  0  0  0  0  0  0  0  0
    5.0287   -8.9365   16.8223 C   0  0  0  0  0  0  0  0  0  0  0  0
    8.7742   -6.1498   16.6764 C   0  0  0  0  0  0  0  0  0  0  0  0
   10.9418   -3.4032   21.2053 O   0  0  0  0  0  0  0  0  0  0  0  0
    1.4797   -8.6258   16.2950 C   0  0  0  0  0  0  0  0  0  0  0  0
    9.2861   -1.2743   25.3585 C   0  0  0  0  0  0  0  0  0  0  0  0
    1.8892  -10.3985   17.7511 N   0  0  0  0  0  0  0  0  0  0  0  0
    9.6210   -0.6952   24.0976 C   0  0  0  0  0  0  0  0  0  0  0  0
    7.0792   -9.0217   17.1429 C   0  0  0  0  0  0  0  0  0  0  0  0
    3.1713  -10.1816   17.6634 C   0  0  0  0  0  0  0  0  0  0  0  0
    2.7878   -8.3822   16.2137 C   0  0  0  0  0  0  0  0  0  0  0  0
    9.4601   -2.6590   25.6528 C   0  0  0  0  0  0  0  0  0  0  0  0
   10.1182   -1.5672   23.1165 C   0  0  0  0  0  0  0  0  0  0  0  0
    1.0552   -9.6360   17.0650 C   0  0  0  0  0  0  0  0  0  0  0  0
    3.6519   -9.1783   16.9039 C   0  0  0  0  0  0  0  0  0  0  0  0
    7.8675   -7.0096   15.9415 C   0  0  0  0  0  0  0  0  0  0  0  0
    5.9733   -9.6553   17.3832 N   0  0  0  0  0  0  0  0  0  0  0  0
   10.2411   -2.9363   23.4301 C   0  0  0  0  0  0  0  0  0  0  0  0
   10.7288   -3.8197   19.9525 C   0  0  0  0  0  0  0  0  0  0  0  0
   10.1189   -5.0054   19.6987 C   0  0  0  0  0  0  0  0  0  0  0  0
  1  3  4  0
  1  7  4  0
  2 21  4  0
  2 27  4  0
  3  9  4  0
  3 10  4  0
  4  8  4  0
  4 18  4  0
  4 25  1  0
  5  9  4  0
  5 12  4  0
  6 13  1  0
  6 27  1  0
  7 28  4  0
  8 11  4  0
  9 29  4  0
 10 12  4  0
 11 24  1  0
 11 26  4  0
 12 25  1  0
 13 28  1  0
 14 20  4  0
 14 23  4  0
 15 17  4  0
 15 21  4  0
 16 19  4  0
 16 23  4  0
 17 22  4  0
 18 26  4  0
 19 24  4  0
 20 24  4  0
 22 27  4  0
 28 29  4  0
M  END
$$$$

 Created by Python create_sdf_string function

 29 33  0  0  0  0  0  0  0  0999 V2000
   10.7215   -3.3326   17.6437 C   0  0  0  0  0  0  0  0  0  0  0  0
    9.9489   -3.4675   24.6487 N   0  0  0  0  0  0  0  0  0  0  0  0
   10.0172   -4.4740   17.4101 C   0  0  0  0  0  0  0  0  0  0  0  0
    6.9051   -7.9575   16.4222 C   0  0  0  0  0  0  0  0  0  0  0  0
    8.9969   -6.3552   17.9668 N   0  0  0  0  0  0  0  0  0  0  0  0
   10.6702   -3.9051   22.4070 C   0  0  0  0  0  0  0  0  0  0  0  0
   11.0625   -3.0028   18.8894 C   0  0  0  0  0  0  0  0  0  0  0  0
    5.6180   -7.9194   16.1754 O   0  0  0  0  0  0  0  0  0  0  0  0
    9.7259   -5.3080   18.4485 C   0  0  0  0  0  0  0  0  0  0  0  0
    9.4578   -5.0200   16.3036 N   0  0  0  0  0  0  0  0  0  0  0  0
    5.0287   -8.9365   16.8223 C   0  0  0  0  0  0  0  0  0  0  0  0
    8.7742   -6.1498   16.6764 C   0  0  0  0  0  0  0  0  0  0  0  0
   10.9418   -3.4032   21.2053 O   0  0  0  0  0  0  0  0  0  0  0  0
    1.4797   -8.6258   16.2950 C   0  0  0  0  0  0  0  0  0  0  0  0
    9.2861   -1.2743   25.3585 C   0  0  0  0  0  0  0  0  0  0  0  0
    1.8892  -10.3985   17.7511 N   0  0  0  0  0  0  0  0  0  0  0  0
    9.6210   -0.6952   24.0976 C   0  0  0  0  0  0  0  0  0  0  0  0
    7.0792   -9.0217   17.1429 C   0  0  0  0  0  0  0  0  0  0  0  0
    3.1713  -10.1816   17.6634 C   0  0  0  0  0  0  0  0  0  0  0  0
    2.7878   -8.3822   16.2137 C   0  0  0  0  0  0  0  0  0  0  0  0
    9.4601   -2.6590   25.6528 C   0  0  0  0  0  0  0  0  0  0  0  0
   10.1182   -1.5672   23.1165 C   0  0  0  0  0  0  0  0  0  0  0  0
    1.0552   -9.6360   17.0650 C   0  0  0  0  0  0  0  0  0  0  0  0
    3.6519   -9.1783   16.9039 C   0  0  0  0  0  0  0  0  0  0  0  0
    7.8675   -7.0096   15.9415 C   0  0  0  0  0  0  0  0  0  0  0  0
    5.9733   -9.6553   17.3832 N   0  0  0  0  0  0  0  0  0  0  0  0
   10.2411   -2.9363   23.4301 C   0  0  0  0  0  0  0  0  0  0  0  0
   10.7288   -3.8197   19.9525 C   0  0  0  0  0  0  0  0  0  0  0  0
   10.1189   -5.0054   19.6987 C   0  0  0  0  0  0  0  0  0  0  0  0
  1  3  4  0
  1  7  4  0
  2 21  4  0
  2 27  4  0
  3  9  4  0
  3 10  4  0
  4  8  4  0
  4 18  4  0
  4 25  1  0
  5  9  4  0
  5 12  4  0
  6 13  1  0
  6 27  1  0
  7 28  4  0
  8 11  4  0
  9 29  4  0
 10 12  4  0
 11 24  1  0
 11 26  4  0
 12 25  1  0
 13 28  1  0
 14 20  4  0
 14 23  4  0
 15 17  4  0
 15 21  4  0
 16 19  4  0
 16 23  4  0
 17 22  4  0
 18 26  4  0
 19 24  4  0
 20 24  4  0
 22 27  4  0
 28 29  4  0
M  END
$$$$

 Created by Python create_sdf_string function

 29 33  0  0  0  0  0  0  0  0999 V2000
   10.7215   -3.3326   17.6437 C   0  0  0  0  0  0  0  0  0  0  0  0
    9.9489   -3.4675   24.6487 N   0  0  0  0  0  0  0  0  0  0  0  0
   10.0172   -4.4740   17.4101 C   0  0  0  0  0  0  0  0  0  0  0  0
    6.9051   -7.9575   16.4222 C   0  0  0  0  0  0  0  0  0  0  0  0
    8.9969   -6.3552   17.9668 N   0  0  0  0  0  0  0  0  0  0  0  0
   10.6702   -3.9051   22.4070 C   0  0  0  0  0  0  0  0  0  0  0  0
   11.0625   -3.0028   18.8894 C   0  0  0  0  0  0  0  0  0  0  0  0
    5.6180   -7.9194   16.1754 O   0  0  0  0  0  0  0  0  0  0  0  0
    9.7259   -5.3080   18.4485 C   0  0  0  0  0  0  0  0  0  0  0  0
    9.4578   -5.0200   16.3036 N   0  0  0  0  0  0  0  0  0  0  0  0
    5.0287   -8.9365   16.8223 C   0  0  0  0  0  0  0  0  0  0  0  0
    8.7742   -6.1498   16.6764 C   0  0  0  0  0  0  0  0  0  0  0  0
   10.9418   -3.4032   21.2053 O   0  0  0  0  0  0  0  0  0  0  0  0
    1.4797   -8.6258   16.2950 C   0  0  0  0  0  0  0  0  0  0  0  0
    9.2861   -1.2743   25.3585 C   0  0  0  0  0  0  0  0  0  0  0  0
    1.8892  -10.3985   17.7511 N   0  0  0  0  0  0  0  0  0  0  0  0
    9.6210   -0.6952   24.0976 C   0  0  0  0  0  0  0  0  0  0  0  0
    7.0792   -9.0217   17.1429 C   0  0  0  0  0  0  0  0  0  0  0  0
    3.1713  -10.1816   17.6634 C   0  0  0  0  0  0  0  0  0  0  0  0
    2.7878   -8.3822   16.2137 C   0  0  0  0  0  0  0  0  0  0  0  0
    9.4601   -2.6590   25.6528 C   0  0  0  0  0  0  0  0  0  0  0  0
   10.1182   -1.5672   23.1165 C   0  0  0  0  0  0  0  0  0  0  0  0
    1.0552   -9.6360   17.0650 C   0  0  0  0  0  0  0  0  0  0  0  0
    3.6519   -9.1783   16.9039 C   0  0  0  0  0  0  0  0  0  0  0  0
    7.8675   -7.0096   15.9415 C   0  0  0  0  0  0  0  0  0  0  0  0
    5.9733   -9.6553   17.3832 N   0  0  0  0  0  0  0  0  0  0  0  0
   10.2411   -2.9363   23.4301 C   0  0  0  0  0  0  0  0  0  0  0  0
   10.7288   -3.8197   19.9525 C   0  0  0  0  0  0  0  0  0  0  0  0
   10.1189   -5.0054   19.6987 C   0  0  0  0  0  0  0  0  0  0  0  0
  1  3  4  0
  1  7  4  0
  2 21  4  0
  2 27  4  0
  3  9  4  0
  3 10  4  0
  4  8  4  0
  4 18  4  0
  4 25  1  0
  5  9  4  0
  5 12  4  0
  6 13  1  0
  6 27  1  0
  7 28  4  0
  8 11  4  0
  9 29  4  0
 10 12  4  0
 11 24  1  0
 11 26  4  0
 12 25  1  0
 13 28  1  0
 14 20  4  0
 14 23  4  0
 15 17  4  0
 15 21  4  0
 16 19  4  0
 16 23  4  0
 17 22  4  0
 18 26  4  0
 19 24  4  0
 20 24  4  0
 22 27  4  0
 28 29  4  0
M  END
$$$$

 Created by Python create_sdf_string function

 29 33  0  0  0  0  0  0  0  0999 V2000
   10.7215   -3.3326   17.6437 C   0  0  0  0  0  0  0  0  0  0  0  0
    9.9489   -3.4675   24.6487 N   0  0  0  0  0  0  0  0  0  0  0  0
   10.0172   -4.4740   17.4101 C   0  0  0  0  0  0  0  0  0  0  0  0
    6.9051   -7.9575   16.4222 C   0  0  0  0  0  0  0  0  0  0  0  0
    8.9969   -6.3552   17.9668 N   0  0  0  0  0  0  0  0  0  0  0  0
   10.6702   -3.9051   22.4070 C   0  0  0  0  0  0  0  0  0  0  0  0
   11.0625   -3.0028   18.8894 C   0  0  0  0  0  0  0  0  0  0  0  0
    5.6180   -7.9194   16.1754 O   0  0  0  0  0  0  0  0  0  0  0  0
    9.7259   -5.3080   18.4485 C   0  0  0  0  0  0  0  0  0  0  0  0
    9.4578   -5.0200   16.3036 N   0  0  0  0  0  0  0  0  0  0  0  0
    5.0287   -8.9365   16.8223 C   0  0  0  0  0  0  0  0  0  0  0  0
    8.7742   -6.1498   16.6764 C   0  0  0  0  0  0  0  0  0  0  0  0
   10.9418   -3.4032   21.2053 O   0  0  0  0  0  0  0  0  0  0  0  0
    1.4797   -8.6258   16.2950 C   0  0  0  0  0  0  0  0  0  0  0  0
    9.2861   -1.2743   25.3585 C   0  0  0  0  0  0  0  0  0  0  0  0
    1.8892  -10.3985   17.7511 N   0  0  0  0  0  0  0  0  0  0  0  0
    9.6210   -0.6952   24.0976 C   0  0  0  0  0  0  0  0  0  0  0  0
    7.0792   -9.0217   17.1429 C   0  0  0  0  0  0  0  0  0  0  0  0
    3.1713  -10.1816   17.6634 C   0  0  0  0  0  0  0  0  0  0  0  0
    2.7878   -8.3822   16.2137 C   0  0  0  0  0  0  0  0  0  0  0  0
    9.4601   -2.6590   25.6528 C   0  0  0  0  0  0  0  0  0  0  0  0
   10.1182   -1.5672   23.1165 C   0  0  0  0  0  0  0  0  0  0  0  0
    1.0552   -9.6360   17.0650 C   0  0  0  0  0  0  0  0  0  0  0  0
    3.6519   -9.1783   16.9039 C   0  0  0  0  0  0  0  0  0  0  0  0
    7.8675   -7.0096   15.9415 C   0  0  0  0  0  0  0  0  0  0  0  0
    5.9733   -9.6553   17.3832 N   0  0  0  0  0  0  0  0  0  0  0  0
   10.2411   -2.9363   23.4301 C   0  0  0  0  0  0  0  0  0  0  0  0
   10.7288   -3.8197   19.9525 C   0  0  0  0  0  0  0  0  0  0  0  0
   10.1189   -5.0054   19.6987 C   0  0  0  0  0  0  0  0  0  0  0  0
  1  3  4  0
  1  7  4  0
  2 21  4  0
  2 27  4  0
  3  9  4  0
  3 10  4  0
  4  8  4  0
  4 18  4  0
  4 25  1  0
  5  9  4  0
  5 12  4  0
  6 13  1  0
  6 27  1  0
  7 28  4  0
  8 11  4  0
  9 29  4  0
 10 12  4  0
 11 24  1  0
 11 26  4  0
 12 25  1  0
 13 28  1  0
 14 20  4  0
 14 23  4  0
 15 17  4  0
 15 21  4  0
 16 19  4  0
 16 23  4  0
 17 22  4  0
 18 26  4  0
 19 24  4  0
 20 24  4  0
 22 27  4  0
 28 29  4  0
M  END
$$$$

 Created by Python create_sdf_string function

 29 33  0  0  0  0  0  0  0  0999 V2000
   10.7215   -3.3326   17.6437 C   0  0  0  0  0  0  0  0  0  0  0  0
    9.9489   -3.4675   24.6487 N   0  0  0  0  0  0  0  0  0  0  0  0
   10.0172   -4.4740   17.4101 C   0  0  0  0  0  0  0  0  0  0  0  0
    6.9051   -7.9575   16.4222 C   0  0  0  0  0  0  0  0  0  0  0  0
    8.9969   -6.3552   17.9668 N   0  0  0  0  0  0  0  0  0  0  0  0
   10.6702   -3.9051   22.4070 C   0  0  0  0  0  0  0  0  0  0  0  0
   11.0625   -3.0028   18.8894 C   0  0  0  0  0  0  0  0  0  0  0  0
    5.6180   -7.9194   16.1754 O   0  0  0  0  0  0  0  0  0  0  0  0
    9.7259   -5.3080   18.4485 C   0  0  0  0  0  0  0  0  0  0  0  0
    9.4578   -5.0200   16.3036 N   0  0  0  0  0  0  0  0  0  0  0  0
    5.0287   -8.9365   16.8223 C   0  0  0  0  0  0  0  0  0  0  0  0
    8.7742   -6.1498   16.6764 C   0  0  0  0  0  0  0  0  0  0  0  0
   10.9418   -3.4032   21.2053 O   0  0  0  0  0  0  0  0  0  0  0  0
    1.4797   -8.6258   16.2950 C   0  0  0  0  0  0  0  0  0  0  0  0
    9.2861   -1.2743   25.3585 C   0  0  0  0  0  0  0  0  0  0  0  0
    1.8892  -10.3985   17.7511 N   0  0  0  0  0  0  0  0  0  0  0  0
    9.6210   -0.6952   24.0976 C   0  0  0  0  0  0  0  0  0  0  0  0
    7.0792   -9.0217   17.1429 C   0  0  0  0  0  0  0  0  0  0  0  0
    3.1713  -10.1816   17.6634 C   0  0  0  0  0  0  0  0  0  0  0  0
    2.7878   -8.3822   16.2137 C   0  0  0  0  0  0  0  0  0  0  0  0
    9.4601   -2.6590   25.6528 C   0  0  0  0  0  0  0  0  0  0  0  0
   10.1182   -1.5672   23.1165 C   0  0  0  0  0  0  0  0  0  0  0  0
    1.0552   -9.6360   17.0650 C   0  0  0  0  0  0  0  0  0  0  0  0
    3.6519   -9.1783   16.9039 C   0  0  0  0  0  0  0  0  0  0  0  0
    7.8675   -7.0096   15.9415 C   0  0  0  0  0  0  0  0  0  0  0  0
    5.9733   -9.6553   17.3832 N   0  0  0  0  0  0  0  0  0  0  0  0
   10.2411   -2.9363   23.4301 C   0  0  0  0  0  0  0  0  0  0  0  0
   10.7288   -3.8197   19.9525 C   0  0  0  0  0  0  0  0  0  0  0  0
   10.1189   -5.0054   19.6987 C   0  0  0  0  0  0  0  0  0  0  0  0
  1  3  4  0
  1  7  4  0
  2 21  4  0
  2 27  4  0
  3  9  4  0
  3 10  4  0
  4  8  4  0
  4 18  4  0
  4 25  1  0
  5  9  4  0
  5 12  4  0
  6 13  1  0
  6 27  1  0
  7 28  4  0
  8 11  4  0
  9 29  4  0
 10 12  4  0
 11 24  1  0
 11 26  4  0
 12 25  1  0
 13 28  1  0
 14 20  4  0
 14 23  4  0
 15 17  4  0
 15 21  4  0
 16 19  4  0
 16 23  4  0
 17 22  4  0
 18 26  4  0
 19 24  4  0
 20 24  4  0
 22 27  4  0
 28 29  4  0
M  END
$$$$

 Created by Python create_sdf_string function

 29 33  0  0  0  0  0  0  0  0999 V2000
   10.7215   -3.3326   17.6437 C   0  0  0  0  0  0  0  0  0  0  0  0
    9.9489   -3.4675   24.6487 N   0  0  0  0  0  0  0  0  0  0  0  0
   10.0172   -4.4740   17.4101 C   0  0  0  0  0  0  0  0  0  0  0  0
    6.9051   -7.9575   16.4222 C   0  0  0  0  0  0  0  0  0  0  0  0
    8.9969   -6.3552   17.9668 N   0  0  0  0  0  0  0  0  0  0  0  0
   10.6702   -3.9051   22.4070 C   0  0  0  0  0  0  0  0  0  0  0  0
   11.0625   -3.0028   18.8894 C   0  0  0  0  0  0  0  0  0  0  0  0
    5.6180   -7.9194   16.1754 O   0  0  0  0  0  0  0  0  0  0  0  0
    9.7259   -5.3080   18.4485 C   0  0  0  0  0  0  0  0  0  0  0  0
    9.4578   -5.0200   16.3036 N   0  0  0  0  0  0  0  0  0  0  0  0
    5.0287   -8.9365   16.8223 C   0  0  0  0  0  0  0  0  0  0  0  0
    8.7742   -6.1498   16.6764 C   0  0  0  0  0  0  0  0  0  0  0  0
   10.9418   -3.4032   21.2053 O   0  0  0  0  0  0  0  0  0  0  0  0
    1.4797   -8.6258   16.2950 C   0  0  0  0  0  0  0  0  0  0  0  0
    9.2861   -1.2743   25.3585 C   0  0  0  0  0  0  0  0  0  0  0  0
    1.8892  -10.3985   17.7511 N   0  0  0  0  0  0  0  0  0  0  0  0
    9.6210   -0.6952   24.0976 C   0  0  0  0  0  0  0  0  0  0  0  0
    7.0792   -9.0217   17.1429 C   0  0  0  0  0  0  0  0  0  0  0  0
    3.1713  -10.1816   17.6634 C   0  0  0  0  0  0  0  0  0  0  0  0
    2.7878   -8.3822   16.2137 C   0  0  0  0  0  0  0  0  0  0  0  0
    9.4601   -2.6590   25.6528 C   0  0  0  0  0  0  0  0  0  0  0  0
   10.1182   -1.5672   23.1165 C   0  0  0  0  0  0  0  0  0  0  0  0
    1.0552   -9.6360   17.0650 C   0  0  0  0  0  0  0  0  0  0  0  0
    3.6519   -9.1783   16.9039 C   0  0  0  0  0  0  0  0  0  0  0  0
    7.8675   -7.0096   15.9415 C   0  0  0  0  0  0  0  0  0  0  0  0
    5.9733   -9.6553   17.3832 N   0  0  0  0  0  0  0  0  0  0  0  0
   10.2411   -2.9363   23.4301 C   0  0  0  0  0  0  0  0  0  0  0  0
   10.7288   -3.8197   19.9525 C   0  0  0  0  0  0  0  0  0  0  0  0
   10.1189   -5.0054   19.6987 C   0  0  0  0  0  0  0  0  0  0  0  0
  1  3  4  0
  1  7  4  0
  2 21  4  0
  2 27  4  0
  3  9  4  0
  3 10  4  0
  4  8  4  0
  4 18  4  0
  4 25  1  0
  5  9  4  0
  5 12  4  0
  6 13  1  0
  6 27  1  0
  7 28  4  0
  8 11  4  0
  9 29  4  0
 10 12  4  0
 11 24  1  0
 11 26  4  0
 12 25  1  0
 13 28  1  0
 14 20  4  0
 14 23  4  0
 15 17  4  0
 15 21  4  0
 16 19  4  0
 16 23  4  0
 17 22  4  0
 18 26  4  0
 19 24  4  0
 20 24  4  0
 22 27  4  0
 28 29  4  0
M  END
$$$$

 Created by Python create_sdf_string function

 29 33  0  0  0  0  0  0  0  0999 V2000
   10.7215   -3.3326   17.6437 C   0  0  0  0  0  0  0  0  0  0  0  0
    9.9489   -3.4675   24.6487 N   0  0  0  0  0  0  0  0  0  0  0  0
   10.0172   -4.4740   17.4101 C   0  0  0  0  0  0  0  0  0  0  0  0
    6.9051   -7.9575   16.4222 C   0  0  0  0  0  0  0  0  0  0  0  0
    8.9969   -6.3552   17.9668 N   0  0  0  0  0  0  0  0  0  0  0  0
   10.6702   -3.9051   22.4070 C   0  0  0  0  0  0  0  0  0  0  0  0
   11.0625   -3.0028   18.8894 C   0  0  0  0  0  0  0  0  0  0  0  0
    5.6180   -7.9194   16.1754 O   0  0  0  0  0  0  0  0  0  0  0  0
    9.7259   -5.3080   18.4485 C   0  0  0  0  0  0  0  0  0  0  0  0
    9.4578   -5.0200   16.3036 N   0  0  0  0  0  0  0  0  0  0  0  0
    5.0287   -8.9365   16.8223 C   0  0  0  0  0  0  0  0  0  0  0  0
    8.7742   -6.1498   16.6764 C   0  0  0  0  0  0  0  0  0  0  0  0
   10.9418   -3.4032   21.2053 O   0  0  0  0  0  0  0  0  0  0  0  0
    1.4797   -8.6258   16.2950 C   0  0  0  0  0  0  0  0  0  0  0  0
    9.2861   -1.2743   25.3585 C   0  0  0  0  0  0  0  0  0  0  0  0
    1.8892  -10.3985   17.7511 N   0  0  0  0  0  0  0  0  0  0  0  0
    9.6210   -0.6952   24.0976 C   0  0  0  0  0  0  0  0  0  0  0  0
    7.0792   -9.0217   17.1429 C   0  0  0  0  0  0  0  0  0  0  0  0
    3.1713  -10.1816   17.6634 C   0  0  0  0  0  0  0  0  0  0  0  0
    2.7878   -8.3822   16.2137 C   0  0  0  0  0  0  0  0  0  0  0  0
    9.4601   -2.6590   25.6528 C   0  0  0  0  0  0  0  0  0  0  0  0
   10.1182   -1.5672   23.1165 C   0  0  0  0  0  0  0  0  0  0  0  0
    1.0552   -9.6360   17.0650 C   0  0  0  0  0  0  0  0  0  0  0  0
    3.6519   -9.1783   16.9039 C   0  0  0  0  0  0  0  0  0  0  0  0
    7.8675   -7.0096   15.9415 C   0  0  0  0  0  0  0  0  0  0  0  0
    5.9733   -9.6553   17.3832 N   0  0  0  0  0  0  0  0  0  0  0  0
   10.2411   -2.9363   23.4301 C   0  0  0  0  0  0  0  0  0  0  0  0
   10.7288   -3.8197   19.9525 C   0  0  0  0  0  0  0  0  0  0  0  0
   10.1189   -5.0054   19.6987 C   0  0  0  0  0  0  0  0  0  0  0  0
  1  3  4  0
  1  7  4  0
  2 21  4  0
  2 27  4  0
  3  9  4  0
  3 10  4  0
  4  8  4  0
  4 18  4  0
  4 25  1  0
  5  9  4  0
  5 12  4  0
  6 13  1  0
  6 27  1  0
  7 28  4  0
  8 11  4  0
  9 29  4  0
 10 12  4  0
 11 24  1  0
 11 26  4  0
 12 25  1  0
 13 28  1  0
 14 20  4  0
 14 23  4  0
 15 17  4  0
 15 21  4  0
 16 19  4  0
 16 23  4  0
 17 22  4  0
 18 26  4  0
 19 24  4  0
 20 24  4  0
 22 27  4  0
 28 29  4  0
M  END
$$$$

 Created by Python create_sdf_string function

 29 33  0  0  0  0  0  0  0  0999 V2000
   10.7215   -3.3326   17.6437 C   0  0  0  0  0  0  0  0  0  0  0  0
    9.9489   -3.4675   24.6487 N   0  0  0  0  0  0  0  0  0  0  0  0
   10.0172   -4.4740   17.4101 C   0  0  0  0  0  0  0  0  0  0  0  0
    6.9051   -7.9575   16.4222 C   0  0  0  0  0  0  0  0  0  0  0  0
    8.9969   -6.3552   17.9668 N   0  0  0  0  0  0  0  0  0  0  0  0
   10.6702   -3.9051   22.4070 C   0  0  0  0  0  0  0  0  0  0  0  0
   11.0625   -3.0028   18.8894 C   0  0  0  0  0  0  0  0  0  0  0  0
    5.6180   -7.9194   16.1754 O   0  0  0  0  0  0  0  0  0  0  0  0
    9.7259   -5.3080   18.4485 C   0  0  0  0  0  0  0  0  0  0  0  0
    9.4578   -5.0200   16.3036 N   0  0  0  0  0  0  0  0  0  0  0  0
    5.0287   -8.9365   16.8223 C   0  0  0  0  0  0  0  0  0  0  0  0
    8.7742   -6.1498   16.6764 C   0  0  0  0  0  0  0  0  0  0  0  0
   10.9418   -3.4032   21.2053 O   0  0  0  0  0  0  0  0  0  0  0  0
    1.4797   -8.6258   16.2950 C   0  0  0  0  0  0  0  0  0  0  0  0
    9.2861   -1.2743   25.3585 C   0  0  0  0  0  0  0  0  0  0  0  0
    1.8892  -10.3985   17.7511 N   0  0  0  0  0  0  0  0  0  0  0  0
    9.6210   -0.6952   24.0976 C   0  0  0  0  0  0  0  0  0  0  0  0
    7.0792   -9.0217   17.1429 C   0  0  0  0  0  0  0  0  0  0  0  0
    3.1713  -10.1816   17.6634 C   0  0  0  0  0  0  0  0  0  0  0  0
    2.7878   -8.3822   16.2137 C   0  0  0  0  0  0  0  0  0  0  0  0
    9.4601   -2.6590   25.6528 C   0  0  0  0  0  0  0  0  0  0  0  0
   10.1182   -1.5672   23.1165 C   0  0  0  0  0  0  0  0  0  0  0  0
    1.0552   -9.6360   17.0650 C   0  0  0  0  0  0  0  0  0  0  0  0
    3.6519   -9.1783   16.9039 C   0  0  0  0  0  0  0  0  0  0  0  0
    7.8675   -7.0096   15.9415 C   0  0  0  0  0  0  0  0  0  0  0  0
    5.9733   -9.6553   17.3832 N   0  0  0  0  0  0  0  0  0  0  0  0
   10.2411   -2.9363   23.4301 C   0  0  0  0  0  0  0  0  0  0  0  0
   10.7288   -3.8197   19.9525 C   0  0  0  0  0  0  0  0  0  0  0  0
   10.1189   -5.0054   19.6987 C   0  0  0  0  0  0  0  0  0  0  0  0
  1  3  4  0
  1  7  4  0
  2 21  4  0
  2 27  4  0
  3  9  4  0
  3 10  4  0
  4  8  4  0
  4 18  4  0
  4 25  1  0
  5  9  4  0
  5 12  4  0
  6 13  1  0
  6 27  1  0
  7 28  4  0
  8 11  4  0
  9 29  4  0
 10 12  4  0
 11 24  1  0
 11 26  4  0
 12 25  1  0
 13 28  1  0
 14 20  4  0
 14 23  4  0
 15 17  4  0
 15 21  4  0
 16 19  4  0
 16 23  4  0
 17 22  4  0
 18 26  4  0
 19 24  4  0
 20 24  4  0
 22 27  4  0
 28 29  4  0
M  END
$$$$

 Created by Python create_sdf_string function

 29 33  0  0  0  0  0  0  0  0999 V2000
   10.7215   -3.3326   17.6437 C   0  0  0  0  0  0  0  0  0  0  0  0
    9.9489   -3.4675   24.6487 N   0  0  0  0  0  0  0  0  0  0  0  0
   10.0172   -4.4740   17.4101 C   0  0  0  0  0  0  0  0  0  0  0  0
    6.9051   -7.9575   16.4222 C   0  0  0  0  0  0  0  0  0  0  0  0
    8.9969   -6.3552   17.9668 N   0  0  0  0  0  0  0  0  0  0  0  0
   10.6702   -3.9051   22.4070 C   0  0  0  0  0  0  0  0  0  0  0  0
   11.0625   -3.0028   18.8894 C   0  0  0  0  0  0  0  0  0  0  0  0
    5.6180   -7.9194   16.1754 O   0  0  0  0  0  0  0  0  0  0  0  0
    9.7259   -5.3080   18.4485 C   0  0  0  0  0  0  0  0  0  0  0  0
    9.4578   -5.0200   16.3036 N   0  0  0  0  0  0  0  0  0  0  0  0
    5.0287   -8.9365   16.8223 C   0  0  0  0  0  0  0  0  0  0  0  0
    8.7742   -6.1498   16.6764 C   0  0  0  0  0  0  0  0  0  0  0  0
   10.9418   -3.4032   21.2053 O   0  0  0  0  0  0  0  0  0  0  0  0
    1.4797   -8.6258   16.2950 C   0  0  0  0  0  0  0  0  0  0  0  0
    9.2861   -1.2743   25.3585 C   0  0  0  0  0  0  0  0  0  0  0  0
    1.8892  -10.3985   17.7511 N   0  0  0  0  0  0  0  0  0  0  0  0
    9.6210   -0.6952   24.0976 C   0  0  0  0  0  0  0  0  0  0  0  0
    7.0792   -9.0217   17.1429 C   0  0  0  0  0  0  0  0  0  0  0  0
    3.1713  -10.1816   17.6634 C   0  0  0  0  0  0  0  0  0  0  0  0
    2.7878   -8.3822   16.2137 C   0  0  0  0  0  0  0  0  0  0  0  0
    9.4601   -2.6590   25.6528 C   0  0  0  0  0  0  0  0  0  0  0  0
   10.1182   -1.5672   23.1165 C   0  0  0  0  0  0  0  0  0  0  0  0
    1.0552   -9.6360   17.0650 C   0  0  0  0  0  0  0  0  0  0  0  0
    3.6519   -9.1783   16.9039 C   0  0  0  0  0  0  0  0  0  0  0  0
    7.8675   -7.0096   15.9415 C   0  0  0  0  0  0  0  0  0  0  0  0
    5.9733   -9.6553   17.3832 N   0  0  0  0  0  0  0  0  0  0  0  0
   10.2411   -2.9363   23.4301 C   0  0  0  0  0  0  0  0  0  0  0  0
   10.7288   -3.8197   19.9525 C   0  0  0  0  0  0  0  0  0  0  0  0
   10.1189   -5.0054   19.6987 C   0  0  0  0  0  0  0  0  0  0  0  0
  1  3  4  0
  1  7  4  0
  2 21  4  0
  2 27  4  0
  3  9  4  0
  3 10  4  0
  4  8  4  0
  4 18  4  0
  4 25  1  0
  5  9  4  0
  5 12  4  0
  6 13  1  0
  6 27  1  0
  7 28  4  0
  8 11  4  0
  9 29  4  0
 10 12  4  0
 11 24  1  0
 11 26  4  0
 12 25  1  0
 13 28  1  0
 14 20  4  0
 14 23  4  0
 15 17  4  0
 15 21  4  0
 16 19  4  0
 16 23  4  0
 17 22  4  0
 18 26  4  0
 19 24  4  0
 20 24  4  0
 22 27  4  0
 28 29  4  0
M  END
$$$$

 Created by Python create_sdf_string function

 29 33  0  0  0  0  0  0  0  0999 V2000
   10.7215   -3.3326   17.6437 C   0  0  0  0  0  0  0  0  0  0  0  0
    9.9489   -3.4675   24.6487 N   0  0  0  0  0  0  0  0  0  0  0  0
   10.0172   -4.4740   17.4101 C   0  0  0  0  0  0  0  0  0  0  0  0
    6.9051   -7.9575   16.4222 C   0  0  0  0  0  0  0  0  0  0  0  0
    8.9969   -6.3552   17.9668 N   0  0  0  0  0  0  0  0  0  0  0  0
   10.6702   -3.9051   22.4070 C   0  0  0  0  0  0  0  0  0  0  0  0
   11.0625   -3.0028   18.8894 C   0  0  0  0  0  0  0  0  0  0  0  0
    5.6180   -7.9194   16.1754 O   0  0  0  0  0  0  0  0  0  0  0  0
    9.7259   -5.3080   18.4485 C   0  0  0  0  0  0  0  0  0  0  0  0
    9.4578   -5.0200   16.3036 N   0  0  0  0  0  0  0  0  0  0  0  0
    5.0287   -8.9365   16.8223 C   0  0  0  0  0  0  0  0  0  0  0  0
    8.7742   -6.1498   16.6764 C   0  0  0  0  0  0  0  0  0  0  0  0
   10.9418   -3.4032   21.2053 O   0  0  0  0  0  0  0  0  0  0  0  0
    1.4797   -8.6258   16.2950 C   0  0  0  0  0  0  0  0  0  0  0  0
    9.2861   -1.2743   25.3585 C   0  0  0  0  0  0  0  0  0  0  0  0
    1.8892  -10.3985   17.7511 N   0  0  0  0  0  0  0  0  0  0  0  0
    9.6210   -0.6952   24.0976 C   0  0  0  0  0  0  0  0  0  0  0  0
    7.0792   -9.0217   17.1429 C   0  0  0  0  0  0  0  0  0  0  0  0
    3.1713  -10.1816   17.6634 C   0  0  0  0  0  0  0  0  0  0  0  0
    2.7878   -8.3822   16.2137 C   0  0  0  0  0  0  0  0  0  0  0  0
    9.4601   -2.6590   25.6528 C   0  0  0  0  0  0  0  0  0  0  0  0
   10.1182   -1.5672   23.1165 C   0  0  0  0  0  0  0  0  0  0  0  0
    1.0552   -9.6360   17.0650 C   0  0  0  0  0  0  0  0  0  0  0  0
    3.6519   -9.1783   16.9039 C   0  0  0  0  0  0  0  0  0  0  0  0
    7.8675   -7.0096   15.9415 C   0  0  0  0  0  0  0  0  0  0  0  0
    5.9733   -9.6553   17.3832 N   0  0  0  0  0  0  0  0  0  0  0  0
   10.2411   -2.9363   23.4301 C   0  0  0  0  0  0  0  0  0  0  0  0
   10.7288   -3.8197   19.9525 C   0  0  0  0  0  0  0  0  0  0  0  0
   10.1189   -5.0054   19.6987 C   0  0  0  0  0  0  0  0  0  0  0  0
  1  3  4  0
  1  7  4  0
  2 21  4  0
  2 27  4  0
  3  9  4  0
  3 10  4  0
  4  8  4  0
  4 18  4  0
  4 25  1  0
  5  9  4  0
  5 12  4  0
  6 13  1  0
  6 27  1  0
  7 28  4  0
  8 11  4  0
  9 29  4  0
 10 12  4  0
 11 24  1  0
 11 26  4  0
 12 25  1  0
 13 28  1  0
 14 20  4  0
 14 23  4  0
 15 17  4  0
 15 21  4  0
 16 19  4  0
 16 23  4  0
 17 22  4  0
 18 26  4  0
 19 24  4  0
 20 24  4  0
 22 27  4  0
 28 29  4  0
M  END
$$$$

 Created by Python create_sdf_string function

 29 33  0  0  0  0  0  0  0  0999 V2000
   10.7215   -3.3326   17.6437 C   0  0  0  0  0  0  0  0  0  0  0  0
    9.9489   -3.4675   24.6487 N   0  0  0  0  0  0  0  0  0  0  0  0
   10.0172   -4.4740   17.4101 C   0  0  0  0  0  0  0  0  0  0  0  0
    6.9051   -7.9575   16.4222 C   0  0  0  0  0  0  0  0  0  0  0  0
    8.9969   -6.3552   17.9668 N   0  0  0  0  0  0  0  0  0  0  0  0
   10.6702   -3.9051   22.4070 C   0  0  0  0  0  0  0  0  0  0  0  0
   11.0625   -3.0028   18.8894 C   0  0  0  0  0  0  0  0  0  0  0  0
    5.6180   -7.9194   16.1754 O   0  0  0  0  0  0  0  0  0  0  0  0
    9.7259   -5.3080   18.4485 C   0  0  0  0  0  0  0  0  0  0  0  0
    9.4578   -5.0200   16.3036 N   0  0  0  0  0  0  0  0  0  0  0  0
    5.0287   -8.9365   16.8223 C   0  0  0  0  0  0  0  0  0  0  0  0
    8.7742   -6.1498   16.6764 C   0  0  0  0  0  0  0  0  0  0  0  0
   10.9418   -3.4032   21.2053 O   0  0  0  0  0  0  0  0  0  0  0  0
    1.4797   -8.6258   16.2950 C   0  0  0  0  0  0  0  0  0  0  0  0
    9.2861   -1.2743   25.3585 C   0  0  0  0  0  0  0  0  0  0  0  0
    1.8892  -10.3985   17.7511 N   0  0  0  0  0  0  0  0  0  0  0  0
    9.6210   -0.6952   24.0976 C   0  0  0  0  0  0  0  0  0  0  0  0
    7.0792   -9.0217   17.1429 C   0  0  0  0  0  0  0  0  0  0  0  0
    3.1713  -10.1816   17.6634 C   0  0  0  0  0  0  0  0  0  0  0  0
    2.7878   -8.3822   16.2137 C   0  0  0  0  0  0  0  0  0  0  0  0
    9.4601   -2.6590   25.6528 C   0  0  0  0  0  0  0  0  0  0  0  0
   10.1182   -1.5672   23.1165 C   0  0  0  0  0  0  0  0  0  0  0  0
    1.0552   -9.6360   17.0650 C   0  0  0  0  0  0  0  0  0  0  0  0
    3.6519   -9.1783   16.9039 C   0  0  0  0  0  0  0  0  0  0  0  0
    7.8675   -7.0096   15.9415 C   0  0  0  0  0  0  0  0  0  0  0  0
    5.9733   -9.6553   17.3832 N   0  0  0  0  0  0  0  0  0  0  0  0
   10.2411   -2.9363   23.4301 C   0  0  0  0  0  0  0  0  0  0  0  0
   10.7288   -3.8197   19.9525 C   0  0  0  0  0  0  0  0  0  0  0  0
   10.1189   -5.0054   19.6987 C   0  0  0  0  0  0  0  0  0  0  0  0
  1  3  4  0
  1  7  4  0
  2 21  4  0
  2 27  4  0
  3  9  4  0
  3 10  4  0
  4  8  4  0
  4 18  4  0
  4 25  1  0
  5  9  4  0
  5 12  4  0
  6 13  1  0
  6 27  1  0
  7 28  4  0
  8 11  4  0
  9 29  4  0
 10 12  4  0
 11 24  1  0
 11 26  4  0
 12 25  1  0
 13 28  1  0
 14 20  4  0
 14 23  4  0
 15 17  4  0
 15 21  4  0
 16 19  4  0
 16 23  4  0
 17 22  4  0
 18 26  4  0
 19 24  4  0
 20 24  4  0
 22 27  4  0
 28 29  4  0
M  END
$$$$

 Created by Python create_sdf_string function

 29 33  0  0  0  0  0  0  0  0999 V2000
   10.7215   -3.3326   17.6437 C   0  0  0  0  0  0  0  0  0  0  0  0
    9.9489   -3.4675   24.6487 N   0  0  0  0  0  0  0  0  0  0  0  0
   10.0172   -4.4740   17.4101 C   0  0  0  0  0  0  0  0  0  0  0  0
    6.9051   -7.9575   16.4222 C   0  0  0  0  0  0  0  0  0  0  0  0
    8.9969   -6.3552   17.9668 N   0  0  0  0  0  0  0  0  0  0  0  0
   10.6702   -3.9051   22.4070 C   0  0  0  0  0  0  0  0  0  0  0  0
   11.0625   -3.0028   18.8894 C   0  0  0  0  0  0  0  0  0  0  0  0
    5.6180   -7.9194   16.1754 O   0  0  0  0  0  0  0  0  0  0  0  0
    9.7259   -5.3080   18.4485 C   0  0  0  0  0  0  0  0  0  0  0  0
    9.4578   -5.0200   16.3036 N   0  0  0  0  0  0  0  0  0  0  0  0
    5.0287   -8.9365   16.8223 C   0  0  0  0  0  0  0  0  0  0  0  0
    8.7742   -6.1498   16.6764 C   0  0  0  0  0  0  0  0  0  0  0  0
   10.9418   -3.4032   21.2053 O   0  0  0  0  0  0  0  0  0  0  0  0
    1.4797   -8.6258   16.2950 C   0  0  0  0  0  0  0  0  0  0  0  0
    9.2861   -1.2743   25.3585 C   0  0  0  0  0  0  0  0  0  0  0  0
    1.8892  -10.3985   17.7511 N   0  0  0  0  0  0  0  0  0  0  0  0
    9.6210   -0.6952   24.0976 C   0  0  0  0  0  0  0  0  0  0  0  0
    7.0792   -9.0217   17.1429 C   0  0  0  0  0  0  0  0  0  0  0  0
    3.1713  -10.1816   17.6634 C   0  0  0  0  0  0  0  0  0  0  0  0
    2.7878   -8.3822   16.2137 C   0  0  0  0  0  0  0  0  0  0  0  0
    9.4601   -2.6590   25.6528 C   0  0  0  0  0  0  0  0  0  0  0  0
   10.1182   -1.5672   23.1165 C   0  0  0  0  0  0  0  0  0  0  0  0
    1.0552   -9.6360   17.0650 C   0  0  0  0  0  0  0  0  0  0  0  0
    3.6519   -9.1783   16.9039 C   0  0  0  0  0  0  0  0  0  0  0  0
    7.8675   -7.0096   15.9415 C   0  0  0  0  0  0  0  0  0  0  0  0
    5.9733   -9.6553   17.3832 N   0  0  0  0  0  0  0  0  0  0  0  0
   10.2411   -2.9363   23.4301 C   0  0  0  0  0  0  0  0  0  0  0  0
   10.7288   -3.8197   19.9525 C   0  0  0  0  0  0  0  0  0  0  0  0
   10.1189   -5.0054   19.6987 C   0  0  0  0  0  0  0  0  0  0  0  0
  1  3  4  0
  1  7  4  0
  2 21  4  0
  2 27  4  0
  3  9  4  0
  3 10  4  0
  4  8  4  0
  4 18  4  0
  4 25  1  0
  5  9  4  0
  5 12  4  0
  6 13  1  0
  6 27  1  0
  7 28  4  0
  8 11  4  0
  9 29  4  0
 10 12  4  0
 11 24  1  0
 11 26  4  0
 12 25  1  0
 13 28  1  0
 14 20  4  0
 14 23  4  0
 15 17  4  0
 15 21  4  0
 16 19  4  0
 16 23  4  0
 17 22  4  0
 18 26  4  0
 19 24  4  0
 20 24  4  0
 22 27  4  0
 28 29  4  0
M  END
$$$$

 Created by Python create_sdf_string function

 29 33  0  0  0  0  0  0  0  0999 V2000
   10.7215   -3.3326   17.6437 C   0  0  0  0  0  0  0  0  0  0  0  0
    9.9489   -3.4675   24.6487 N   0  0  0  0  0  0  0  0  0  0  0  0
   10.0172   -4.4740   17.4101 C   0  0  0  0  0  0  0  0  0  0  0  0
    6.9051   -7.9575   16.4222 C   0  0  0  0  0  0  0  0  0  0  0  0
    8.9969   -6.3552   17.9668 N   0  0  0  0  0  0  0  0  0  0  0  0
   10.6702   -3.9051   22.4070 C   0  0  0  0  0  0  0  0  0  0  0  0
   11.0625   -3.0028   18.8894 C   0  0  0  0  0  0  0  0  0  0  0  0
    5.6180   -7.9194   16.1754 O   0  0  0  0  0  0  0  0  0  0  0  0
    9.7259   -5.3080   18.4485 C   0  0  0  0  0  0  0  0  0  0  0  0
    9.4578   -5.0200   16.3036 N   0  0  0  0  0  0  0  0  0  0  0  0
    5.0287   -8.9365   16.8223 C   0  0  0  0  0  0  0  0  0  0  0  0
    8.7742   -6.1498   16.6764 C   0  0  0  0  0  0  0  0  0  0  0  0
   10.9418   -3.4032   21.2053 O   0  0  0  0  0  0  0  0  0  0  0  0
    1.4797   -8.6258   16.2950 C   0  0  0  0  0  0  0  0  0  0  0  0
    9.2861   -1.2743   25.3585 C   0  0  0  0  0  0  0  0  0  0  0  0
    1.8892  -10.3985   17.7511 N   0  0  0  0  0  0  0  0  0  0  0  0
    9.6210   -0.6952   24.0976 C   0  0  0  0  0  0  0  0  0  0  0  0
    7.0792   -9.0217   17.1429 C   0  0  0  0  0  0  0  0  0  0  0  0
    3.1713  -10.1816   17.6634 C   0  0  0  0  0  0  0  0  0  0  0  0
    2.7878   -8.3822   16.2137 C   0  0  0  0  0  0  0  0  0  0  0  0
    9.4601   -2.6590   25.6528 C   0  0  0  0  0  0  0  0  0  0  0  0
   10.1182   -1.5672   23.1165 C   0  0  0  0  0  0  0  0  0  0  0  0
    1.0552   -9.6360   17.0650 C   0  0  0  0  0  0  0  0  0  0  0  0
    3.6519   -9.1783   16.9039 C   0  0  0  0  0  0  0  0  0  0  0  0
    7.8675   -7.0096   15.9415 C   0  0  0  0  0  0  0  0  0  0  0  0
    5.9733   -9.6553   17.3832 N   0  0  0  0  0  0  0  0  0  0  0  0
   10.2411   -2.9363   23.4301 C   0  0  0  0  0  0  0  0  0  0  0  0
   10.7288   -3.8197   19.9525 C   0  0  0  0  0  0  0  0  0  0  0  0
   10.1189   -5.0054   19.6987 C   0  0  0  0  0  0  0  0  0  0  0  0
  1  3  4  0
  1  7  4  0
  2 21  4  0
  2 27  4  0
  3  9  4  0
  3 10  4  0
  4  8  4  0
  4 18  4  0
  4 25  1  0
  5  9  4  0
  5 12  4  0
  6 13  1  0
  6 27  1  0
  7 28  4  0
  8 11  4  0
  9 29  4  0
 10 12  4  0
 11 24  1  0
 11 26  4  0
 12 25  1  0
 13 28  1  0
 14 20  4  0
 14 23  4  0
 15 17  4  0
 15 21  4  0
 16 19  4  0
 16 23  4  0
 17 22  4  0
 18 26  4  0
 19 24  4  0
 20 24  4  0
 22 27  4  0
 28 29  4  0
M  END
$$$$

 Created by Python create_sdf_string function

 29 33  0  0  0  0  0  0  0  0999 V2000
   10.7215   -3.3326   17.6437 C   0  0  0  0  0  0  0  0  0  0  0  0
    9.9489   -3.4675   24.6487 N   0  0  0  0  0  0  0  0  0  0  0  0
   10.0172   -4.4740   17.4101 C   0  0  0  0  0  0  0  0  0  0  0  0
    6.9051   -7.9575   16.4222 C   0  0  0  0  0  0  0  0  0  0  0  0
    8.9969   -6.3552   17.9668 N   0  0  0  0  0  0  0  0  0  0  0  0
   10.6702   -3.9051   22.4070 C   0  0  0  0  0  0  0  0  0  0  0  0
   11.0625   -3.0028   18.8894 C   0  0  0  0  0  0  0  0  0  0  0  0
    5.6180   -7.9194   16.1754 O   0  0  0  0  0  0  0  0  0  0  0  0
    9.7259   -5.3080   18.4485 C   0  0  0  0  0  0  0  0  0  0  0  0
    9.4578   -5.0200   16.3036 N   0  0  0  0  0  0  0  0  0  0  0  0
    5.0287   -8.9365   16.8223 C   0  0  0  0  0  0  0  0  0  0  0  0
    8.7742   -6.1498   16.6764 C   0  0  0  0  0  0  0  0  0  0  0  0
   10.9418   -3.4032   21.2053 O   0  0  0  0  0  0  0  0  0  0  0  0
    1.4797   -8.6258   16.2950 C   0  0  0  0  0  0  0  0  0  0  0  0
    9.2861   -1.2743   25.3585 C   0  0  0  0  0  0  0  0  0  0  0  0
    1.8892  -10.3985   17.7511 N   0  0  0  0  0  0  0  0  0  0  0  0
    9.6210   -0.6952   24.0976 C   0  0  0  0  0  0  0  0  0  0  0  0
    7.0792   -9.0217   17.1429 C   0  0  0  0  0  0  0  0  0  0  0  0
    3.1713  -10.1816   17.6634 C   0  0  0  0  0  0  0  0  0  0  0  0
    2.7878   -8.3822   16.2137 C   0  0  0  0  0  0  0  0  0  0  0  0
    9.4601   -2.6590   25.6528 C   0  0  0  0  0  0  0  0  0  0  0  0
   10.1182   -1.5672   23.1165 C   0  0  0  0  0  0  0  0  0  0  0  0
    1.0552   -9.6360   17.0650 C   0  0  0  0  0  0  0  0  0  0  0  0
    3.6519   -9.1783   16.9039 C   0  0  0  0  0  0  0  0  0  0  0  0
    7.8675   -7.0096   15.9415 C   0  0  0  0  0  0  0  0  0  0  0  0
    5.9733   -9.6553   17.3832 N   0  0  0  0  0  0  0  0  0  0  0  0
   10.2411   -2.9363   23.4301 C   0  0  0  0  0  0  0  0  0  0  0  0
   10.7288   -3.8197   19.9525 C   0  0  0  0  0  0  0  0  0  0  0  0
   10.1189   -5.0054   19.6987 C   0  0  0  0  0  0  0  0  0  0  0  0
  1  3  4  0
  1  7  4  0
  2 21  4  0
  2 27  4  0
  3  9  4  0
  3 10  4  0
  4  8  4  0
  4 18  4  0
  4 25  1  0
  5  9  4  0
  5 12  4  0
  6 13  1  0
  6 27  1  0
  7 28  4  0
  8 11  4  0
  9 29  4  0
 10 12  4  0
 11 24  1  0
 11 26  4  0
 12 25  1  0
 13 28  1  0
 14 20  4  0
 14 23  4  0
 15 17  4  0
 15 21  4  0
 16 19  4  0
 16 23  4  0
 17 22  4  0
 18 26  4  0
 19 24  4  0
 20 24  4  0
 22 27  4  0
 28 29  4  0
M  END
$$$$

 Created by Python create_sdf_string function

 29 33  0  0  0  0  0  0  0  0999 V2000
   10.7215   -3.3326   17.6437 C   0  0  0  0  0  0  0  0  0  0  0  0
    9.9489   -3.4675   24.6487 N   0  0  0  0  0  0  0  0  0  0  0  0
   10.0172   -4.4740   17.4101 C   0  0  0  0  0  0  0  0  0  0  0  0
    6.9051   -7.9575   16.4222 C   0  0  0  0  0  0  0  0  0  0  0  0
    8.9969   -6.3552   17.9668 N   0  0  0  0  0  0  0  0  0  0  0  0
   10.6702   -3.9051   22.4070 C   0  0  0  0  0  0  0  0  0  0  0  0
   11.0625   -3.0028   18.8894 C   0  0  0  0  0  0  0  0  0  0  0  0
    5.6180   -7.9194   16.1754 O   0  0  0  0  0  0  0  0  0  0  0  0
    9.7259   -5.3080   18.4485 C   0  0  0  0  0  0  0  0  0  0  0  0
    9.4578   -5.0200   16.3036 N   0  0  0  0  0  0  0  0  0  0  0  0
    5.0287   -8.9365   16.8223 C   0  0  0  0  0  0  0  0  0  0  0  0
    8.7742   -6.1498   16.6764 C   0  0  0  0  0  0  0  0  0  0  0  0
   10.9418   -3.4032   21.2053 O   0  0  0  0  0  0  0  0  0  0  0  0
    1.4797   -8.6258   16.2950 C   0  0  0  0  0  0  0  0  0  0  0  0
    9.2861   -1.2743   25.3585 C   0  0  0  0  0  0  0  0  0  0  0  0
    1.8892  -10.3985   17.7511 N   0  0  0  0  0  0  0  0  0  0  0  0
    9.6210   -0.6952   24.0976 C   0  0  0  0  0  0  0  0  0  0  0  0
    7.0792   -9.0217   17.1429 C   0  0  0  0  0  0  0  0  0  0  0  0
    3.1713  -10.1816   17.6634 C   0  0  0  0  0  0  0  0  0  0  0  0
    2.7878   -8.3822   16.2137 C   0  0  0  0  0  0  0  0  0  0  0  0
    9.4601   -2.6590   25.6528 C   0  0  0  0  0  0  0  0  0  0  0  0
   10.1182   -1.5672   23.1165 C   0  0  0  0  0  0  0  0  0  0  0  0
    1.0552   -9.6360   17.0650 C   0  0  0  0  0  0  0  0  0  0  0  0
    3.6519   -9.1783   16.9039 C   0  0  0  0  0  0  0  0  0  0  0  0
    7.8675   -7.0096   15.9415 C   0  0  0  0  0  0  0  0  0  0  0  0
    5.9733   -9.6553   17.3832 N   0  0  0  0  0  0  0  0  0  0  0  0
   10.2411   -2.9363   23.4301 C   0  0  0  0  0  0  0  0  0  0  0  0
   10.7288   -3.8197   19.9525 C   0  0  0  0  0  0  0  0  0  0  0  0
   10.1189   -5.0054   19.6987 C   0  0  0  0  0  0  0  0  0  0  0  0
  1  3  4  0
  1  7  4  0
  2 21  4  0
  2 27  4  0
  3  9  4  0
  3 10  4  0
  4  8  4  0
  4 18  4  0
  4 25  1  0
  5  9  4  0
  5 12  4  0
  6 13  1  0
  6 27  1  0
  7 28  4  0
  8 11  4  0
  9 29  4  0
 10 12  4  0
 11 24  1  0
 11 26  4  0
 12 25  1  0
 13 28  1  0
 14 20  4  0
 14 23  4  0
 15 17  4  0
 15 21  4  0
 16 19  4  0
 16 23  4  0
 17 22  4  0
 18 26  4  0
 19 24  4  0
 20 24  4  0
 22 27  4  0
 28 29  4  0
M  END
$$$$

 Created by Python create_sdf_string function

 29 33  0  0  0  0  0  0  0  0999 V2000
   10.7215   -3.3326   17.6437 C   0  0  0  0  0  0  0  0  0  0  0  0
    9.9489   -3.4675   24.6487 N   0  0  0  0  0  0  0  0  0  0  0  0
   10.0172   -4.4740   17.4101 C   0  0  0  0  0  0  0  0  0  0  0  0
    6.9051   -7.9575   16.4222 C   0  0  0  0  0  0  0  0  0  0  0  0
    8.9969   -6.3552   17.9668 N   0  0  0  0  0  0  0  0  0  0  0  0
   10.6702   -3.9051   22.4070 C   0  0  0  0  0  0  0  0  0  0  0  0
   11.0625   -3.0028   18.8894 C   0  0  0  0  0  0  0  0  0  0  0  0
    5.6180   -7.9194   16.1754 O   0  0  0  0  0  0  0  0  0  0  0  0
    9.7259   -5.3080   18.4485 C   0  0  0  0  0  0  0  0  0  0  0  0
    9.4578   -5.0200   16.3036 N   0  0  0  0  0  0  0  0  0  0  0  0
    5.0287   -8.9365   16.8223 C   0  0  0  0  0  0  0  0  0  0  0  0
    8.7742   -6.1498   16.6764 C   0  0  0  0  0  0  0  0  0  0  0  0
   10.9418   -3.4032   21.2053 O   0  0  0  0  0  0  0  0  0  0  0  0
    1.4797   -8.6258   16.2950 C   0  0  0  0  0  0  0  0  0  0  0  0
    9.2861   -1.2743   25.3585 C   0  0  0  0  0  0  0  0  0  0  0  0
    1.8892  -10.3985   17.7511 N   0  0  0  0  0  0  0  0  0  0  0  0
    9.6210   -0.6952   24.0976 C   0  0  0  0  0  0  0  0  0  0  0  0
    7.0792   -9.0217   17.1429 C   0  0  0  0  0  0  0  0  0  0  0  0
    3.1713  -10.1816   17.6634 C   0  0  0  0  0  0  0  0  0  0  0  0
    2.7878   -8.3822   16.2137 C   0  0  0  0  0  0  0  0  0  0  0  0
    9.4601   -2.6590   25.6528 C   0  0  0  0  0  0  0  0  0  0  0  0
   10.1182   -1.5672   23.1165 C   0  0  0  0  0  0  0  0  0  0  0  0
    1.0552   -9.6360   17.0650 C   0  0  0  0  0  0  0  0  0  0  0  0
    3.6519   -9.1783   16.9039 C   0  0  0  0  0  0  0  0  0  0  0  0
    7.8675   -7.0096   15.9415 C   0  0  0  0  0  0  0  0  0  0  0  0
    5.9733   -9.6553   17.3832 N   0  0  0  0  0  0  0  0  0  0  0  0
   10.2411   -2.9363   23.4301 C   0  0  0  0  0  0  0  0  0  0  0  0
   10.7288   -3.8197   19.9525 C   0  0  0  0  0  0  0  0  0  0  0  0
   10.1189   -5.0054   19.6987 C   0  0  0  0  0  0  0  0  0  0  0  0
  1  3  4  0
  1  7  4  0
  2 21  4  0
  2 27  4  0
  3  9  4  0
  3 10  4  0
  4  8  4  0
  4 18  4  0
  4 25  1  0
  5  9  4  0
  5 12  4  0
  6 13  1  0
  6 27  1  0
  7 28  4  0
  8 11  4  0
  9 29  4  0
 10 12  4  0
 11 24  1  0
 11 26  4  0
 12 25  1  0
 13 28  1  0
 14 20  4  0
 14 23  4  0
 15 17  4  0
 15 21  4  0
 16 19  4  0
 16 23  4  0
 17 22  4  0
 18 26  4  0
 19 24  4  0
 20 24  4  0
 22 27  4  0
 28 29  4  0
M  END
$$$$

 Created by Python create_sdf_string function

 29 33  0  0  0  0  0  0  0  0999 V2000
   10.7215   -3.3326   17.6437 C   0  0  0  0  0  0  0  0  0  0  0  0
    9.9489   -3.4675   24.6487 N   0  0  0  0  0  0  0  0  0  0  0  0
   10.0172   -4.4740   17.4101 C   0  0  0  0  0  0  0  0  0  0  0  0
    6.9051   -7.9575   16.4222 C   0  0  0  0  0  0  0  0  0  0  0  0
    8.9969   -6.3552   17.9668 N   0  0  0  0  0  0  0  0  0  0  0  0
   10.6702   -3.9051   22.4070 C   0  0  0  0  0  0  0  0  0  0  0  0
   11.0625   -3.0028   18.8894 C   0  0  0  0  0  0  0  0  0  0  0  0
    5.6180   -7.9194   16.1754 O   0  0  0  0  0  0  0  0  0  0  0  0
    9.7259   -5.3080   18.4485 C   0  0  0  0  0  0  0  0  0  0  0  0
    9.4578   -5.0200   16.3036 N   0  0  0  0  0  0  0  0  0  0  0  0
    5.0287   -8.9365   16.8223 C   0  0  0  0  0  0  0  0  0  0  0  0
    8.7742   -6.1498   16.6764 C   0  0  0  0  0  0  0  0  0  0  0  0
   10.9418   -3.4032   21.2053 O   0  0  0  0  0  0  0  0  0  0  0  0
    1.4797   -8.6258   16.2950 C   0  0  0  0  0  0  0  0  0  0  0  0
    9.2861   -1.2743   25.3585 C   0  0  0  0  0  0  0  0  0  0  0  0
    1.8892  -10.3985   17.7511 N   0  0  0  0  0  0  0  0  0  0  0  0
    9.6210   -0.6952   24.0976 C   0  0  0  0  0  0  0  0  0  0  0  0
    7.0792   -9.0217   17.1429 C   0  0  0  0  0  0  0  0  0  0  0  0
    3.1713  -10.1816   17.6634 C   0  0  0  0  0  0  0  0  0  0  0  0
    2.7878   -8.3822   16.2137 C   0  0  0  0  0  0  0  0  0  0  0  0
    9.4601   -2.6590   25.6528 C   0  0  0  0  0  0  0  0  0  0  0  0
   10.1182   -1.5672   23.1165 C   0  0  0  0  0  0  0  0  0  0  0  0
    1.0552   -9.6360   17.0650 C   0  0  0  0  0  0  0  0  0  0  0  0
    3.6519   -9.1783   16.9039 C   0  0  0  0  0  0  0  0  0  0  0  0
    7.8675   -7.0096   15.9415 C   0  0  0  0  0  0  0  0  0  0  0  0
    5.9733   -9.6553   17.3832 N   0  0  0  0  0  0  0  0  0  0  0  0
   10.2411   -2.9363   23.4301 C   0  0  0  0  0  0  0  0  0  0  0  0
   10.7288   -3.8197   19.9525 C   0  0  0  0  0  0  0  0  0  0  0  0
   10.1189   -5.0054   19.6987 C   0  0  0  0  0  0  0  0  0  0  0  0
  1  3  4  0
  1  7  4  0
  2 21  4  0
  2 27  4  0
  3  9  4  0
  3 10  4  0
  4  8  4  0
  4 18  4  0
  4 25  1  0
  5  9  4  0
  5 12  4  0
  6 13  1  0
  6 27  1  0
  7 28  4  0
  8 11  4  0
  9 29  4  0
 10 12  4  0
 11 24  1  0
 11 26  4  0
 12 25  1  0
 13 28  1  0
 14 20  4  0
 14 23  4  0
 15 17  4  0
 15 21  4  0
 16 19  4  0
 16 23  4  0
 17 22  4  0
 18 26  4  0
 19 24  4  0
 20 24  4  0
 22 27  4  0
 28 29  4  0
M  END
$$$$

 Created by Python create_sdf_string function

 29 33  0  0  0  0  0  0  0  0999 V2000
   10.7215   -3.3326   17.6437 C   0  0  0  0  0  0  0  0  0  0  0  0
    9.9489   -3.4675   24.6487 N   0  0  0  0  0  0  0  0  0  0  0  0
   10.0172   -4.4740   17.4101 C   0  0  0  0  0  0  0  0  0  0  0  0
    6.9051   -7.9575   16.4222 C   0  0  0  0  0  0  0  0  0  0  0  0
    8.9969   -6.3552   17.9668 N   0  0  0  0  0  0  0  0  0  0  0  0
   10.6702   -3.9051   22.4070 C   0  0  0  0  0  0  0  0  0  0  0  0
   11.0625   -3.0028   18.8894 C   0  0  0  0  0  0  0  0  0  0  0  0
    5.6180   -7.9194   16.1754 O   0  0  0  0  0  0  0  0  0  0  0  0
    9.7259   -5.3080   18.4485 C   0  0  0  0  0  0  0  0  0  0  0  0
    9.4578   -5.0200   16.3036 N   0  0  0  0  0  0  0  0  0  0  0  0
    5.0287   -8.9365   16.8223 C   0  0  0  0  0  0  0  0  0  0  0  0
    8.7742   -6.1498   16.6764 C   0  0  0  0  0  0  0  0  0  0  0  0
   10.9418   -3.4032   21.2053 O   0  0  0  0  0  0  0  0  0  0  0  0
    1.4797   -8.6258   16.2950 C   0  0  0  0  0  0  0  0  0  0  0  0
    9.2861   -1.2743   25.3585 C   0  0  0  0  0  0  0  0  0  0  0  0
    1.8892  -10.3985   17.7511 N   0  0  0  0  0  0  0  0  0  0  0  0
    9.6210   -0.6952   24.0976 C   0  0  0  0  0  0  0  0  0  0  0  0
    7.0792   -9.0217   17.1429 C   0  0  0  0  0  0  0  0  0  0  0  0
    3.1713  -10.1816   17.6634 C   0  0  0  0  0  0  0  0  0  0  0  0
    2.7878   -8.3822   16.2137 C   0  0  0  0  0  0  0  0  0  0  0  0
    9.4601   -2.6590   25.6528 C   0  0  0  0  0  0  0  0  0  0  0  0
   10.1182   -1.5672   23.1165 C   0  0  0  0  0  0  0  0  0  0  0  0
    1.0552   -9.6360   17.0650 C   0  0  0  0  0  0  0  0  0  0  0  0
    3.6519   -9.1783   16.9039 C   0  0  0  0  0  0  0  0  0  0  0  0
    7.8675   -7.0096   15.9415 C   0  0  0  0  0  0  0  0  0  0  0  0
    5.9733   -9.6553   17.3832 N   0  0  0  0  0  0  0  0  0  0  0  0
   10.2411   -2.9363   23.4301 C   0  0  0  0  0  0  0  0  0  0  0  0
   10.7288   -3.8197   19.9525 C   0  0  0  0  0  0  0  0  0  0  0  0
   10.1189   -5.0054   19.6987 C   0  0  0  0  0  0  0  0  0  0  0  0
  1  3  4  0
  1  7  4  0
  2 21  4  0
  2 27  4  0
  3  9  4  0
  3 10  4  0
  4  8  4  0
  4 18  4  0
  4 25  1  0
  5  9  4  0
  5 12  4  0
  6 13  1  0
  6 27  1  0
  7 28  4  0
  8 11  4  0
  9 29  4  0
 10 12  4  0
 11 24  1  0
 11 26  4  0
 12 25  1  0
 13 28  1  0
 14 20  4  0
 14 23  4  0
 15 17  4  0
 15 21  4  0
 16 19  4  0
 16 23  4  0
 17 22  4  0
 18 26  4  0
 19 24  4  0
 20 24  4  0
 22 27  4  0
 28 29  4  0
M  END
$$$$

 Created by Python create_sdf_string function

 29 33  0  0  0  0  0  0  0  0999 V2000
   10.7215   -3.3326   17.6437 C   0  0  0  0  0  0  0  0  0  0  0  0
    9.9489   -3.4675   24.6487 N   0  0  0  0  0  0  0  0  0  0  0  0
   10.0172   -4.4740   17.4101 C   0  0  0  0  0  0  0  0  0  0  0  0
    6.9051   -7.9575   16.4222 C   0  0  0  0  0  0  0  0  0  0  0  0
    8.9969   -6.3552   17.9668 N   0  0  0  0  0  0  0  0  0  0  0  0
   10.6702   -3.9051   22.4070 C   0  0  0  0  0  0  0  0  0  0  0  0
   11.0625   -3.0028   18.8894 C   0  0  0  0  0  0  0  0  0  0  0  0
    5.6180   -7.9194   16.1754 O   0  0  0  0  0  0  0  0  0  0  0  0
    9.7259   -5.3080   18.4485 C   0  0  0  0  0  0  0  0  0  0  0  0
    9.4578   -5.0200   16.3036 N   0  0  0  0  0  0  0  0  0  0  0  0
    5.0287   -8.9365   16.8223 C   0  0  0  0  0  0  0  0  0  0  0  0
    8.7742   -6.1498   16.6764 C   0  0  0  0  0  0  0  0  0  0  0  0
   10.9418   -3.4032   21.2053 O   0  0  0  0  0  0  0  0  0  0  0  0
    1.4797   -8.6258   16.2950 C   0  0  0  0  0  0  0  0  0  0  0  0
    9.2861   -1.2743   25.3585 C   0  0  0  0  0  0  0  0  0  0  0  0
    1.8892  -10.3985   17.7511 N   0  0  0  0  0  0  0  0  0  0  0  0
    9.6210   -0.6952   24.0976 C   0  0  0  0  0  0  0  0  0  0  0  0
    7.0792   -9.0217   17.1429 C   0  0  0  0  0  0  0  0  0  0  0  0
    3.1713  -10.1816   17.6634 C   0  0  0  0  0  0  0  0  0  0  0  0
    2.7878   -8.3822   16.2137 C   0  0  0  0  0  0  0  0  0  0  0  0
    9.4601   -2.6590   25.6528 C   0  0  0  0  0  0  0  0  0  0  0  0
   10.1182   -1.5672   23.1165 C   0  0  0  0  0  0  0  0  0  0  0  0
    1.0552   -9.6360   17.0650 C   0  0  0  0  0  0  0  0  0  0  0  0
    3.6519   -9.1783   16.9039 C   0  0  0  0  0  0  0  0  0  0  0  0
    7.8675   -7.0096   15.9415 C   0  0  0  0  0  0  0  0  0  0  0  0
    5.9733   -9.6553   17.3832 N   0  0  0  0  0  0  0  0  0  0  0  0
   10.2411   -2.9363   23.4301 C   0  0  0  0  0  0  0  0  0  0  0  0
   10.7288   -3.8197   19.9525 C   0  0  0  0  0  0  0  0  0  0  0  0
   10.1189   -5.0054   19.6987 C   0  0  0  0  0  0  0  0  0  0  0  0
  1  3  4  0
  1  7  4  0
  2 21  4  0
  2 27  4  0
  3  9  4  0
  3 10  4  0
  4  8  4  0
  4 18  4  0
  4 25  1  0
  5  9  4  0
  5 12  4  0
  6 13  1  0
  6 27  1  0
  7 28  4  0
  8 11  4  0
  9 29  4  0
 10 12  4  0
 11 24  1  0
 11 26  4  0
 12 25  1  0
 13 28  1  0
 14 20  4  0
 14 23  4  0
 15 17  4  0
 15 21  4  0
 16 19  4  0
 16 23  4  0
 17 22  4  0
 18 26  4  0
 19 24  4  0
 20 24  4  0
 22 27  4  0
 28 29  4  0
M  END
$$$$

 Created by Python create_sdf_string function

 29 33  0  0  0  0  0  0  0  0999 V2000
   10.7215   -3.3326   17.6437 C   0  0  0  0  0  0  0  0  0  0  0  0
    9.9489   -3.4675   24.6487 N   0  0  0  0  0  0  0  0  0  0  0  0
   10.0172   -4.4740   17.4101 C   0  0  0  0  0  0  0  0  0  0  0  0
    6.9051   -7.9575   16.4222 C   0  0  0  0  0  0  0  0  0  0  0  0
    8.9969   -6.3552   17.9668 N   0  0  0  0  0  0  0  0  0  0  0  0
   10.6702   -3.9051   22.4070 C   0  0  0  0  0  0  0  0  0  0  0  0
   11.0625   -3.0028   18.8894 C   0  0  0  0  0  0  0  0  0  0  0  0
    5.6180   -7.9194   16.1754 O   0  0  0  0  0  0  0  0  0  0  0  0
    9.7259   -5.3080   18.4485 C   0  0  0  0  0  0  0  0  0  0  0  0
    9.4578   -5.0200   16.3036 N   0  0  0  0  0  0  0  0  0  0  0  0
    5.0287   -8.9365   16.8223 C   0  0  0  0  0  0  0  0  0  0  0  0
    8.7742   -6.1498   16.6764 C   0  0  0  0  0  0  0  0  0  0  0  0
   10.9418   -3.4032   21.2053 O   0  0  0  0  0  0  0  0  0  0  0  0
    1.4797   -8.6258   16.2950 C   0  0  0  0  0  0  0  0  0  0  0  0
    9.2861   -1.2743   25.3585 C   0  0  0  0  0  0  0  0  0  0  0  0
    1.8892  -10.3985   17.7511 N   0  0  0  0  0  0  0  0  0  0  0  0
    9.6210   -0.6952   24.0976 C   0  0  0  0  0  0  0  0  0  0  0  0
    7.0792   -9.0217   17.1429 C   0  0  0  0  0  0  0  0  0  0  0  0
    3.1713  -10.1816   17.6634 C   0  0  0  0  0  0  0  0  0  0  0  0
    2.7878   -8.3822   16.2137 C   0  0  0  0  0  0  0  0  0  0  0  0
    9.4601   -2.6590   25.6528 C   0  0  0  0  0  0  0  0  0  0  0  0
   10.1182   -1.5672   23.1165 C   0  0  0  0  0  0  0  0  0  0  0  0
    1.0552   -9.6360   17.0650 C   0  0  0  0  0  0  0  0  0  0  0  0
    3.6519   -9.1783   16.9039 C   0  0  0  0  0  0  0  0  0  0  0  0
    7.8675   -7.0096   15.9415 C   0  0  0  0  0  0  0  0  0  0  0  0
    5.9733   -9.6553   17.3832 N   0  0  0  0  0  0  0  0  0  0  0  0
   10.2411   -2.9363   23.4301 C   0  0  0  0  0  0  0  0  0  0  0  0
   10.7288   -3.8197   19.9525 C   0  0  0  0  0  0  0  0  0  0  0  0
   10.1189   -5.0054   19.6987 C   0  0  0  0  0  0  0  0  0  0  0  0
  1  3  4  0
  1  7  4  0
  2 21  4  0
  2 27  4  0
  3  9  4  0
  3 10  4  0
  4  8  4  0
  4 18  4  0
  4 25  1  0
  5  9  4  0
  5 12  4  0
  6 13  1  0
  6 27  1  0
  7 28  4  0
  8 11  4  0
  9 29  4  0
 10 12  4  0
 11 24  1  0
 11 26  4  0
 12 25  1  0
 13 28  1  0
 14 20  4  0
 14 23  4  0
 15 17  4  0
 15 21  4  0
 16 19  4  0
 16 23  4  0
 17 22  4  0
 18 26  4  0
 19 24  4  0
 20 24  4  0
 22 27  4  0
 28 29  4  0
M  END
$$$$

 Created by Python create_sdf_string function

 29 33  0  0  0  0  0  0  0  0999 V2000
   10.7215   -3.3326   17.6437 C   0  0  0  0  0  0  0  0  0  0  0  0
    9.9489   -3.4675   24.6487 N   0  0  0  0  0  0  0  0  0  0  0  0
   10.0172   -4.4740   17.4101 C   0  0  0  0  0  0  0  0  0  0  0  0
    6.9051   -7.9575   16.4222 C   0  0  0  0  0  0  0  0  0  0  0  0
    8.9969   -6.3552   17.9668 N   0  0  0  0  0  0  0  0  0  0  0  0
   10.6702   -3.9051   22.4070 C   0  0  0  0  0  0  0  0  0  0  0  0
   11.0625   -3.0028   18.8894 C   0  0  0  0  0  0  0  0  0  0  0  0
    5.6180   -7.9194   16.1754 O   0  0  0  0  0  0  0  0  0  0  0  0
    9.7259   -5.3080   18.4485 C   0  0  0  0  0  0  0  0  0  0  0  0
    9.4578   -5.0200   16.3036 N   0  0  0  0  0  0  0  0  0  0  0  0
    5.0287   -8.9365   16.8223 C   0  0  0  0  0  0  0  0  0  0  0  0
    8.7742   -6.1498   16.6764 C   0  0  0  0  0  0  0  0  0  0  0  0
   10.9418   -3.4032   21.2053 O   0  0  0  0  0  0  0  0  0  0  0  0
    1.4797   -8.6258   16.2950 C   0  0  0  0  0  0  0  0  0  0  0  0
    9.2861   -1.2743   25.3585 C   0  0  0  0  0  0  0  0  0  0  0  0
    1.8892  -10.3985   17.7511 N   0  0  0  0  0  0  0  0  0  0  0  0
    9.6210   -0.6952   24.0976 C   0  0  0  0  0  0  0  0  0  0  0  0
    7.0792   -9.0217   17.1429 C   0  0  0  0  0  0  0  0  0  0  0  0
    3.1713  -10.1816   17.6634 C   0  0  0  0  0  0  0  0  0  0  0  0
    2.7878   -8.3822   16.2137 C   0  0  0  0  0  0  0  0  0  0  0  0
    9.4601   -2.6590   25.6528 C   0  0  0  0  0  0  0  0  0  0  0  0
   10.1182   -1.5672   23.1165 C   0  0  0  0  0  0  0  0  0  0  0  0
    1.0552   -9.6360   17.0650 C   0  0  0  0  0  0  0  0  0  0  0  0
    3.6519   -9.1783   16.9039 C   0  0  0  0  0  0  0  0  0  0  0  0
    7.8675   -7.0096   15.9415 C   0  0  0  0  0  0  0  0  0  0  0  0
    5.9733   -9.6553   17.3832 N   0  0  0  0  0  0  0  0  0  0  0  0
   10.2411   -2.9363   23.4301 C   0  0  0  0  0  0  0  0  0  0  0  0
   10.7288   -3.8197   19.9525 C   0  0  0  0  0  0  0  0  0  0  0  0
   10.1189   -5.0054   19.6987 C   0  0  0  0  0  0  0  0  0  0  0  0
  1  3  4  0
  1  7  4  0
  2 21  4  0
  2 27  4  0
  3  9  4  0
  3 10  4  0
  4  8  4  0
  4 18  4  0
  4 25  1  0
  5  9  4  0
  5 12  4  0
  6 13  1  0
  6 27  1  0
  7 28  4  0
  8 11  4  0
  9 29  4  0
 10 12  4  0
 11 24  1  0
 11 26  4  0
 12 25  1  0
 13 28  1  0
 14 20  4  0
 14 23  4  0
 15 17  4  0
 15 21  4  0
 16 19  4  0
 16 23  4  0
 17 22  4  0
 18 26  4  0
 19 24  4  0
 20 24  4  0
 22 27  4  0
 28 29  4  0
M  END
$$$$

 Created by Python create_sdf_string function

 29 33  0  0  0  0  0  0  0  0999 V2000
   10.7215   -3.3326   17.6437 C   0  0  0  0  0  0  0  0  0  0  0  0
    9.9489   -3.4675   24.6487 N   0  0  0  0  0  0  0  0  0  0  0  0
   10.0172   -4.4740   17.4101 C   0  0  0  0  0  0  0  0  0  0  0  0
    6.9051   -7.9575   16.4222 C   0  0  0  0  0  0  0  0  0  0  0  0
    8.9969   -6.3552   17.9668 N   0  0  0  0  0  0  0  0  0  0  0  0
   10.6702   -3.9051   22.4070 C   0  0  0  0  0  0  0  0  0  0  0  0
   11.0625   -3.0028   18.8894 C   0  0  0  0  0  0  0  0  0  0  0  0
    5.6180   -7.9194   16.1754 O   0  0  0  0  0  0  0  0  0  0  0  0
    9.7259   -5.3080   18.4485 C   0  0  0  0  0  0  0  0  0  0  0  0
    9.4578   -5.0200   16.3036 N   0  0  0  0  0  0  0  0  0  0  0  0
    5.0287   -8.9365   16.8223 C   0  0  0  0  0  0  0  0  0  0  0  0
    8.7742   -6.1498   16.6764 C   0  0  0  0  0  0  0  0  0  0  0  0
   10.9418   -3.4032   21.2053 O   0  0  0  0  0  0  0  0  0  0  0  0
    1.4797   -8.6258   16.2950 C   0  0  0  0  0  0  0  0  0  0  0  0
    9.2861   -1.2743   25.3585 C   0  0  0  0  0  0  0  0  0  0  0  0
    1.8892  -10.3985   17.7511 N   0  0  0  0  0  0  0  0  0  0  0  0
    9.6210   -0.6952   24.0976 C   0  0  0  0  0  0  0  0  0  0  0  0
    7.0792   -9.0217   17.1429 C   0  0  0  0  0  0  0  0  0  0  0  0
    3.1713  -10.1816   17.6634 C   0  0  0  0  0  0  0  0  0  0  0  0
    2.7878   -8.3822   16.2137 C   0  0  0  0  0  0  0  0  0  0  0  0
    9.4601   -2.6590   25.6528 C   0  0  0  0  0  0  0  0  0  0  0  0
   10.1182   -1.5672   23.1165 C   0  0  0  0  0  0  0  0  0  0  0  0
    1.0552   -9.6360   17.0650 C   0  0  0  0  0  0  0  0  0  0  0  0
    3.6519   -9.1783   16.9039 C   0  0  0  0  0  0  0  0  0  0  0  0
    7.8675   -7.0096   15.9415 C   0  0  0  0  0  0  0  0  0  0  0  0
    5.9733   -9.6553   17.3832 N   0  0  0  0  0  0  0  0  0  0  0  0
   10.2411   -2.9363   23.4301 C   0  0  0  0  0  0  0  0  0  0  0  0
   10.7288   -3.8197   19.9525 C   0  0  0  0  0  0  0  0  0  0  0  0
   10.1189   -5.0054   19.6987 C   0  0  0  0  0  0  0  0  0  0  0  0
  1  3  4  0
  1  7  4  0
  2 21  4  0
  2 27  4  0
  3  9  4  0
  3 10  4  0
  4  8  4  0
  4 18  4  0
  4 25  1  0
  5  9  4  0
  5 12  4  0
  6 13  1  0
  6 27  1  0
  7 28  4  0
  8 11  4  0
  9 29  4  0
 10 12  4  0
 11 24  1  0
 11 26  4  0
 12 25  1  0
 13 28  1  0
 14 20  4  0
 14 23  4  0
 15 17  4  0
 15 21  4  0
 16 19  4  0
 16 23  4  0
 17 22  4  0
 18 26  4  0
 19 24  4  0
 20 24  4  0
 22 27  4  0
 28 29  4  0
M  END
$$$$

 Created by Python create_sdf_string function

 29 33  0  0  0  0  0  0  0  0999 V2000
   10.7215   -3.3326   17.6437 C   0  0  0  0  0  0  0  0  0  0  0  0
    9.9489   -3.4675   24.6487 N   0  0  0  0  0  0  0  0  0  0  0  0
   10.0172   -4.4740   17.4101 C   0  0  0  0  0  0  0  0  0  0  0  0
    6.9051   -7.9575   16.4222 C   0  0  0  0  0  0  0  0  0  0  0  0
    8.9969   -6.3552   17.9668 N   0  0  0  0  0  0  0  0  0  0  0  0
   10.6702   -3.9051   22.4070 C   0  0  0  0  0  0  0  0  0  0  0  0
   11.0625   -3.0028   18.8894 C   0  0  0  0  0  0  0  0  0  0  0  0
    5.6180   -7.9194   16.1754 O   0  0  0  0  0  0  0  0  0  0  0  0
    9.7259   -5.3080   18.4485 C   0  0  0  0  0  0  0  0  0  0  0  0
    9.4578   -5.0200   16.3036 N   0  0  0  0  0  0  0  0  0  0  0  0
    5.0287   -8.9365   16.8223 C   0  0  0  0  0  0  0  0  0  0  0  0
    8.7742   -6.1498   16.6764 C   0  0  0  0  0  0  0  0  0  0  0  0
   10.9418   -3.4032   21.2053 O   0  0  0  0  0  0  0  0  0  0  0  0
    1.4797   -8.6258   16.2950 C   0  0  0  0  0  0  0  0  0  0  0  0
    9.2861   -1.2743   25.3585 C   0  0  0  0  0  0  0  0  0  0  0  0
    1.8892  -10.3985   17.7511 N   0  0  0  0  0  0  0  0  0  0  0  0
    9.6210   -0.6952   24.0976 C   0  0  0  0  0  0  0  0  0  0  0  0
    7.0792   -9.0217   17.1429 C   0  0  0  0  0  0  0  0  0  0  0  0
    3.1713  -10.1816   17.6634 C   0  0  0  0  0  0  0  0  0  0  0  0
    2.7878   -8.3822   16.2137 C   0  0  0  0  0  0  0  0  0  0  0  0
    9.4601   -2.6590   25.6528 C   0  0  0  0  0  0  0  0  0  0  0  0
   10.1182   -1.5672   23.1165 C   0  0  0  0  0  0  0  0  0  0  0  0
    1.0552   -9.6360   17.0650 C   0  0  0  0  0  0  0  0  0  0  0  0
    3.6519   -9.1783   16.9039 C   0  0  0  0  0  0  0  0  0  0  0  0
    7.8675   -7.0096   15.9415 C   0  0  0  0  0  0  0  0  0  0  0  0
    5.9733   -9.6553   17.3832 N   0  0  0  0  0  0  0  0  0  0  0  0
   10.2411   -2.9363   23.4301 C   0  0  0  0  0  0  0  0  0  0  0  0
   10.7288   -3.8197   19.9525 C   0  0  0  0  0  0  0  0  0  0  0  0
   10.1189   -5.0054   19.6987 C   0  0  0  0  0  0  0  0  0  0  0  0
  1  3  4  0
  1  7  4  0
  2 21  4  0
  2 27  4  0
  3  9  4  0
  3 10  4  0
  4  8  4  0
  4 18  4  0
  4 25  1  0
  5  9  4  0
  5 12  4  0
  6 13  1  0
  6 27  1  0
  7 28  4  0
  8 11  4  0
  9 29  4  0
 10 12  4  0
 11 24  1  0
 11 26  4  0
 12 25  1  0
 13 28  1  0
 14 20  4  0
 14 23  4  0
 15 17  4  0
 15 21  4  0
 16 19  4  0
 16 23  4  0
 17 22  4  0
 18 26  4  0
 19 24  4  0
 20 24  4  0
 22 27  4  0
 28 29  4  0
M  END
$$$$

 Created by Python create_sdf_string function

 29 33  0  0  0  0  0  0  0  0999 V2000
   10.7215   -3.3326   17.6437 C   0  0  0  0  0  0  0  0  0  0  0  0
    9.9489   -3.4675   24.6487 N   0  0  0  0  0  0  0  0  0  0  0  0
   10.0172   -4.4740   17.4101 C   0  0  0  0  0  0  0  0  0  0  0  0
    6.9051   -7.9575   16.4222 C   0  0  0  0  0  0  0  0  0  0  0  0
    8.9969   -6.3552   17.9668 N   0  0  0  0  0  0  0  0  0  0  0  0
   10.6702   -3.9051   22.4070 C   0  0  0  0  0  0  0  0  0  0  0  0
   11.0625   -3.0028   18.8894 C   0  0  0  0  0  0  0  0  0  0  0  0
    5.6180   -7.9194   16.1754 O   0  0  0  0  0  0  0  0  0  0  0  0
    9.7259   -5.3080   18.4485 C   0  0  0  0  0  0  0  0  0  0  0  0
    9.4578   -5.0200   16.3036 N   0  0  0  0  0  0  0  0  0  0  0  0
    5.0287   -8.9365   16.8223 C   0  0  0  0  0  0  0  0  0  0  0  0
    8.7742   -6.1498   16.6764 C   0  0  0  0  0  0  0  0  0  0  0  0
   10.9418   -3.4032   21.2053 O   0  0  0  0  0  0  0  0  0  0  0  0
    1.4797   -8.6258   16.2950 C   0  0  0  0  0  0  0  0  0  0  0  0
    9.2861   -1.2743   25.3585 C   0  0  0  0  0  0  0  0  0  0  0  0
    1.8892  -10.3985   17.7511 N   0  0  0  0  0  0  0  0  0  0  0  0
    9.6210   -0.6952   24.0976 C   0  0  0  0  0  0  0  0  0  0  0  0
    7.0792   -9.0217   17.1429 C   0  0  0  0  0  0  0  0  0  0  0  0
    3.1713  -10.1816   17.6634 C   0  0  0  0  0  0  0  0  0  0  0  0
    2.7878   -8.3822   16.2137 C   0  0  0  0  0  0  0  0  0  0  0  0
    9.4601   -2.6590   25.6528 C   0  0  0  0  0  0  0  0  0  0  0  0
   10.1182   -1.5672   23.1165 C   0  0  0  0  0  0  0  0  0  0  0  0
    1.0552   -9.6360   17.0650 C   0  0  0  0  0  0  0  0  0  0  0  0
    3.6519   -9.1783   16.9039 C   0  0  0  0  0  0  0  0  0  0  0  0
    7.8675   -7.0096   15.9415 C   0  0  0  0  0  0  0  0  0  0  0  0
    5.9733   -9.6553   17.3832 N   0  0  0  0  0  0  0  0  0  0  0  0
   10.2411   -2.9363   23.4301 C   0  0  0  0  0  0  0  0  0  0  0  0
   10.7288   -3.8197   19.9525 C   0  0  0  0  0  0  0  0  0  0  0  0
   10.1189   -5.0054   19.6987 C   0  0  0  0  0  0  0  0  0  0  0  0
  1  3  4  0
  1  7  4  0
  2 21  4  0
  2 27  4  0
  3  9  4  0
  3 10  4  0
  4  8  4  0
  4 18  4  0
  4 25  1  0
  5  9  4  0
  5 12  4  0
  6 13  1  0
  6 27  1  0
  7 28  4  0
  8 11  4  0
  9 29  4  0
 10 12  4  0
 11 24  1  0
 11 26  4  0
 12 25  1  0
 13 28  1  0
 14 20  4  0
 14 23  4  0
 15 17  4  0
 15 21  4  0
 16 19  4  0
 16 23  4  0
 17 22  4  0
 18 26  4  0
 19 24  4  0
 20 24  4  0
 22 27  4  0
 28 29  4  0
M  END
$$$$

 Created by Python create_sdf_string function

 29 33  0  0  0  0  0  0  0  0999 V2000
   10.7215   -3.3326   17.6437 C   0  0  0  0  0  0  0  0  0  0  0  0
    9.9489   -3.4675   24.6487 N   0  0  0  0  0  0  0  0  0  0  0  0
   10.0172   -4.4740   17.4101 C   0  0  0  0  0  0  0  0  0  0  0  0
    6.9051   -7.9575   16.4222 C   0  0  0  0  0  0  0  0  0  0  0  0
    8.9969   -6.3552   17.9668 N   0  0  0  0  0  0  0  0  0  0  0  0
   10.6702   -3.9051   22.4070 C   0  0  0  0  0  0  0  0  0  0  0  0
   11.0625   -3.0028   18.8894 C   0  0  0  0  0  0  0  0  0  0  0  0
    5.6180   -7.9194   16.1754 O   0  0  0  0  0  0  0  0  0  0  0  0
    9.7259   -5.3080   18.4485 C   0  0  0  0  0  0  0  0  0  0  0  0
    9.4578   -5.0200   16.3036 N   0  0  0  0  0  0  0  0  0  0  0  0
    5.0287   -8.9365   16.8223 C   0  0  0  0  0  0  0  0  0  0  0  0
    8.7742   -6.1498   16.6764 C   0  0  0  0  0  0  0  0  0  0  0  0
   10.9418   -3.4032   21.2053 O   0  0  0  0  0  0  0  0  0  0  0  0
    1.4797   -8.6258   16.2950 C   0  0  0  0  0  0  0  0  0  0  0  0
    9.2861   -1.2743   25.3585 C   0  0  0  0  0  0  0  0  0  0  0  0
    1.8892  -10.3985   17.7511 N   0  0  0  0  0  0  0  0  0  0  0  0
    9.6210   -0.6952   24.0976 C   0  0  0  0  0  0  0  0  0  0  0  0
    7.0792   -9.0217   17.1429 C   0  0  0  0  0  0  0  0  0  0  0  0
    3.1713  -10.1816   17.6634 C   0  0  0  0  0  0  0  0  0  0  0  0
    2.7878   -8.3822   16.2137 C   0  0  0  0  0  0  0  0  0  0  0  0
    9.4601   -2.6590   25.6528 C   0  0  0  0  0  0  0  0  0  0  0  0
   10.1182   -1.5672   23.1165 C   0  0  0  0  0  0  0  0  0  0  0  0
    1.0552   -9.6360   17.0650 C   0  0  0  0  0  0  0  0  0  0  0  0
    3.6519   -9.1783   16.9039 C   0  0  0  0  0  0  0  0  0  0  0  0
    7.8675   -7.0096   15.9415 C   0  0  0  0  0  0  0  0  0  0  0  0
    5.9733   -9.6553   17.3832 N   0  0  0  0  0  0  0  0  0  0  0  0
   10.2411   -2.9363   23.4301 C   0  0  0  0  0  0  0  0  0  0  0  0
   10.7288   -3.8197   19.9525 C   0  0  0  0  0  0  0  0  0  0  0  0
   10.1189   -5.0054   19.6987 C   0  0  0  0  0  0  0  0  0  0  0  0
  1  3  4  0
  1  7  4  0
  2 21  4  0
  2 27  4  0
  3  9  4  0
  3 10  4  0
  4  8  4  0
  4 18  4  0
  4 25  1  0
  5  9  4  0
  5 12  4  0
  6 13  1  0
  6 27  1  0
  7 28  4  0
  8 11  4  0
  9 29  4  0
 10 12  4  0
 11 24  1  0
 11 26  4  0
 12 25  1  0
 13 28  1  0
 14 20  4  0
 14 23  4  0
 15 17  4  0
 15 21  4  0
 16 19  4  0
 16 23  4  0
 17 22  4  0
 18 26  4  0
 19 24  4  0
 20 24  4  0
 22 27  4  0
 28 29  4  0
M  END
$$$$

 Created by Python create_sdf_string function

 29 33  0  0  0  0  0  0  0  0999 V2000
   10.7215   -3.3326   17.6437 C   0  0  0  0  0  0  0  0  0  0  0  0
    9.9489   -3.4675   24.6487 N   0  0  0  0  0  0  0  0  0  0  0  0
   10.0172   -4.4740   17.4101 C   0  0  0  0  0  0  0  0  0  0  0  0
    6.9051   -7.9575   16.4222 C   0  0  0  0  0  0  0  0  0  0  0  0
    8.9969   -6.3552   17.9668 N   0  0  0  0  0  0  0  0  0  0  0  0
   10.6702   -3.9051   22.4070 C   0  0  0  0  0  0  0  0  0  0  0  0
   11.0625   -3.0028   18.8894 C   0  0  0  0  0  0  0  0  0  0  0  0
    5.6180   -7.9194   16.1754 O   0  0  0  0  0  0  0  0  0  0  0  0
    9.7259   -5.3080   18.4485 C   0  0  0  0  0  0  0  0  0  0  0  0
    9.4578   -5.0200   16.3036 N   0  0  0  0  0  0  0  0  0  0  0  0
    5.0287   -8.9365   16.8223 C   0  0  0  0  0  0  0  0  0  0  0  0
    8.7742   -6.1498   16.6764 C   0  0  0  0  0  0  0  0  0  0  0  0
   10.9418   -3.4032   21.2053 O   0  0  0  0  0  0  0  0  0  0  0  0
    1.4797   -8.6258   16.2950 C   0  0  0  0  0  0  0  0  0  0  0  0
    9.2861   -1.2743   25.3585 C   0  0  0  0  0  0  0  0  0  0  0  0
    1.8892  -10.3985   17.7511 N   0  0  0  0  0  0  0  0  0  0  0  0
    9.6210   -0.6952   24.0976 C   0  0  0  0  0  0  0  0  0  0  0  0
    7.0792   -9.0217   17.1429 C   0  0  0  0  0  0  0  0  0  0  0  0
    3.1713  -10.1816   17.6634 C   0  0  0  0  0  0  0  0  0  0  0  0
    2.7878   -8.3822   16.2137 C   0  0  0  0  0  0  0  0  0  0  0  0
    9.4601   -2.6590   25.6528 C   0  0  0  0  0  0  0  0  0  0  0  0
   10.1182   -1.5672   23.1165 C   0  0  0  0  0  0  0  0  0  0  0  0
    1.0552   -9.6360   17.0650 C   0  0  0  0  0  0  0  0  0  0  0  0
    3.6519   -9.1783   16.9039 C   0  0  0  0  0  0  0  0  0  0  0  0
    7.8675   -7.0096   15.9415 C   0  0  0  0  0  0  0  0  0  0  0  0
    5.9733   -9.6553   17.3832 N   0  0  0  0  0  0  0  0  0  0  0  0
   10.2411   -2.9363   23.4301 C   0  0  0  0  0  0  0  0  0  0  0  0
   10.7288   -3.8197   19.9525 C   0  0  0  0  0  0  0  0  0  0  0  0
   10.1189   -5.0054   19.6987 C   0  0  0  0  0  0  0  0  0  0  0  0
  1  3  4  0
  1  7  4  0
  2 21  4  0
  2 27  4  0
  3  9  4  0
  3 10  4  0
  4  8  4  0
  4 18  4  0
  4 25  1  0
  5  9  4  0
  5 12  4  0
  6 13  1  0
  6 27  1  0
  7 28  4  0
  8 11  4  0
  9 29  4  0
 10 12  4  0
 11 24  1  0
 11 26  4  0
 12 25  1  0
 13 28  1  0
 14 20  4  0
 14 23  4  0
 15 17  4  0
 15 21  4  0
 16 19  4  0
 16 23  4  0
 17 22  4  0
 18 26  4  0
 19 24  4  0
 20 24  4  0
 22 27  4  0
 28 29  4  0
M  END
$$$$

 Created by Python create_sdf_string function

 29 33  0  0  0  0  0  0  0  0999 V2000
   10.7215   -3.3326   17.6437 C   0  0  0  0  0  0  0  0  0  0  0  0
    9.9489   -3.4675   24.6487 N   0  0  0  0  0  0  0  0  0  0  0  0
   10.0172   -4.4740   17.4101 C   0  0  0  0  0  0  0  0  0  0  0  0
    6.9051   -7.9575   16.4222 C   0  0  0  0  0  0  0  0  0  0  0  0
    8.9969   -6.3552   17.9668 N   0  0  0  0  0  0  0  0  0  0  0  0
   10.6702   -3.9051   22.4070 C   0  0  0  0  0  0  0  0  0  0  0  0
   11.0625   -3.0028   18.8894 C   0  0  0  0  0  0  0  0  0  0  0  0
    5.6180   -7.9194   16.1754 O   0  0  0  0  0  0  0  0  0  0  0  0
    9.7259   -5.3080   18.4485 C   0  0  0  0  0  0  0  0  0  0  0  0
    9.4578   -5.0200   16.3036 N   0  0  0  0  0  0  0  0  0  0  0  0
    5.0287   -8.9365   16.8223 C   0  0  0  0  0  0  0  0  0  0  0  0
    8.7742   -6.1498   16.6764 C   0  0  0  0  0  0  0  0  0  0  0  0
   10.9418   -3.4032   21.2053 O   0  0  0  0  0  0  0  0  0  0  0  0
    1.4797   -8.6258   16.2950 C   0  0  0  0  0  0  0  0  0  0  0  0
    9.2861   -1.2743   25.3585 C   0  0  0  0  0  0  0  0  0  0  0  0
    1.8892  -10.3985   17.7511 N   0  0  0  0  0  0  0  0  0  0  0  0
    9.6210   -0.6952   24.0976 C   0  0  0  0  0  0  0  0  0  0  0  0
    7.0792   -9.0217   17.1429 C   0  0  0  0  0  0  0  0  0  0  0  0
    3.1713  -10.1816   17.6634 C   0  0  0  0  0  0  0  0  0  0  0  0
    2.7878   -8.3822   16.2137 C   0  0  0  0  0  0  0  0  0  0  0  0
    9.4601   -2.6590   25.6528 C   0  0  0  0  0  0  0  0  0  0  0  0
   10.1182   -1.5672   23.1165 C   0  0  0  0  0  0  0  0  0  0  0  0
    1.0552   -9.6360   17.0650 C   0  0  0  0  0  0  0  0  0  0  0  0
    3.6519   -9.1783   16.9039 C   0  0  0  0  0  0  0  0  0  0  0  0
    7.8675   -7.0096   15.9415 C   0  0  0  0  0  0  0  0  0  0  0  0
    5.9733   -9.6553   17.3832 N   0  0  0  0  0  0  0  0  0  0  0  0
   10.2411   -2.9363   23.4301 C   0  0  0  0  0  0  0  0  0  0  0  0
   10.7288   -3.8197   19.9525 C   0  0  0  0  0  0  0  0  0  0  0  0
   10.1189   -5.0054   19.6987 C   0  0  0  0  0  0  0  0  0  0  0  0
  1  3  4  0
  1  7  4  0
  2 21  4  0
  2 27  4  0
  3  9  4  0
  3 10  4  0
  4  8  4  0
  4 18  4  0
  4 25  1  0
  5  9  4  0
  5 12  4  0
  6 13  1  0
  6 27  1  0
  7 28  4  0
  8 11  4  0
  9 29  4  0
 10 12  4  0
 11 24  1  0
 11 26  4  0
 12 25  1  0
 13 28  1  0
 14 20  4  0
 14 23  4  0
 15 17  4  0
 15 21  4  0
 16 19  4  0
 16 23  4  0
 17 22  4  0
 18 26  4  0
 19 24  4  0
 20 24  4  0
 22 27  4  0
 28 29  4  0
M  END
$$$$

 Created by Python create_sdf_string function

 29 33  0  0  0  0  0  0  0  0999 V2000
   10.7215   -3.3326   17.6437 C   0  0  0  0  0  0  0  0  0  0  0  0
    9.9489   -3.4675   24.6487 N   0  0  0  0  0  0  0  0  0  0  0  0
   10.0172   -4.4740   17.4101 C   0  0  0  0  0  0  0  0  0  0  0  0
    6.9051   -7.9575   16.4222 C   0  0  0  0  0  0  0  0  0  0  0  0
    8.9969   -6.3552   17.9668 N   0  0  0  0  0  0  0  0  0  0  0  0
   10.6702   -3.9051   22.4070 C   0  0  0  0  0  0  0  0  0  0  0  0
   11.0625   -3.0028   18.8894 C   0  0  0  0  0  0  0  0  0  0  0  0
    5.6180   -7.9194   16.1754 O   0  0  0  0  0  0  0  0  0  0  0  0
    9.7259   -5.3080   18.4485 C   0  0  0  0  0  0  0  0  0  0  0  0
    9.4578   -5.0200   16.3036 N   0  0  0  0  0  0  0  0  0  0  0  0
    5.0287   -8.9365   16.8223 C   0  0  0  0  0  0  0  0  0  0  0  0
    8.7742   -6.1498   16.6764 C   0  0  0  0  0  0  0  0  0  0  0  0
   10.9418   -3.4032   21.2053 O   0  0  0  0  0  0  0  0  0  0  0  0
    1.4797   -8.6258   16.2950 C   0  0  0  0  0  0  0  0  0  0  0  0
    9.2861   -1.2743   25.3585 C   0  0  0  0  0  0  0  0  0  0  0  0
    1.8892  -10.3985   17.7511 N   0  0  0  0  0  0  0  0  0  0  0  0
    9.6210   -0.6952   24.0976 C   0  0  0  0  0  0  0  0  0  0  0  0
    7.0792   -9.0217   17.1429 C   0  0  0  0  0  0  0  0  0  0  0  0
    3.1713  -10.1816   17.6634 C   0  0  0  0  0  0  0  0  0  0  0  0
    2.7878   -8.3822   16.2137 C   0  0  0  0  0  0  0  0  0  0  0  0
    9.4601   -2.6590   25.6528 C   0  0  0  0  0  0  0  0  0  0  0  0
   10.1182   -1.5672   23.1165 C   0  0  0  0  0  0  0  0  0  0  0  0
    1.0552   -9.6360   17.0650 C   0  0  0  0  0  0  0  0  0  0  0  0
    3.6519   -9.1783   16.9039 C   0  0  0  0  0  0  0  0  0  0  0  0
    7.8675   -7.0096   15.9415 C   0  0  0  0  0  0  0  0  0  0  0  0
    5.9733   -9.6553   17.3832 N   0  0  0  0  0  0  0  0  0  0  0  0
   10.2411   -2.9363   23.4301 C   0  0  0  0  0  0  0  0  0  0  0  0
   10.7288   -3.8197   19.9525 C   0  0  0  0  0  0  0  0  0  0  0  0
   10.1189   -5.0054   19.6987 C   0  0  0  0  0  0  0  0  0  0  0  0
  1  3  4  0
  1  7  4  0
  2 21  4  0
  2 27  4  0
  3  9  4  0
  3 10  4  0
  4  8  4  0
  4 18  4  0
  4 25  1  0
  5  9  4  0
  5 12  4  0
  6 13  1  0
  6 27  1  0
  7 28  4  0
  8 11  4  0
  9 29  4  0
 10 12  4  0
 11 24  1  0
 11 26  4  0
 12 25  1  0
 13 28  1  0
 14 20  4  0
 14 23  4  0
 15 17  4  0
 15 21  4  0
 16 19  4  0
 16 23  4  0
 17 22  4  0
 18 26  4  0
 19 24  4  0
 20 24  4  0
 22 27  4  0
 28 29  4  0
M  END
$$$$

 Created by Python create_sdf_string function

 29 33  0  0  0  0  0  0  0  0999 V2000
   10.7215   -3.3326   17.6437 C   0  0  0  0  0  0  0  0  0  0  0  0
    9.9489   -3.4675   24.6487 N   0  0  0  0  0  0  0  0  0  0  0  0
   10.0172   -4.4740   17.4101 C   0  0  0  0  0  0  0  0  0  0  0  0
    6.9051   -7.9575   16.4222 C   0  0  0  0  0  0  0  0  0  0  0  0
    8.9969   -6.3552   17.9668 N   0  0  0  0  0  0  0  0  0  0  0  0
   10.6702   -3.9051   22.4070 C   0  0  0  0  0  0  0  0  0  0  0  0
   11.0625   -3.0028   18.8894 C   0  0  0  0  0  0  0  0  0  0  0  0
    5.6180   -7.9194   16.1754 O   0  0  0  0  0  0  0  0  0  0  0  0
    9.7259   -5.3080   18.4485 C   0  0  0  0  0  0  0  0  0  0  0  0
    9.4578   -5.0200   16.3036 N   0  0  0  0  0  0  0  0  0  0  0  0
    5.0287   -8.9365   16.8223 C   0  0  0  0  0  0  0  0  0  0  0  0
    8.7742   -6.1498   16.6764 C   0  0  0  0  0  0  0  0  0  0  0  0
   10.9418   -3.4032   21.2053 O   0  0  0  0  0  0  0  0  0  0  0  0
    1.4797   -8.6258   16.2950 C   0  0  0  0  0  0  0  0  0  0  0  0
    9.2861   -1.2743   25.3585 C   0  0  0  0  0  0  0  0  0  0  0  0
    1.8892  -10.3985   17.7511 N   0  0  0  0  0  0  0  0  0  0  0  0
    9.6210   -0.6952   24.0976 C   0  0  0  0  0  0  0  0  0  0  0  0
    7.0792   -9.0217   17.1429 C   0  0  0  0  0  0  0  0  0  0  0  0
    3.1713  -10.1816   17.6634 C   0  0  0  0  0  0  0  0  0  0  0  0
    2.7878   -8.3822   16.2137 C   0  0  0  0  0  0  0  0  0  0  0  0
    9.4601   -2.6590   25.6528 C   0  0  0  0  0  0  0  0  0  0  0  0
   10.1182   -1.5672   23.1165 C   0  0  0  0  0  0  0  0  0  0  0  0
    1.0552   -9.6360   17.0650 C   0  0  0  0  0  0  0  0  0  0  0  0
    3.6519   -9.1783   16.9039 C   0  0  0  0  0  0  0  0  0  0  0  0
    7.8675   -7.0096   15.9415 C   0  0  0  0  0  0  0  0  0  0  0  0
    5.9733   -9.6553   17.3832 N   0  0  0  0  0  0  0  0  0  0  0  0
   10.2411   -2.9363   23.4301 C   0  0  0  0  0  0  0  0  0  0  0  0
   10.7288   -3.8197   19.9525 C   0  0  0  0  0  0  0  0  0  0  0  0
   10.1189   -5.0054   19.6987 C   0  0  0  0  0  0  0  0  0  0  0  0
  1  3  4  0
  1  7  4  0
  2 21  4  0
  2 27  4  0
  3  9  4  0
  3 10  4  0
  4  8  4  0
  4 18  4  0
  4 25  1  0
  5  9  4  0
  5 12  4  0
  6 13  1  0
  6 27  1  0
  7 28  4  0
  8 11  4  0
  9 29  4  0
 10 12  4  0
 11 24  1  0
 11 26  4  0
 12 25  1  0
 13 28  1  0
 14 20  4  0
 14 23  4  0
 15 17  4  0
 15 21  4  0
 16 19  4  0
 16 23  4  0
 17 22  4  0
 18 26  4  0
 19 24  4  0
 20 24  4  0
 22 27  4  0
 28 29  4  0
M  END
$$$$

 Created by Python create_sdf_string function

 29 33  0  0  0  0  0  0  0  0999 V2000
   10.7215   -3.3326   17.6437 C   0  0  0  0  0  0  0  0  0  0  0  0
    9.9489   -3.4675   24.6487 N   0  0  0  0  0  0  0  0  0  0  0  0
   10.0172   -4.4740   17.4101 C   0  0  0  0  0  0  0  0  0  0  0  0
    6.9051   -7.9575   16.4222 C   0  0  0  0  0  0  0  0  0  0  0  0
    8.9969   -6.3552   17.9668 N   0  0  0  0  0  0  0  0  0  0  0  0
   10.6702   -3.9051   22.4070 C   0  0  0  0  0  0  0  0  0  0  0  0
   11.0625   -3.0028   18.8894 C   0  0  0  0  0  0  0  0  0  0  0  0
    5.6180   -7.9194   16.1754 O   0  0  0  0  0  0  0  0  0  0  0  0
    9.7259   -5.3080   18.4485 C   0  0  0  0  0  0  0  0  0  0  0  0
    9.4578   -5.0200   16.3036 N   0  0  0  0  0  0  0  0  0  0  0  0
    5.0287   -8.9365   16.8223 C   0  0  0  0  0  0  0  0  0  0  0  0
    8.7742   -6.1498   16.6764 C   0  0  0  0  0  0  0  0  0  0  0  0
   10.9418   -3.4032   21.2053 O   0  0  0  0  0  0  0  0  0  0  0  0
    1.4797   -8.6258   16.2950 C   0  0  0  0  0  0  0  0  0  0  0  0
    9.2861   -1.2743   25.3585 C   0  0  0  0  0  0  0  0  0  0  0  0
    1.8892  -10.3985   17.7511 N   0  0  0  0  0  0  0  0  0  0  0  0
    9.6210   -0.6952   24.0976 C   0  0  0  0  0  0  0  0  0  0  0  0
    7.0792   -9.0217   17.1429 C   0  0  0  0  0  0  0  0  0  0  0  0
    3.1713  -10.1816   17.6634 C   0  0  0  0  0  0  0  0  0  0  0  0
    2.7878   -8.3822   16.2137 C   0  0  0  0  0  0  0  0  0  0  0  0
    9.4601   -2.6590   25.6528 C   0  0  0  0  0  0  0  0  0  0  0  0
   10.1182   -1.5672   23.1165 C   0  0  0  0  0  0  0  0  0  0  0  0
    1.0552   -9.6360   17.0650 C   0  0  0  0  0  0  0  0  0  0  0  0
    3.6519   -9.1783   16.9039 C   0  0  0  0  0  0  0  0  0  0  0  0
    7.8675   -7.0096   15.9415 C   0  0  0  0  0  0  0  0  0  0  0  0
    5.9733   -9.6553   17.3832 N   0  0  0  0  0  0  0  0  0  0  0  0
   10.2411   -2.9363   23.4301 C   0  0  0  0  0  0  0  0  0  0  0  0
   10.7288   -3.8197   19.9525 C   0  0  0  0  0  0  0  0  0  0  0  0
   10.1189   -5.0054   19.6987 C   0  0  0  0  0  0  0  0  0  0  0  0
  1  3  4  0
  1  7  4  0
  2 21  4  0
  2 27  4  0
  3  9  4  0
  3 10  4  0
  4  8  4  0
  4 18  4  0
  4 25  1  0
  5  9  4  0
  5 12  4  0
  6 13  1  0
  6 27  1  0
  7 28  4  0
  8 11  4  0
  9 29  4  0
 10 12  4  0
 11 24  1  0
 11 26  4  0
 12 25  1  0
 13 28  1  0
 14 20  4  0
 14 23  4  0
 15 17  4  0
 15 21  4  0
 16 19  4  0
 16 23  4  0
 17 22  4  0
 18 26  4  0
 19 24  4  0
 20 24  4  0
 22 27  4  0
 28 29  4  0
M  END
$$$$

 Created by Python create_sdf_string function

 29 33  0  0  0  0  0  0  0  0999 V2000
   10.7215   -3.3326   17.6437 C   0  0  0  0  0  0  0  0  0  0  0  0
    9.9489   -3.4675   24.6487 N   0  0  0  0  0  0  0  0  0  0  0  0
   10.0172   -4.4740   17.4101 C   0  0  0  0  0  0  0  0  0  0  0  0
    6.9051   -7.9575   16.4222 C   0  0  0  0  0  0  0  0  0  0  0  0
    8.9969   -6.3552   17.9668 N   0  0  0  0  0  0  0  0  0  0  0  0
   10.6702   -3.9051   22.4070 C   0  0  0  0  0  0  0  0  0  0  0  0
   11.0625   -3.0028   18.8894 C   0  0  0  0  0  0  0  0  0  0  0  0
    5.6180   -7.9194   16.1754 O   0  0  0  0  0  0  0  0  0  0  0  0
    9.7259   -5.3080   18.4485 C   0  0  0  0  0  0  0  0  0  0  0  0
    9.4578   -5.0200   16.3036 N   0  0  0  0  0  0  0  0  0  0  0  0
    5.0287   -8.9365   16.8223 C   0  0  0  0  0  0  0  0  0  0  0  0
    8.7742   -6.1498   16.6764 C   0  0  0  0  0  0  0  0  0  0  0  0
   10.9418   -3.4032   21.2053 O   0  0  0  0  0  0  0  0  0  0  0  0
    1.4797   -8.6258   16.2950 C   0  0  0  0  0  0  0  0  0  0  0  0
    9.2861   -1.2743   25.3585 C   0  0  0  0  0  0  0  0  0  0  0  0
    1.8892  -10.3985   17.7511 N   0  0  0  0  0  0  0  0  0  0  0  0
    9.6210   -0.6952   24.0976 C   0  0  0  0  0  0  0  0  0  0  0  0
    7.0792   -9.0217   17.1429 C   0  0  0  0  0  0  0  0  0  0  0  0
    3.1713  -10.1816   17.6634 C   0  0  0  0  0  0  0  0  0  0  0  0
    2.7878   -8.3822   16.2137 C   0  0  0  0  0  0  0  0  0  0  0  0
    9.4601   -2.6590   25.6528 C   0  0  0  0  0  0  0  0  0  0  0  0
   10.1182   -1.5672   23.1165 C   0  0  0  0  0  0  0  0  0  0  0  0
    1.0552   -9.6360   17.0650 C   0  0  0  0  0  0  0  0  0  0  0  0
    3.6519   -9.1783   16.9039 C   0  0  0  0  0  0  0  0  0  0  0  0
    7.8675   -7.0096   15.9415 C   0  0  0  0  0  0  0  0  0  0  0  0
    5.9733   -9.6553   17.3832 N   0  0  0  0  0  0  0  0  0  0  0  0
   10.2411   -2.9363   23.4301 C   0  0  0  0  0  0  0  0  0  0  0  0
   10.7288   -3.8197   19.9525 C   0  0  0  0  0  0  0  0  0  0  0  0
   10.1189   -5.0054   19.6987 C   0  0  0  0  0  0  0  0  0  0  0  0
  1  3  4  0
  1  7  4  0
  2 21  4  0
  2 27  4  0
  3  9  4  0
  3 10  4  0
  4  8  4  0
  4 18  4  0
  4 25  1  0
  5  9  4  0
  5 12  4  0
  6 13  1  0
  6 27  1  0
  7 28  4  0
  8 11  4  0
  9 29  4  0
 10 12  4  0
 11 24  1  0
 11 26  4  0
 12 25  1  0
 13 28  1  0
 14 20  4  0
 14 23  4  0
 15 17  4  0
 15 21  4  0
 16 19  4  0
 16 23  4  0
 17 22  4  0
 18 26  4  0
 19 24  4  0
 20 24  4  0
 22 27  4  0
 28 29  4  0
M  END
$$$$

 Created by Python create_sdf_string function

 29 33  0  0  0  0  0  0  0  0999 V2000
   10.7215   -3.3326   17.6437 C   0  0  0  0  0  0  0  0  0  0  0  0
    9.9489   -3.4675   24.6487 N   0  0  0  0  0  0  0  0  0  0  0  0
   10.0172   -4.4740   17.4101 C   0  0  0  0  0  0  0  0  0  0  0  0
    6.9051   -7.9575   16.4222 C   0  0  0  0  0  0  0  0  0  0  0  0
    8.9969   -6.3552   17.9668 N   0  0  0  0  0  0  0  0  0  0  0  0
   10.6702   -3.9051   22.4070 C   0  0  0  0  0  0  0  0  0  0  0  0
   11.0625   -3.0028   18.8894 C   0  0  0  0  0  0  0  0  0  0  0  0
    5.6180   -7.9194   16.1754 O   0  0  0  0  0  0  0  0  0  0  0  0
    9.7259   -5.3080   18.4485 C   0  0  0  0  0  0  0  0  0  0  0  0
    9.4578   -5.0200   16.3036 N   0  0  0  0  0  0  0  0  0  0  0  0
    5.0287   -8.9365   16.8223 C   0  0  0  0  0  0  0  0  0  0  0  0
    8.7742   -6.1498   16.6764 C   0  0  0  0  0  0  0  0  0  0  0  0
   10.9418   -3.4032   21.2053 O   0  0  0  0  0  0  0  0  0  0  0  0
    1.4797   -8.6258   16.2950 C   0  0  0  0  0  0  0  0  0  0  0  0
    9.2861   -1.2743   25.3585 C   0  0  0  0  0  0  0  0  0  0  0  0
    1.8892  -10.3985   17.7511 N   0  0  0  0  0  0  0  0  0  0  0  0
    9.6210   -0.6952   24.0976 C   0  0  0  0  0  0  0  0  0  0  0  0
    7.0792   -9.0217   17.1429 C   0  0  0  0  0  0  0  0  0  0  0  0
    3.1713  -10.1816   17.6634 C   0  0  0  0  0  0  0  0  0  0  0  0
    2.7878   -8.3822   16.2137 C   0  0  0  0  0  0  0  0  0  0  0  0
    9.4601   -2.6590   25.6528 C   0  0  0  0  0  0  0  0  0  0  0  0
   10.1182   -1.5672   23.1165 C   0  0  0  0  0  0  0  0  0  0  0  0
    1.0552   -9.6360   17.0650 C   0  0  0  0  0  0  0  0  0  0  0  0
    3.6519   -9.1783   16.9039 C   0  0  0  0  0  0  0  0  0  0  0  0
    7.8675   -7.0096   15.9415 C   0  0  0  0  0  0  0  0  0  0  0  0
    5.9733   -9.6553   17.3832 N   0  0  0  0  0  0  0  0  0  0  0  0
   10.2411   -2.9363   23.4301 C   0  0  0  0  0  0  0  0  0  0  0  0
   10.7288   -3.8197   19.9525 C   0  0  0  0  0  0  0  0  0  0  0  0
   10.1189   -5.0054   19.6987 C   0  0  0  0  0  0  0  0  0  0  0  0
  1  3  4  0
  1  7  4  0
  2 21  4  0
  2 27  4  0
  3  9  4  0
  3 10  4  0
  4  8  4  0
  4 18  4  0
  4 25  1  0
  5  9  4  0
  5 12  4  0
  6 13  1  0
  6 27  1  0
  7 28  4  0
  8 11  4  0
  9 29  4  0
 10 12  4  0
 11 24  1  0
 11 26  4  0
 12 25  1  0
 13 28  1  0
 14 20  4  0
 14 23  4  0
 15 17  4  0
 15 21  4  0
 16 19  4  0
 16 23  4  0
 17 22  4  0
 18 26  4  0
 19 24  4  0
 20 24  4  0
 22 27  4  0
 28 29  4  0
M  END
$$$$

 Created by Python create_sdf_string function

 29 33  0  0  0  0  0  0  0  0999 V2000
   10.7215   -3.3326   17.6437 C   0  0  0  0  0  0  0  0  0  0  0  0
    9.9489   -3.4675   24.6487 N   0  0  0  0  0  0  0  0  0  0  0  0
   10.0172   -4.4740   17.4101 C   0  0  0  0  0  0  0  0  0  0  0  0
    6.9051   -7.9575   16.4222 C   0  0  0  0  0  0  0  0  0  0  0  0
    8.9969   -6.3552   17.9668 N   0  0  0  0  0  0  0  0  0  0  0  0
   10.6702   -3.9051   22.4070 C   0  0  0  0  0  0  0  0  0  0  0  0
   11.0625   -3.0028   18.8894 C   0  0  0  0  0  0  0  0  0  0  0  0
    5.6180   -7.9194   16.1754 O   0  0  0  0  0  0  0  0  0  0  0  0
    9.7259   -5.3080   18.4485 C   0  0  0  0  0  0  0  0  0  0  0  0
    9.4578   -5.0200   16.3036 N   0  0  0  0  0  0  0  0  0  0  0  0
    5.0287   -8.9365   16.8223 C   0  0  0  0  0  0  0  0  0  0  0  0
    8.7742   -6.1498   16.6764 C   0  0  0  0  0  0  0  0  0  0  0  0
   10.9418   -3.4032   21.2053 O   0  0  0  0  0  0  0  0  0  0  0  0
    1.4797   -8.6258   16.2950 C   0  0  0  0  0  0  0  0  0  0  0  0
    9.2861   -1.2743   25.3585 C   0  0  0  0  0  0  0  0  0  0  0  0
    1.8892  -10.3985   17.7511 N   0  0  0  0  0  0  0  0  0  0  0  0
    9.6210   -0.6952   24.0976 C   0  0  0  0  0  0  0  0  0  0  0  0
    7.0792   -9.0217   17.1429 C   0  0  0  0  0  0  0  0  0  0  0  0
    3.1713  -10.1816   17.6634 C   0  0  0  0  0  0  0  0  0  0  0  0
    2.7878   -8.3822   16.2137 C   0  0  0  0  0  0  0  0  0  0  0  0
    9.4601   -2.6590   25.6528 C   0  0  0  0  0  0  0  0  0  0  0  0
   10.1182   -1.5672   23.1165 C   0  0  0  0  0  0  0  0  0  0  0  0
    1.0552   -9.6360   17.0650 C   0  0  0  0  0  0  0  0  0  0  0  0
    3.6519   -9.1783   16.9039 C   0  0  0  0  0  0  0  0  0  0  0  0
    7.8675   -7.0096   15.9415 C   0  0  0  0  0  0  0  0  0  0  0  0
    5.9733   -9.6553   17.3832 N   0  0  0  0  0  0  0  0  0  0  0  0
   10.2411   -2.9363   23.4301 C   0  0  0  0  0  0  0  0  0  0  0  0
   10.7288   -3.8197   19.9525 C   0  0  0  0  0  0  0  0  0  0  0  0
   10.1189   -5.0054   19.6987 C   0  0  0  0  0  0  0  0  0  0  0  0
  1  3  4  0
  1  7  4  0
  2 21  4  0
  2 27  4  0
  3  9  4  0
  3 10  4  0
  4  8  4  0
  4 18  4  0
  4 25  1  0
  5  9  4  0
  5 12  4  0
  6 13  1  0
  6 27  1  0
  7 28  4  0
  8 11  4  0
  9 29  4  0
 10 12  4  0
 11 24  1  0
 11 26  4  0
 12 25  1  0
 13 28  1  0
 14 20  4  0
 14 23  4  0
 15 17  4  0
 15 21  4  0
 16 19  4  0
 16 23  4  0
 17 22  4  0
 18 26  4  0
 19 24  4  0
 20 24  4  0
 22 27  4  0
 28 29  4  0
M  END
$$$$

 Created by Python create_sdf_string function

 29 33  0  0  0  0  0  0  0  0999 V2000
   10.7215   -3.3326   17.6437 C   0  0  0  0  0  0  0  0  0  0  0  0
    9.9489   -3.4675   24.6487 N   0  0  0  0  0  0  0  0  0  0  0  0
   10.0172   -4.4740   17.4101 C   0  0  0  0  0  0  0  0  0  0  0  0
    6.9051   -7.9575   16.4222 C   0  0  0  0  0  0  0  0  0  0  0  0
    8.9969   -6.3552   17.9668 N   0  0  0  0  0  0  0  0  0  0  0  0
   10.6702   -3.9051   22.4070 C   0  0  0  0  0  0  0  0  0  0  0  0
   11.0625   -3.0028   18.8894 C   0  0  0  0  0  0  0  0  0  0  0  0
    5.6180   -7.9194   16.1754 O   0  0  0  0  0  0  0  0  0  0  0  0
    9.7259   -5.3080   18.4485 C   0  0  0  0  0  0  0  0  0  0  0  0
    9.4578   -5.0200   16.3036 N   0  0  0  0  0  0  0  0  0  0  0  0
    5.0287   -8.9365   16.8223 C   0  0  0  0  0  0  0  0  0  0  0  0
    8.7742   -6.1498   16.6764 C   0  0  0  0  0  0  0  0  0  0  0  0
   10.9418   -3.4032   21.2053 O   0  0  0  0  0  0  0  0  0  0  0  0
    1.4797   -8.6258   16.2950 C   0  0  0  0  0  0  0  0  0  0  0  0
    9.2861   -1.2743   25.3585 C   0  0  0  0  0  0  0  0  0  0  0  0
    1.8892  -10.3985   17.7511 N   0  0  0  0  0  0  0  0  0  0  0  0
    9.6210   -0.6952   24.0976 C   0  0  0  0  0  0  0  0  0  0  0  0
    7.0792   -9.0217   17.1429 C   0  0  0  0  0  0  0  0  0  0  0  0
    3.1713  -10.1816   17.6634 C   0  0  0  0  0  0  0  0  0  0  0  0
    2.7878   -8.3822   16.2137 C   0  0  0  0  0  0  0  0  0  0  0  0
    9.4601   -2.6590   25.6528 C   0  0  0  0  0  0  0  0  0  0  0  0
   10.1182   -1.5672   23.1165 C   0  0  0  0  0  0  0  0  0  0  0  0
    1.0552   -9.6360   17.0650 C   0  0  0  0  0  0  0  0  0  0  0  0
    3.6519   -9.1783   16.9039 C   0  0  0  0  0  0  0  0  0  0  0  0
    7.8675   -7.0096   15.9415 C   0  0  0  0  0  0  0  0  0  0  0  0
    5.9733   -9.6553   17.3832 N   0  0  0  0  0  0  0  0  0  0  0  0
   10.2411   -2.9363   23.4301 C   0  0  0  0  0  0  0  0  0  0  0  0
   10.7288   -3.8197   19.9525 C   0  0  0  0  0  0  0  0  0  0  0  0
   10.1189   -5.0054   19.6987 C   0  0  0  0  0  0  0  0  0  0  0  0
  1  3  4  0
  1  7  4  0
  2 21  4  0
  2 27  4  0
  3  9  4  0
  3 10  4  0
  4  8  4  0
  4 18  4  0
  4 25  1  0
  5  9  4  0
  5 12  4  0
  6 13  1  0
  6 27  1  0
  7 28  4  0
  8 11  4  0
  9 29  4  0
 10 12  4  0
 11 24  1  0
 11 26  4  0
 12 25  1  0
 13 28  1  0
 14 20  4  0
 14 23  4  0
 15 17  4  0
 15 21  4  0
 16 19  4  0
 16 23  4  0
 17 22  4  0
 18 26  4  0
 19 24  4  0
 20 24  4  0
 22 27  4  0
 28 29  4  0
M  END
$$$$

 Created by Python create_sdf_string function

 29 33  0  0  0  0  0  0  0  0999 V2000
   10.7215   -3.3326   17.6437 C   0  0  0  0  0  0  0  0  0  0  0  0
    9.9489   -3.4675   24.6487 N   0  0  0  0  0  0  0  0  0  0  0  0
   10.0172   -4.4740   17.4101 C   0  0  0  0  0  0  0  0  0  0  0  0
    6.9051   -7.9575   16.4222 C   0  0  0  0  0  0  0  0  0  0  0  0
    8.9969   -6.3552   17.9668 N   0  0  0  0  0  0  0  0  0  0  0  0
   10.6702   -3.9051   22.4070 C   0  0  0  0  0  0  0  0  0  0  0  0
   11.0625   -3.0028   18.8894 C   0  0  0  0  0  0  0  0  0  0  0  0
    5.6180   -7.9194   16.1754 O   0  0  0  0  0  0  0  0  0  0  0  0
    9.7259   -5.3080   18.4485 C   0  0  0  0  0  0  0  0  0  0  0  0
    9.4578   -5.0200   16.3036 N   0  0  0  0  0  0  0  0  0  0  0  0
    5.0287   -8.9365   16.8223 C   0  0  0  0  0  0  0  0  0  0  0  0
    8.7742   -6.1498   16.6764 C   0  0  0  0  0  0  0  0  0  0  0  0
   10.9418   -3.4032   21.2053 O   0  0  0  0  0  0  0  0  0  0  0  0
    1.4797   -8.6258   16.2950 C   0  0  0  0  0  0  0  0  0  0  0  0
    9.2861   -1.2743   25.3585 C   0  0  0  0  0  0  0  0  0  0  0  0
    1.8892  -10.3985   17.7511 N   0  0  0  0  0  0  0  0  0  0  0  0
    9.6210   -0.6952   24.0976 C   0  0  0  0  0  0  0  0  0  0  0  0
    7.0792   -9.0217   17.1429 C   0  0  0  0  0  0  0  0  0  0  0  0
    3.1713  -10.1816   17.6634 C   0  0  0  0  0  0  0  0  0  0  0  0
    2.7878   -8.3822   16.2137 C   0  0  0  0  0  0  0  0  0  0  0  0
    9.4601   -2.6590   25.6528 C   0  0  0  0  0  0  0  0  0  0  0  0
   10.1182   -1.5672   23.1165 C   0  0  0  0  0  0  0  0  0  0  0  0
    1.0552   -9.6360   17.0650 C   0  0  0  0  0  0  0  0  0  0  0  0
    3.6519   -9.1783   16.9039 C   0  0  0  0  0  0  0  0  0  0  0  0
    7.8675   -7.0096   15.9415 C   0  0  0  0  0  0  0  0  0  0  0  0
    5.9733   -9.6553   17.3832 N   0  0  0  0  0  0  0  0  0  0  0  0
   10.2411   -2.9363   23.4301 C   0  0  0  0  0  0  0  0  0  0  0  0
   10.7288   -3.8197   19.9525 C   0  0  0  0  0  0  0  0  0  0  0  0
   10.1189   -5.0054   19.6987 C   0  0  0  0  0  0  0  0  0  0  0  0
  1  3  4  0
  1  7  4  0
  2 21  4  0
  2 27  4  0
  3  9  4  0
  3 10  4  0
  4  8  4  0
  4 18  4  0
  4 25  1  0
  5  9  4  0
  5 12  4  0
  6 13  1  0
  6 27  1  0
  7 28  4  0
  8 11  4  0
  9 29  4  0
 10 12  4  0
 11 24  1  0
 11 26  4  0
 12 25  1  0
 13 28  1  0
 14 20  4  0
 14 23  4  0
 15 17  4  0
 15 21  4  0
 16 19  4  0
 16 23  4  0
 17 22  4  0
 18 26  4  0
 19 24  4  0
 20 24  4  0
 22 27  4  0
 28 29  4  0
M  END
$$$$

 Created by Python create_sdf_string function

 29 33  0  0  0  0  0  0  0  0999 V2000
   10.7215   -3.3326   17.6437 C   0  0  0  0  0  0  0  0  0  0  0  0
    9.9489   -3.4675   24.6487 N   0  0  0  0  0  0  0  0  0  0  0  0
   10.0172   -4.4740   17.4101 C   0  0  0  0  0  0  0  0  0  0  0  0
    6.9051   -7.9575   16.4222 C   0  0  0  0  0  0  0  0  0  0  0  0
    8.9969   -6.3552   17.9668 N   0  0  0  0  0  0  0  0  0  0  0  0
   10.6702   -3.9051   22.4070 C   0  0  0  0  0  0  0  0  0  0  0  0
   11.0625   -3.0028   18.8894 C   0  0  0  0  0  0  0  0  0  0  0  0
    5.6180   -7.9194   16.1754 O   0  0  0  0  0  0  0  0  0  0  0  0
    9.7259   -5.3080   18.4485 C   0  0  0  0  0  0  0  0  0  0  0  0
    9.4578   -5.0200   16.3036 N   0  0  0  0  0  0  0  0  0  0  0  0
    5.0287   -8.9365   16.8223 C   0  0  0  0  0  0  0  0  0  0  0  0
    8.7742   -6.1498   16.6764 C   0  0  0  0  0  0  0  0  0  0  0  0
   10.9418   -3.4032   21.2053 O   0  0  0  0  0  0  0  0  0  0  0  0
    1.4797   -8.6258   16.2950 C   0  0  0  0  0  0  0  0  0  0  0  0
    9.2861   -1.2743   25.3585 C   0  0  0  0  0  0  0  0  0  0  0  0
    1.8892  -10.3985   17.7511 N   0  0  0  0  0  0  0  0  0  0  0  0
    9.6210   -0.6952   24.0976 C   0  0  0  0  0  0  0  0  0  0  0  0
    7.0792   -9.0217   17.1429 C   0  0  0  0  0  0  0  0  0  0  0  0
    3.1713  -10.1816   17.6634 C   0  0  0  0  0  0  0  0  0  0  0  0
    2.7878   -8.3822   16.2137 C   0  0  0  0  0  0  0  0  0  0  0  0
    9.4601   -2.6590   25.6528 C   0  0  0  0  0  0  0  0  0  0  0  0
   10.1182   -1.5672   23.1165 C   0  0  0  0  0  0  0  0  0  0  0  0
    1.0552   -9.6360   17.0650 C   0  0  0  0  0  0  0  0  0  0  0  0
    3.6519   -9.1783   16.9039 C   0  0  0  0  0  0  0  0  0  0  0  0
    7.8675   -7.0096   15.9415 C   0  0  0  0  0  0  0  0  0  0  0  0
    5.9733   -9.6553   17.3832 N   0  0  0  0  0  0  0  0  0  0  0  0
   10.2411   -2.9363   23.4301 C   0  0  0  0  0  0  0  0  0  0  0  0
   10.7288   -3.8197   19.9525 C   0  0  0  0  0  0  0  0  0  0  0  0
   10.1189   -5.0054   19.6987 C   0  0  0  0  0  0  0  0  0  0  0  0
  1  3  4  0
  1  7  4  0
  2 21  4  0
  2 27  4  0
  3  9  4  0
  3 10  4  0
  4  8  4  0
  4 18  4  0
  4 25  1  0
  5  9  4  0
  5 12  4  0
  6 13  1  0
  6 27  1  0
  7 28  4  0
  8 11  4  0
  9 29  4  0
 10 12  4  0
 11 24  1  0
 11 26  4  0
 12 25  1  0
 13 28  1  0
 14 20  4  0
 14 23  4  0
 15 17  4  0
 15 21  4  0
 16 19  4  0
 16 23  4  0
 17 22  4  0
 18 26  4  0
 19 24  4  0
 20 24  4  0
 22 27  4  0
 28 29  4  0
M  END
$$$$

 Created by Python create_sdf_string function

 29 33  0  0  0  0  0  0  0  0999 V2000
   10.7215   -3.3326   17.6437 C   0  0  0  0  0  0  0  0  0  0  0  0
    9.9489   -3.4675   24.6487 N   0  0  0  0  0  0  0  0  0  0  0  0
   10.0172   -4.4740   17.4101 C   0  0  0  0  0  0  0  0  0  0  0  0
    6.9051   -7.9575   16.4222 C   0  0  0  0  0  0  0  0  0  0  0  0
    8.9969   -6.3552   17.9668 N   0  0  0  0  0  0  0  0  0  0  0  0
   10.6702   -3.9051   22.4070 C   0  0  0  0  0  0  0  0  0  0  0  0
   11.0625   -3.0028   18.8894 C   0  0  0  0  0  0  0  0  0  0  0  0
    5.6180   -7.9194   16.1754 O   0  0  0  0  0  0  0  0  0  0  0  0
    9.7259   -5.3080   18.4485 C   0  0  0  0  0  0  0  0  0  0  0  0
    9.4578   -5.0200   16.3036 N   0  0  0  0  0  0  0  0  0  0  0  0
    5.0287   -8.9365   16.8223 C   0  0  0  0  0  0  0  0  0  0  0  0
    8.7742   -6.1498   16.6764 C   0  0  0  0  0  0  0  0  0  0  0  0
   10.9418   -3.4032   21.2053 O   0  0  0  0  0  0  0  0  0  0  0  0
    1.4797   -8.6258   16.2950 C   0  0  0  0  0  0  0  0  0  0  0  0
    9.2861   -1.2743   25.3585 C   0  0  0  0  0  0  0  0  0  0  0  0
    1.8892  -10.3985   17.7511 N   0  0  0  0  0  0  0  0  0  0  0  0
    9.6210   -0.6952   24.0976 C   0  0  0  0  0  0  0  0  0  0  0  0
    7.0792   -9.0217   17.1429 C   0  0  0  0  0  0  0  0  0  0  0  0
    3.1713  -10.1816   17.6634 C   0  0  0  0  0  0  0  0  0  0  0  0
    2.7878   -8.3822   16.2137 C   0  0  0  0  0  0  0  0  0  0  0  0
    9.4601   -2.6590   25.6528 C   0  0  0  0  0  0  0  0  0  0  0  0
   10.1182   -1.5672   23.1165 C   0  0  0  0  0  0  0  0  0  0  0  0
    1.0552   -9.6360   17.0650 C   0  0  0  0  0  0  0  0  0  0  0  0
    3.6519   -9.1783   16.9039 C   0  0  0  0  0  0  0  0  0  0  0  0
    7.8675   -7.0096   15.9415 C   0  0  0  0  0  0  0  0  0  0  0  0
    5.9733   -9.6553   17.3832 N   0  0  0  0  0  0  0  0  0  0  0  0
   10.2411   -2.9363   23.4301 C   0  0  0  0  0  0  0  0  0  0  0  0
   10.7288   -3.8197   19.9525 C   0  0  0  0  0  0  0  0  0  0  0  0
   10.1189   -5.0054   19.6987 C   0  0  0  0  0  0  0  0  0  0  0  0
  1  3  4  0
  1  7  4  0
  2 21  4  0
  2 27  4  0
  3  9  4  0
  3 10  4  0
  4  8  4  0
  4 18  4  0
  4 25  1  0
  5  9  4  0
  5 12  4  0
  6 13  1  0
  6 27  1  0
  7 28  4  0
  8 11  4  0
  9 29  4  0
 10 12  4  0
 11 24  1  0
 11 26  4  0
 12 25  1  0
 13 28  1  0
 14 20  4  0
 14 23  4  0
 15 17  4  0
 15 21  4  0
 16 19  4  0
 16 23  4  0
 17 22  4  0
 18 26  4  0
 19 24  4  0
 20 24  4  0
 22 27  4  0
 28 29  4  0
M  END
$$$$

 Created by Python create_sdf_string function

 29 33  0  0  0  0  0  0  0  0999 V2000
   10.7215   -3.3326   17.6437 C   0  0  0  0  0  0  0  0  0  0  0  0
    9.9489   -3.4675   24.6487 N   0  0  0  0  0  0  0  0  0  0  0  0
   10.0172   -4.4740   17.4101 C   0  0  0  0  0  0  0  0  0  0  0  0
    6.9051   -7.9575   16.4222 C   0  0  0  0  0  0  0  0  0  0  0  0
    8.9969   -6.3552   17.9668 N   0  0  0  0  0  0  0  0  0  0  0  0
   10.6702   -3.9051   22.4070 C   0  0  0  0  0  0  0  0  0  0  0  0
   11.0625   -3.0028   18.8894 C   0  0  0  0  0  0  0  0  0  0  0  0
    5.6180   -7.9194   16.1754 O   0  0  0  0  0  0  0  0  0  0  0  0
    9.7259   -5.3080   18.4485 C   0  0  0  0  0  0  0  0  0  0  0  0
    9.4578   -5.0200   16.3036 N   0  0  0  0  0  0  0  0  0  0  0  0
    5.0287   -8.9365   16.8223 C   0  0  0  0  0  0  0  0  0  0  0  0
    8.7742   -6.1498   16.6764 C   0  0  0  0  0  0  0  0  0  0  0  0
   10.9418   -3.4032   21.2053 O   0  0  0  0  0  0  0  0  0  0  0  0
    1.4797   -8.6258   16.2950 C   0  0  0  0  0  0  0  0  0  0  0  0
    9.2861   -1.2743   25.3585 C   0  0  0  0  0  0  0  0  0  0  0  0
    1.8892  -10.3985   17.7511 N   0  0  0  0  0  0  0  0  0  0  0  0
    9.6210   -0.6952   24.0976 C   0  0  0  0  0  0  0  0  0  0  0  0
    7.0792   -9.0217   17.1429 C   0  0  0  0  0  0  0  0  0  0  0  0
    3.1713  -10.1816   17.6634 C   0  0  0  0  0  0  0  0  0  0  0  0
    2.7878   -8.3822   16.2137 C   0  0  0  0  0  0  0  0  0  0  0  0
    9.4601   -2.6590   25.6528 C   0  0  0  0  0  0  0  0  0  0  0  0
   10.1182   -1.5672   23.1165 C   0  0  0  0  0  0  0  0  0  0  0  0
    1.0552   -9.6360   17.0650 C   0  0  0  0  0  0  0  0  0  0  0  0
    3.6519   -9.1783   16.9039 C   0  0  0  0  0  0  0  0  0  0  0  0
    7.8675   -7.0096   15.9415 C   0  0  0  0  0  0  0  0  0  0  0  0
    5.9733   -9.6553   17.3832 N   0  0  0  0  0  0  0  0  0  0  0  0
   10.2411   -2.9363   23.4301 C   0  0  0  0  0  0  0  0  0  0  0  0
   10.7288   -3.8197   19.9525 C   0  0  0  0  0  0  0  0  0  0  0  0
   10.1189   -5.0054   19.6987 C   0  0  0  0  0  0  0  0  0  0  0  0
  1  3  4  0
  1  7  4  0
  2 21  4  0
  2 27  4  0
  3  9  4  0
  3 10  4  0
  4  8  4  0
  4 18  4  0
  4 25  1  0
  5  9  4  0
  5 12  4  0
  6 13  1  0
  6 27  1  0
  7 28  4  0
  8 11  4  0
  9 29  4  0
 10 12  4  0
 11 24  1  0
 11 26  4  0
 12 25  1  0
 13 28  1  0
 14 20  4  0
 14 23  4  0
 15 17  4  0
 15 21  4  0
 16 19  4  0
 16 23  4  0
 17 22  4  0
 18 26  4  0
 19 24  4  0
 20 24  4  0
 22 27  4  0
 28 29  4  0
M  END
$$$$

 Created by Python create_sdf_string function

 29 33  0  0  0  0  0  0  0  0999 V2000
   10.7215   -3.3326   17.6437 C   0  0  0  0  0  0  0  0  0  0  0  0
    9.9489   -3.4675   24.6487 N   0  0  0  0  0  0  0  0  0  0  0  0
   10.0172   -4.4740   17.4101 C   0  0  0  0  0  0  0  0  0  0  0  0
    6.9051   -7.9575   16.4222 C   0  0  0  0  0  0  0  0  0  0  0  0
    8.9969   -6.3552   17.9668 N   0  0  0  0  0  0  0  0  0  0  0  0
   10.6702   -3.9051   22.4070 C   0  0  0  0  0  0  0  0  0  0  0  0
   11.0625   -3.0028   18.8894 C   0  0  0  0  0  0  0  0  0  0  0  0
    5.6180   -7.9194   16.1754 O   0  0  0  0  0  0  0  0  0  0  0  0
    9.7259   -5.3080   18.4485 C   0  0  0  0  0  0  0  0  0  0  0  0
    9.4578   -5.0200   16.3036 N   0  0  0  0  0  0  0  0  0  0  0  0
    5.0287   -8.9365   16.8223 C   0  0  0  0  0  0  0  0  0  0  0  0
    8.7742   -6.1498   16.6764 C   0  0  0  0  0  0  0  0  0  0  0  0
   10.9418   -3.4032   21.2053 O   0  0  0  0  0  0  0  0  0  0  0  0
    1.4797   -8.6258   16.2950 C   0  0  0  0  0  0  0  0  0  0  0  0
    9.2861   -1.2743   25.3585 C   0  0  0  0  0  0  0  0  0  0  0  0
    1.8892  -10.3985   17.7511 N   0  0  0  0  0  0  0  0  0  0  0  0
    9.6210   -0.6952   24.0976 C   0  0  0  0  0  0  0  0  0  0  0  0
    7.0792   -9.0217   17.1429 C   0  0  0  0  0  0  0  0  0  0  0  0
    3.1713  -10.1816   17.6634 C   0  0  0  0  0  0  0  0  0  0  0  0
    2.7878   -8.3822   16.2137 C   0  0  0  0  0  0  0  0  0  0  0  0
    9.4601   -2.6590   25.6528 C   0  0  0  0  0  0  0  0  0  0  0  0
   10.1182   -1.5672   23.1165 C   0  0  0  0  0  0  0  0  0  0  0  0
    1.0552   -9.6360   17.0650 C   0  0  0  0  0  0  0  0  0  0  0  0
    3.6519   -9.1783   16.9039 C   0  0  0  0  0  0  0  0  0  0  0  0
    7.8675   -7.0096   15.9415 C   0  0  0  0  0  0  0  0  0  0  0  0
    5.9733   -9.6553   17.3832 N   0  0  0  0  0  0  0  0  0  0  0  0
   10.2411   -2.9363   23.4301 C   0  0  0  0  0  0  0  0  0  0  0  0
   10.7288   -3.8197   19.9525 C   0  0  0  0  0  0  0  0  0  0  0  0
   10.1189   -5.0054   19.6987 C   0  0  0  0  0  0  0  0  0  0  0  0
  1  3  4  0
  1  7  4  0
  2 21  4  0
  2 27  4  0
  3  9  4  0
  3 10  4  0
  4  8  4  0
  4 18  4  0
  4 25  1  0
  5  9  4  0
  5 12  4  0
  6 13  1  0
  6 27  1  0
  7 28  4  0
  8 11  4  0
  9 29  4  0
 10 12  4  0
 11 24  1  0
 11 26  4  0
 12 25  1  0
 13 28  1  0
 14 20  4  0
 14 23  4  0
 15 17  4  0
 15 21  4  0
 16 19  4  0
 16 23  4  0
 17 22  4  0
 18 26  4  0
 19 24  4  0
 20 24  4  0
 22 27  4  0
 28 29  4  0
M  END
$$$$

 Created by Python create_sdf_string function

 29 33  0  0  0  0  0  0  0  0999 V2000
   10.7215   -3.3326   17.6437 C   0  0  0  0  0  0  0  0  0  0  0  0
    9.9489   -3.4675   24.6487 N   0  0  0  0  0  0  0  0  0  0  0  0
   10.0172   -4.4740   17.4101 C   0  0  0  0  0  0  0  0  0  0  0  0
    6.9051   -7.9575   16.4222 C   0  0  0  0  0  0  0  0  0  0  0  0
    8.9969   -6.3552   17.9668 N   0  0  0  0  0  0  0  0  0  0  0  0
   10.6702   -3.9051   22.4070 C   0  0  0  0  0  0  0  0  0  0  0  0
   11.0625   -3.0028   18.8894 C   0  0  0  0  0  0  0  0  0  0  0  0
    5.6180   -7.9194   16.1754 O   0  0  0  0  0  0  0  0  0  0  0  0
    9.7259   -5.3080   18.4485 C   0  0  0  0  0  0  0  0  0  0  0  0
    9.4578   -5.0200   16.3036 N   0  0  0  0  0  0  0  0  0  0  0  0
    5.0287   -8.9365   16.8223 C   0  0  0  0  0  0  0  0  0  0  0  0
    8.7742   -6.1498   16.6764 C   0  0  0  0  0  0  0  0  0  0  0  0
   10.9418   -3.4032   21.2053 O   0  0  0  0  0  0  0  0  0  0  0  0
    1.4797   -8.6258   16.2950 C   0  0  0  0  0  0  0  0  0  0  0  0
    9.2861   -1.2743   25.3585 C   0  0  0  0  0  0  0  0  0  0  0  0
    1.8892  -10.3985   17.7511 N   0  0  0  0  0  0  0  0  0  0  0  0
    9.6210   -0.6952   24.0976 C   0  0  0  0  0  0  0  0  0  0  0  0
    7.0792   -9.0217   17.1429 C   0  0  0  0  0  0  0  0  0  0  0  0
    3.1713  -10.1816   17.6634 C   0  0  0  0  0  0  0  0  0  0  0  0
    2.7878   -8.3822   16.2137 C   0  0  0  0  0  0  0  0  0  0  0  0
    9.4601   -2.6590   25.6528 C   0  0  0  0  0  0  0  0  0  0  0  0
   10.1182   -1.5672   23.1165 C   0  0  0  0  0  0  0  0  0  0  0  0
    1.0552   -9.6360   17.0650 C   0  0  0  0  0  0  0  0  0  0  0  0
    3.6519   -9.1783   16.9039 C   0  0  0  0  0  0  0  0  0  0  0  0
    7.8675   -7.0096   15.9415 C   0  0  0  0  0  0  0  0  0  0  0  0
    5.9733   -9.6553   17.3832 N   0  0  0  0  0  0  0  0  0  0  0  0
   10.2411   -2.9363   23.4301 C   0  0  0  0  0  0  0  0  0  0  0  0
   10.7288   -3.8197   19.9525 C   0  0  0  0  0  0  0  0  0  0  0  0
   10.1189   -5.0054   19.6987 C   0  0  0  0  0  0  0  0  0  0  0  0
  1  3  4  0
  1  7  4  0
  2 21  4  0
  2 27  4  0
  3  9  4  0
  3 10  4  0
  4  8  4  0
  4 18  4  0
  4 25  1  0
  5  9  4  0
  5 12  4  0
  6 13  1  0
  6 27  1  0
  7 28  4  0
  8 11  4  0
  9 29  4  0
 10 12  4  0
 11 24  1  0
 11 26  4  0
 12 25  1  0
 13 28  1  0
 14 20  4  0
 14 23  4  0
 15 17  4  0
 15 21  4  0
 16 19  4  0
 16 23  4  0
 17 22  4  0
 18 26  4  0
 19 24  4  0
 20 24  4  0
 22 27  4  0
 28 29  4  0
M  END
$$$$

 Created by Python create_sdf_string function

 29 33  0  0  0  0  0  0  0  0999 V2000
   10.7215   -3.3326   17.6437 C   0  0  0  0  0  0  0  0  0  0  0  0
    9.9489   -3.4675   24.6487 N   0  0  0  0  0  0  0  0  0  0  0  0
   10.0172   -4.4740   17.4101 C   0  0  0  0  0  0  0  0  0  0  0  0
    6.9051   -7.9575   16.4222 C   0  0  0  0  0  0  0  0  0  0  0  0
    8.9969   -6.3552   17.9668 N   0  0  0  0  0  0  0  0  0  0  0  0
   10.6702   -3.9051   22.4070 C   0  0  0  0  0  0  0  0  0  0  0  0
   11.0625   -3.0028   18.8894 C   0  0  0  0  0  0  0  0  0  0  0  0
    5.6180   -7.9194   16.1754 O   0  0  0  0  0  0  0  0  0  0  0  0
    9.7259   -5.3080   18.4485 C   0  0  0  0  0  0  0  0  0  0  0  0
    9.4578   -5.0200   16.3036 N   0  0  0  0  0  0  0  0  0  0  0  0
    5.0287   -8.9365   16.8223 C   0  0  0  0  0  0  0  0  0  0  0  0
    8.7742   -6.1498   16.6764 C   0  0  0  0  0  0  0  0  0  0  0  0
   10.9418   -3.4032   21.2053 O   0  0  0  0  0  0  0  0  0  0  0  0
    1.4797   -8.6258   16.2950 C   0  0  0  0  0  0  0  0  0  0  0  0
    9.2861   -1.2743   25.3585 C   0  0  0  0  0  0  0  0  0  0  0  0
    1.8892  -10.3985   17.7511 N   0  0  0  0  0  0  0  0  0  0  0  0
    9.6210   -0.6952   24.0976 C   0  0  0  0  0  0  0  0  0  0  0  0
    7.0792   -9.0217   17.1429 C   0  0  0  0  0  0  0  0  0  0  0  0
    3.1713  -10.1816   17.6634 C   0  0  0  0  0  0  0  0  0  0  0  0
    2.7878   -8.3822   16.2137 C   0  0  0  0  0  0  0  0  0  0  0  0
    9.4601   -2.6590   25.6528 C   0  0  0  0  0  0  0  0  0  0  0  0
   10.1182   -1.5672   23.1165 C   0  0  0  0  0  0  0  0  0  0  0  0
    1.0552   -9.6360   17.0650 C   0  0  0  0  0  0  0  0  0  0  0  0
    3.6519   -9.1783   16.9039 C   0  0  0  0  0  0  0  0  0  0  0  0
    7.8675   -7.0096   15.9415 C   0  0  0  0  0  0  0  0  0  0  0  0
    5.9733   -9.6553   17.3832 N   0  0  0  0  0  0  0  0  0  0  0  0
   10.2411   -2.9363   23.4301 C   0  0  0  0  0  0  0  0  0  0  0  0
   10.7288   -3.8197   19.9525 C   0  0  0  0  0  0  0  0  0  0  0  0
   10.1189   -5.0054   19.6987 C   0  0  0  0  0  0  0  0  0  0  0  0
  1  3  4  0
  1  7  4  0
  2 21  4  0
  2 27  4  0
  3  9  4  0
  3 10  4  0
  4  8  4  0
  4 18  4  0
  4 25  1  0
  5  9  4  0
  5 12  4  0
  6 13  1  0
  6 27  1  0
  7 28  4  0
  8 11  4  0
  9 29  4  0
 10 12  4  0
 11 24  1  0
 11 26  4  0
 12 25  1  0
 13 28  1  0
 14 20  4  0
 14 23  4  0
 15 17  4  0
 15 21  4  0
 16 19  4  0
 16 23  4  0
 17 22  4  0
 18 26  4  0
 19 24  4  0
 20 24  4  0
 22 27  4  0
 28 29  4  0
M  END
$$$$

 Created by Python create_sdf_string function

 29 33  0  0  0  0  0  0  0  0999 V2000
   10.7215   -3.3326   17.6437 C   0  0  0  0  0  0  0  0  0  0  0  0
    9.9489   -3.4675   24.6487 N   0  0  0  0  0  0  0  0  0  0  0  0
   10.0172   -4.4740   17.4101 C   0  0  0  0  0  0  0  0  0  0  0  0
    6.9051   -7.9575   16.4222 C   0  0  0  0  0  0  0  0  0  0  0  0
    8.9969   -6.3552   17.9668 N   0  0  0  0  0  0  0  0  0  0  0  0
   10.6702   -3.9051   22.4070 C   0  0  0  0  0  0  0  0  0  0  0  0
   11.0625   -3.0028   18.8894 C   0  0  0  0  0  0  0  0  0  0  0  0
    5.6180   -7.9194   16.1754 O   0  0  0  0  0  0  0  0  0  0  0  0
    9.7259   -5.3080   18.4485 C   0  0  0  0  0  0  0  0  0  0  0  0
    9.4578   -5.0200   16.3036 N   0  0  0  0  0  0  0  0  0  0  0  0
    5.0287   -8.9365   16.8223 C   0  0  0  0  0  0  0  0  0  0  0  0
    8.7742   -6.1498   16.6764 C   0  0  0  0  0  0  0  0  0  0  0  0
   10.9418   -3.4032   21.2053 O   0  0  0  0  0  0  0  0  0  0  0  0
    1.4797   -8.6258   16.2950 C   0  0  0  0  0  0  0  0  0  0  0  0
    9.2861   -1.2743   25.3585 C   0  0  0  0  0  0  0  0  0  0  0  0
    1.8892  -10.3985   17.7511 N   0  0  0  0  0  0  0  0  0  0  0  0
    9.6210   -0.6952   24.0976 C   0  0  0  0  0  0  0  0  0  0  0  0
    7.0792   -9.0217   17.1429 C   0  0  0  0  0  0  0  0  0  0  0  0
    3.1713  -10.1816   17.6634 C   0  0  0  0  0  0  0  0  0  0  0  0
    2.7878   -8.3822   16.2137 C   0  0  0  0  0  0  0  0  0  0  0  0
    9.4601   -2.6590   25.6528 C   0  0  0  0  0  0  0  0  0  0  0  0
   10.1182   -1.5672   23.1165 C   0  0  0  0  0  0  0  0  0  0  0  0
    1.0552   -9.6360   17.0650 C   0  0  0  0  0  0  0  0  0  0  0  0
    3.6519   -9.1783   16.9039 C   0  0  0  0  0  0  0  0  0  0  0  0
    7.8675   -7.0096   15.9415 C   0  0  0  0  0  0  0  0  0  0  0  0
    5.9733   -9.6553   17.3832 N   0  0  0  0  0  0  0  0  0  0  0  0
   10.2411   -2.9363   23.4301 C   0  0  0  0  0  0  0  0  0  0  0  0
   10.7288   -3.8197   19.9525 C   0  0  0  0  0  0  0  0  0  0  0  0
   10.1189   -5.0054   19.6987 C   0  0  0  0  0  0  0  0  0  0  0  0
  1  3  4  0
  1  7  4  0
  2 21  4  0
  2 27  4  0
  3  9  4  0
  3 10  4  0
  4  8  4  0
  4 18  4  0
  4 25  1  0
  5  9  4  0
  5 12  4  0
  6 13  1  0
  6 27  1  0
  7 28  4  0
  8 11  4  0
  9 29  4  0
 10 12  4  0
 11 24  1  0
 11 26  4  0
 12 25  1  0
 13 28  1  0
 14 20  4  0
 14 23  4  0
 15 17  4  0
 15 21  4  0
 16 19  4  0
 16 23  4  0
 17 22  4  0
 18 26  4  0
 19 24  4  0
 20 24  4  0
 22 27  4  0
 28 29  4  0
M  END
$$$$

 Created by Python create_sdf_string function

 29 33  0  0  0  0  0  0  0  0999 V2000
   10.7215   -3.3326   17.6437 C   0  0  0  0  0  0  0  0  0  0  0  0
    9.9489   -3.4675   24.6487 N   0  0  0  0  0  0  0  0  0  0  0  0
   10.0172   -4.4740   17.4101 C   0  0  0  0  0  0  0  0  0  0  0  0
    6.9051   -7.9575   16.4222 C   0  0  0  0  0  0  0  0  0  0  0  0
    8.9969   -6.3552   17.9668 N   0  0  0  0  0  0  0  0  0  0  0  0
   10.6702   -3.9051   22.4070 C   0  0  0  0  0  0  0  0  0  0  0  0
   11.0625   -3.0028   18.8894 C   0  0  0  0  0  0  0  0  0  0  0  0
    5.6180   -7.9194   16.1754 O   0  0  0  0  0  0  0  0  0  0  0  0
    9.7259   -5.3080   18.4485 C   0  0  0  0  0  0  0  0  0  0  0  0
    9.4578   -5.0200   16.3036 N   0  0  0  0  0  0  0  0  0  0  0  0
    5.0287   -8.9365   16.8223 C   0  0  0  0  0  0  0  0  0  0  0  0
    8.7742   -6.1498   16.6764 C   0  0  0  0  0  0  0  0  0  0  0  0
   10.9418   -3.4032   21.2053 O   0  0  0  0  0  0  0  0  0  0  0  0
    1.4797   -8.6258   16.2950 C   0  0  0  0  0  0  0  0  0  0  0  0
    9.2861   -1.2743   25.3585 C   0  0  0  0  0  0  0  0  0  0  0  0
    1.8892  -10.3985   17.7511 N   0  0  0  0  0  0  0  0  0  0  0  0
    9.6210   -0.6952   24.0976 C   0  0  0  0  0  0  0  0  0  0  0  0
    7.0792   -9.0217   17.1429 C   0  0  0  0  0  0  0  0  0  0  0  0
    3.1713  -10.1816   17.6634 C   0  0  0  0  0  0  0  0  0  0  0  0
    2.7878   -8.3822   16.2137 C   0  0  0  0  0  0  0  0  0  0  0  0
    9.4601   -2.6590   25.6528 C   0  0  0  0  0  0  0  0  0  0  0  0
   10.1182   -1.5672   23.1165 C   0  0  0  0  0  0  0  0  0  0  0  0
    1.0552   -9.6360   17.0650 C   0  0  0  0  0  0  0  0  0  0  0  0
    3.6519   -9.1783   16.9039 C   0  0  0  0  0  0  0  0  0  0  0  0
    7.8675   -7.0096   15.9415 C   0  0  0  0  0  0  0  0  0  0  0  0
    5.9733   -9.6553   17.3832 N   0  0  0  0  0  0  0  0  0  0  0  0
   10.2411   -2.9363   23.4301 C   0  0  0  0  0  0  0  0  0  0  0  0
   10.7288   -3.8197   19.9525 C   0  0  0  0  0  0  0  0  0  0  0  0
   10.1189   -5.0054   19.6987 C   0  0  0  0  0  0  0  0  0  0  0  0
  1  3  4  0
  1  7  4  0
  2 21  4  0
  2 27  4  0
  3  9  4  0
  3 10  4  0
  4  8  4  0
  4 18  4  0
  4 25  1  0
  5  9  4  0
  5 12  4  0
  6 13  1  0
  6 27  1  0
  7 28  4  0
  8 11  4  0
  9 29  4  0
 10 12  4  0
 11 24  1  0
 11 26  4  0
 12 25  1  0
 13 28  1  0
 14 20  4  0
 14 23  4  0
 15 17  4  0
 15 21  4  0
 16 19  4  0
 16 23  4  0
 17 22  4  0
 18 26  4  0
 19 24  4  0
 20 24  4  0
 22 27  4  0
 28 29  4  0
M  END
$$$$

 Created by Python create_sdf_string function

 29 33  0  0  0  0  0  0  0  0999 V2000
   10.7215   -3.3326   17.6437 C   0  0  0  0  0  0  0  0  0  0  0  0
    9.9489   -3.4675   24.6487 N   0  0  0  0  0  0  0  0  0  0  0  0
   10.0172   -4.4740   17.4101 C   0  0  0  0  0  0  0  0  0  0  0  0
    6.9051   -7.9575   16.4222 C   0  0  0  0  0  0  0  0  0  0  0  0
    8.9969   -6.3552   17.9668 N   0  0  0  0  0  0  0  0  0  0  0  0
   10.6702   -3.9051   22.4070 C   0  0  0  0  0  0  0  0  0  0  0  0
   11.0625   -3.0028   18.8894 C   0  0  0  0  0  0  0  0  0  0  0  0
    5.6180   -7.9194   16.1754 O   0  0  0  0  0  0  0  0  0  0  0  0
    9.7259   -5.3080   18.4485 C   0  0  0  0  0  0  0  0  0  0  0  0
    9.4578   -5.0200   16.3036 N   0  0  0  0  0  0  0  0  0  0  0  0
    5.0287   -8.9365   16.8223 C   0  0  0  0  0  0  0  0  0  0  0  0
    8.7742   -6.1498   16.6764 C   0  0  0  0  0  0  0  0  0  0  0  0
   10.9418   -3.4032   21.2053 O   0  0  0  0  0  0  0  0  0  0  0  0
    1.4797   -8.6258   16.2950 C   0  0  0  0  0  0  0  0  0  0  0  0
    9.2861   -1.2743   25.3585 C   0  0  0  0  0  0  0  0  0  0  0  0
    1.8892  -10.3985   17.7511 N   0  0  0  0  0  0  0  0  0  0  0  0
    9.6210   -0.6952   24.0976 C   0  0  0  0  0  0  0  0  0  0  0  0
    7.0792   -9.0217   17.1429 C   0  0  0  0  0  0  0  0  0  0  0  0
    3.1713  -10.1816   17.6634 C   0  0  0  0  0  0  0  0  0  0  0  0
    2.7878   -8.3822   16.2137 C   0  0  0  0  0  0  0  0  0  0  0  0
    9.4601   -2.6590   25.6528 C   0  0  0  0  0  0  0  0  0  0  0  0
   10.1182   -1.5672   23.1165 C   0  0  0  0  0  0  0  0  0  0  0  0
    1.0552   -9.6360   17.0650 C   0  0  0  0  0  0  0  0  0  0  0  0
    3.6519   -9.1783   16.9039 C   0  0  0  0  0  0  0  0  0  0  0  0
    7.8675   -7.0096   15.9415 C   0  0  0  0  0  0  0  0  0  0  0  0
    5.9733   -9.6553   17.3832 N   0  0  0  0  0  0  0  0  0  0  0  0
   10.2411   -2.9363   23.4301 C   0  0  0  0  0  0  0  0  0  0  0  0
   10.7288   -3.8197   19.9525 C   0  0  0  0  0  0  0  0  0  0  0  0
   10.1189   -5.0054   19.6987 C   0  0  0  0  0  0  0  0  0  0  0  0
  1  3  4  0
  1  7  4  0
  2 21  4  0
  2 27  4  0
  3  9  4  0
  3 10  4  0
  4  8  4  0
  4 18  4  0
  4 25  1  0
  5  9  4  0
  5 12  4  0
  6 13  1  0
  6 27  1  0
  7 28  4  0
  8 11  4  0
  9 29  4  0
 10 12  4  0
 11 24  1  0
 11 26  4  0
 12 25  1  0
 13 28  1  0
 14 20  4  0
 14 23  4  0
 15 17  4  0
 15 21  4  0
 16 19  4  0
 16 23  4  0
 17 22  4  0
 18 26  4  0
 19 24  4  0
 20 24  4  0
 22 27  4  0
 28 29  4  0
M  END
$$$$

 Created by Python create_sdf_string function

 29 33  0  0  0  0  0  0  0  0999 V2000
   10.7215   -3.3326   17.6437 C   0  0  0  0  0  0  0  0  0  0  0  0
    9.9489   -3.4675   24.6487 N   0  0  0  0  0  0  0  0  0  0  0  0
   10.0172   -4.4740   17.4101 C   0  0  0  0  0  0  0  0  0  0  0  0
    6.9051   -7.9575   16.4222 C   0  0  0  0  0  0  0  0  0  0  0  0
    8.9969   -6.3552   17.9668 N   0  0  0  0  0  0  0  0  0  0  0  0
   10.6702   -3.9051   22.4070 C   0  0  0  0  0  0  0  0  0  0  0  0
   11.0625   -3.0028   18.8894 C   0  0  0  0  0  0  0  0  0  0  0  0
    5.6180   -7.9194   16.1754 O   0  0  0  0  0  0  0  0  0  0  0  0
    9.7259   -5.3080   18.4485 C   0  0  0  0  0  0  0  0  0  0  0  0
    9.4578   -5.0200   16.3036 N   0  0  0  0  0  0  0  0  0  0  0  0
    5.0287   -8.9365   16.8223 C   0  0  0  0  0  0  0  0  0  0  0  0
    8.7742   -6.1498   16.6764 C   0  0  0  0  0  0  0  0  0  0  0  0
   10.9418   -3.4032   21.2053 O   0  0  0  0  0  0  0  0  0  0  0  0
    1.4797   -8.6258   16.2950 C   0  0  0  0  0  0  0  0  0  0  0  0
    9.2861   -1.2743   25.3585 C   0  0  0  0  0  0  0  0  0  0  0  0
    1.8892  -10.3985   17.7511 N   0  0  0  0  0  0  0  0  0  0  0  0
    9.6210   -0.6952   24.0976 C   0  0  0  0  0  0  0  0  0  0  0  0
    7.0792   -9.0217   17.1429 C   0  0  0  0  0  0  0  0  0  0  0  0
    3.1713  -10.1816   17.6634 C   0  0  0  0  0  0  0  0  0  0  0  0
    2.7878   -8.3822   16.2137 C   0  0  0  0  0  0  0  0  0  0  0  0
    9.4601   -2.6590   25.6528 C   0  0  0  0  0  0  0  0  0  0  0  0
   10.1182   -1.5672   23.1165 C   0  0  0  0  0  0  0  0  0  0  0  0
    1.0552   -9.6360   17.0650 C   0  0  0  0  0  0  0  0  0  0  0  0
    3.6519   -9.1783   16.9039 C   0  0  0  0  0  0  0  0  0  0  0  0
    7.8675   -7.0096   15.9415 C   0  0  0  0  0  0  0  0  0  0  0  0
    5.9733   -9.6553   17.3832 N   0  0  0  0  0  0  0  0  0  0  0  0
   10.2411   -2.9363   23.4301 C   0  0  0  0  0  0  0  0  0  0  0  0
   10.7288   -3.8197   19.9525 C   0  0  0  0  0  0  0  0  0  0  0  0
   10.1189   -5.0054   19.6987 C   0  0  0  0  0  0  0  0  0  0  0  0
  1  3  4  0
  1  7  4  0
  2 21  4  0
  2 27  4  0
  3  9  4  0
  3 10  4  0
  4  8  4  0
  4 18  4  0
  4 25  1  0
  5  9  4  0
  5 12  4  0
  6 13  1  0
  6 27  1  0
  7 28  4  0
  8 11  4  0
  9 29  4  0
 10 12  4  0
 11 24  1  0
 11 26  4  0
 12 25  1  0
 13 28  1  0
 14 20  4  0
 14 23  4  0
 15 17  4  0
 15 21  4  0
 16 19  4  0
 16 23  4  0
 17 22  4  0
 18 26  4  0
 19 24  4  0
 20 24  4  0
 22 27  4  0
 28 29  4  0
M  END
$$$$

 Created by Python create_sdf_string function

 29 33  0  0  0  0  0  0  0  0999 V2000
   10.7215   -3.3326   17.6437 C   0  0  0  0  0  0  0  0  0  0  0  0
    9.9489   -3.4675   24.6487 N   0  0  0  0  0  0  0  0  0  0  0  0
   10.0172   -4.4740   17.4101 C   0  0  0  0  0  0  0  0  0  0  0  0
    6.9051   -7.9575   16.4222 C   0  0  0  0  0  0  0  0  0  0  0  0
    8.9969   -6.3552   17.9668 N   0  0  0  0  0  0  0  0  0  0  0  0
   10.6702   -3.9051   22.4070 C   0  0  0  0  0  0  0  0  0  0  0  0
   11.0625   -3.0028   18.8894 C   0  0  0  0  0  0  0  0  0  0  0  0
    5.6180   -7.9194   16.1754 O   0  0  0  0  0  0  0  0  0  0  0  0
    9.7259   -5.3080   18.4485 C   0  0  0  0  0  0  0  0  0  0  0  0
    9.4578   -5.0200   16.3036 N   0  0  0  0  0  0  0  0  0  0  0  0
    5.0287   -8.9365   16.8223 C   0  0  0  0  0  0  0  0  0  0  0  0
    8.7742   -6.1498   16.6764 C   0  0  0  0  0  0  0  0  0  0  0  0
   10.9418   -3.4032   21.2053 O   0  0  0  0  0  0  0  0  0  0  0  0
    1.4797   -8.6258   16.2950 C   0  0  0  0  0  0  0  0  0  0  0  0
    9.2861   -1.2743   25.3585 C   0  0  0  0  0  0  0  0  0  0  0  0
    1.8892  -10.3985   17.7511 N   0  0  0  0  0  0  0  0  0  0  0  0
    9.6210   -0.6952   24.0976 C   0  0  0  0  0  0  0  0  0  0  0  0
    7.0792   -9.0217   17.1429 C   0  0  0  0  0  0  0  0  0  0  0  0
    3.1713  -10.1816   17.6634 C   0  0  0  0  0  0  0  0  0  0  0  0
    2.7878   -8.3822   16.2137 C   0  0  0  0  0  0  0  0  0  0  0  0
    9.4601   -2.6590   25.6528 C   0  0  0  0  0  0  0  0  0  0  0  0
   10.1182   -1.5672   23.1165 C   0  0  0  0  0  0  0  0  0  0  0  0
    1.0552   -9.6360   17.0650 C   0  0  0  0  0  0  0  0  0  0  0  0
    3.6519   -9.1783   16.9039 C   0  0  0  0  0  0  0  0  0  0  0  0
    7.8675   -7.0096   15.9415 C   0  0  0  0  0  0  0  0  0  0  0  0
    5.9733   -9.6553   17.3832 N   0  0  0  0  0  0  0  0  0  0  0  0
   10.2411   -2.9363   23.4301 C   0  0  0  0  0  0  0  0  0  0  0  0
   10.7288   -3.8197   19.9525 C   0  0  0  0  0  0  0  0  0  0  0  0
   10.1189   -5.0054   19.6987 C   0  0  0  0  0  0  0  0  0  0  0  0
  1  3  4  0
  1  7  4  0
  2 21  4  0
  2 27  4  0
  3  9  4  0
  3 10  4  0
  4  8  4  0
  4 18  4  0
  4 25  1  0
  5  9  4  0
  5 12  4  0
  6 13  1  0
  6 27  1  0
  7 28  4  0
  8 11  4  0
  9 29  4  0
 10 12  4  0
 11 24  1  0
 11 26  4  0
 12 25  1  0
 13 28  1  0
 14 20  4  0
 14 23  4  0
 15 17  4  0
 15 21  4  0
 16 19  4  0
 16 23  4  0
 17 22  4  0
 18 26  4  0
 19 24  4  0
 20 24  4  0
 22 27  4  0
 28 29  4  0
M  END
$$$$

 Created by Python create_sdf_string function

 29 33  0  0  0  0  0  0  0  0999 V2000
   10.7215   -3.3326   17.6437 C   0  0  0  0  0  0  0  0  0  0  0  0
    9.9489   -3.4675   24.6487 N   0  0  0  0  0  0  0  0  0  0  0  0
   10.0172   -4.4740   17.4101 C   0  0  0  0  0  0  0  0  0  0  0  0
    6.9051   -7.9575   16.4222 C   0  0  0  0  0  0  0  0  0  0  0  0
    8.9969   -6.3552   17.9668 N   0  0  0  0  0  0  0  0  0  0  0  0
   10.6702   -3.9051   22.4070 C   0  0  0  0  0  0  0  0  0  0  0  0
   11.0625   -3.0028   18.8894 C   0  0  0  0  0  0  0  0  0  0  0  0
    5.6180   -7.9194   16.1754 O   0  0  0  0  0  0  0  0  0  0  0  0
    9.7259   -5.3080   18.4485 C   0  0  0  0  0  0  0  0  0  0  0  0
    9.4578   -5.0200   16.3036 N   0  0  0  0  0  0  0  0  0  0  0  0
    5.0287   -8.9365   16.8223 C   0  0  0  0  0  0  0  0  0  0  0  0
    8.7742   -6.1498   16.6764 C   0  0  0  0  0  0  0  0  0  0  0  0
   10.9418   -3.4032   21.2053 O   0  0  0  0  0  0  0  0  0  0  0  0
    1.4797   -8.6258   16.2950 C   0  0  0  0  0  0  0  0  0  0  0  0
    9.2861   -1.2743   25.3585 C   0  0  0  0  0  0  0  0  0  0  0  0
    1.8892  -10.3985   17.7511 N   0  0  0  0  0  0  0  0  0  0  0  0
    9.6210   -0.6952   24.0976 C   0  0  0  0  0  0  0  0  0  0  0  0
    7.0792   -9.0217   17.1429 C   0  0  0  0  0  0  0  0  0  0  0  0
    3.1713  -10.1816   17.6634 C   0  0  0  0  0  0  0  0  0  0  0  0
    2.7878   -8.3822   16.2137 C   0  0  0  0  0  0  0  0  0  0  0  0
    9.4601   -2.6590   25.6528 C   0  0  0  0  0  0  0  0  0  0  0  0
   10.1182   -1.5672   23.1165 C   0  0  0  0  0  0  0  0  0  0  0  0
    1.0552   -9.6360   17.0650 C   0  0  0  0  0  0  0  0  0  0  0  0
    3.6519   -9.1783   16.9039 C   0  0  0  0  0  0  0  0  0  0  0  0
    7.8675   -7.0096   15.9415 C   0  0  0  0  0  0  0  0  0  0  0  0
    5.9733   -9.6553   17.3832 N   0  0  0  0  0  0  0  0  0  0  0  0
   10.2411   -2.9363   23.4301 C   0  0  0  0  0  0  0  0  0  0  0  0
   10.7288   -3.8197   19.9525 C   0  0  0  0  0  0  0  0  0  0  0  0
   10.1189   -5.0054   19.6987 C   0  0  0  0  0  0  0  0  0  0  0  0
  1  3  4  0
  1  7  4  0
  2 21  4  0
  2 27  4  0
  3  9  4  0
  3 10  4  0
  4  8  4  0
  4 18  4  0
  4 25  1  0
  5  9  4  0
  5 12  4  0
  6 13  1  0
  6 27  1  0
  7 28  4  0
  8 11  4  0
  9 29  4  0
 10 12  4  0
 11 24  1  0
 11 26  4  0
 12 25  1  0
 13 28  1  0
 14 20  4  0
 14 23  4  0
 15 17  4  0
 15 21  4  0
 16 19  4  0
 16 23  4  0
 17 22  4  0
 18 26  4  0
 19 24  4  0
 20 24  4  0
 22 27  4  0
 28 29  4  0
M  END
$$$$

 Created by Python create_sdf_string function

 29 33  0  0  0  0  0  0  0  0999 V2000
   10.7215   -3.3326   17.6437 C   0  0  0  0  0  0  0  0  0  0  0  0
    9.9489   -3.4675   24.6487 N   0  0  0  0  0  0  0  0  0  0  0  0
   10.0172   -4.4740   17.4101 C   0  0  0  0  0  0  0  0  0  0  0  0
    6.9051   -7.9575   16.4222 C   0  0  0  0  0  0  0  0  0  0  0  0
    8.9969   -6.3552   17.9668 N   0  0  0  0  0  0  0  0  0  0  0  0
   10.6702   -3.9051   22.4070 C   0  0  0  0  0  0  0  0  0  0  0  0
   11.0625   -3.0028   18.8894 C   0  0  0  0  0  0  0  0  0  0  0  0
    5.6180   -7.9194   16.1754 O   0  0  0  0  0  0  0  0  0  0  0  0
    9.7259   -5.3080   18.4485 C   0  0  0  0  0  0  0  0  0  0  0  0
    9.4578   -5.0200   16.3036 N   0  0  0  0  0  0  0  0  0  0  0  0
    5.0287   -8.9365   16.8223 C   0  0  0  0  0  0  0  0  0  0  0  0
    8.7742   -6.1498   16.6764 C   0  0  0  0  0  0  0  0  0  0  0  0
   10.9418   -3.4032   21.2053 O   0  0  0  0  0  0  0  0  0  0  0  0
    1.4797   -8.6258   16.2950 C   0  0  0  0  0  0  0  0  0  0  0  0
    9.2861   -1.2743   25.3585 C   0  0  0  0  0  0  0  0  0  0  0  0
    1.8892  -10.3985   17.7511 N   0  0  0  0  0  0  0  0  0  0  0  0
    9.6210   -0.6952   24.0976 C   0  0  0  0  0  0  0  0  0  0  0  0
    7.0792   -9.0217   17.1429 C   0  0  0  0  0  0  0  0  0  0  0  0
    3.1713  -10.1816   17.6634 C   0  0  0  0  0  0  0  0  0  0  0  0
    2.7878   -8.3822   16.2137 C   0  0  0  0  0  0  0  0  0  0  0  0
    9.4601   -2.6590   25.6528 C   0  0  0  0  0  0  0  0  0  0  0  0
   10.1182   -1.5672   23.1165 C   0  0  0  0  0  0  0  0  0  0  0  0
    1.0552   -9.6360   17.0650 C   0  0  0  0  0  0  0  0  0  0  0  0
    3.6519   -9.1783   16.9039 C   0  0  0  0  0  0  0  0  0  0  0  0
    7.8675   -7.0096   15.9415 C   0  0  0  0  0  0  0  0  0  0  0  0
    5.9733   -9.6553   17.3832 N   0  0  0  0  0  0  0  0  0  0  0  0
   10.2411   -2.9363   23.4301 C   0  0  0  0  0  0  0  0  0  0  0  0
   10.7288   -3.8197   19.9525 C   0  0  0  0  0  0  0  0  0  0  0  0
   10.1189   -5.0054   19.6987 C   0  0  0  0  0  0  0  0  0  0  0  0
  1  3  4  0
  1  7  4  0
  2 21  4  0
  2 27  4  0
  3  9  4  0
  3 10  4  0
  4  8  4  0
  4 18  4  0
  4 25  1  0
  5  9  4  0
  5 12  4  0
  6 13  1  0
  6 27  1  0
  7 28  4  0
  8 11  4  0
  9 29  4  0
 10 12  4  0
 11 24  1  0
 11 26  4  0
 12 25  1  0
 13 28  1  0
 14 20  4  0
 14 23  4  0
 15 17  4  0
 15 21  4  0
 16 19  4  0
 16 23  4  0
 17 22  4  0
 18 26  4  0
 19 24  4  0
 20 24  4  0
 22 27  4  0
 28 29  4  0
M  END
$$$$

 Created by Python create_sdf_string function

 29 33  0  0  0  0  0  0  0  0999 V2000
   10.7215   -3.3326   17.6437 C   0  0  0  0  0  0  0  0  0  0  0  0
    9.9489   -3.4675   24.6487 N   0  0  0  0  0  0  0  0  0  0  0  0
   10.0172   -4.4740   17.4101 C   0  0  0  0  0  0  0  0  0  0  0  0
    6.9051   -7.9575   16.4222 C   0  0  0  0  0  0  0  0  0  0  0  0
    8.9969   -6.3552   17.9668 N   0  0  0  0  0  0  0  0  0  0  0  0
   10.6702   -3.9051   22.4070 C   0  0  0  0  0  0  0  0  0  0  0  0
   11.0625   -3.0028   18.8894 C   0  0  0  0  0  0  0  0  0  0  0  0
    5.6180   -7.9194   16.1754 O   0  0  0  0  0  0  0  0  0  0  0  0
    9.7259   -5.3080   18.4485 C   0  0  0  0  0  0  0  0  0  0  0  0
    9.4578   -5.0200   16.3036 N   0  0  0  0  0  0  0  0  0  0  0  0
    5.0287   -8.9365   16.8223 C   0  0  0  0  0  0  0  0  0  0  0  0
    8.7742   -6.1498   16.6764 C   0  0  0  0  0  0  0  0  0  0  0  0
   10.9418   -3.4032   21.2053 O   0  0  0  0  0  0  0  0  0  0  0  0
    1.4797   -8.6258   16.2950 C   0  0  0  0  0  0  0  0  0  0  0  0
    9.2861   -1.2743   25.3585 C   0  0  0  0  0  0  0  0  0  0  0  0
    1.8892  -10.3985   17.7511 N   0  0  0  0  0  0  0  0  0  0  0  0
    9.6210   -0.6952   24.0976 C   0  0  0  0  0  0  0  0  0  0  0  0
    7.0792   -9.0217   17.1429 C   0  0  0  0  0  0  0  0  0  0  0  0
    3.1713  -10.1816   17.6634 C   0  0  0  0  0  0  0  0  0  0  0  0
    2.7878   -8.3822   16.2137 C   0  0  0  0  0  0  0  0  0  0  0  0
    9.4601   -2.6590   25.6528 C   0  0  0  0  0  0  0  0  0  0  0  0
   10.1182   -1.5672   23.1165 C   0  0  0  0  0  0  0  0  0  0  0  0
    1.0552   -9.6360   17.0650 C   0  0  0  0  0  0  0  0  0  0  0  0
    3.6519   -9.1783   16.9039 C   0  0  0  0  0  0  0  0  0  0  0  0
    7.8675   -7.0096   15.9415 C   0  0  0  0  0  0  0  0  0  0  0  0
    5.9733   -9.6553   17.3832 N   0  0  0  0  0  0  0  0  0  0  0  0
   10.2411   -2.9363   23.4301 C   0  0  0  0  0  0  0  0  0  0  0  0
   10.7288   -3.8197   19.9525 C   0  0  0  0  0  0  0  0  0  0  0  0
   10.1189   -5.0054   19.6987 C   0  0  0  0  0  0  0  0  0  0  0  0
  1  3  4  0
  1  7  4  0
  2 21  4  0
  2 27  4  0
  3  9  4  0
  3 10  4  0
  4  8  4  0
  4 18  4  0
  4 25  1  0
  5  9  4  0
  5 12  4  0
  6 13  1  0
  6 27  1  0
  7 28  4  0
  8 11  4  0
  9 29  4  0
 10 12  4  0
 11 24  1  0
 11 26  4  0
 12 25  1  0
 13 28  1  0
 14 20  4  0
 14 23  4  0
 15 17  4  0
 15 21  4  0
 16 19  4  0
 16 23  4  0
 17 22  4  0
 18 26  4  0
 19 24  4  0
 20 24  4  0
 22 27  4  0
 28 29  4  0
M  END
$$$$

 Created by Python create_sdf_string function

 29 33  0  0  0  0  0  0  0  0999 V2000
   10.7215   -3.3326   17.6437 C   0  0  0  0  0  0  0  0  0  0  0  0
    9.9489   -3.4675   24.6487 N   0  0  0  0  0  0  0  0  0  0  0  0
   10.0172   -4.4740   17.4101 C   0  0  0  0  0  0  0  0  0  0  0  0
    6.9051   -7.9575   16.4222 C   0  0  0  0  0  0  0  0  0  0  0  0
    8.9969   -6.3552   17.9668 N   0  0  0  0  0  0  0  0  0  0  0  0
   10.6702   -3.9051   22.4070 C   0  0  0  0  0  0  0  0  0  0  0  0
   11.0625   -3.0028   18.8894 C   0  0  0  0  0  0  0  0  0  0  0  0
    5.6180   -7.9194   16.1754 O   0  0  0  0  0  0  0  0  0  0  0  0
    9.7259   -5.3080   18.4485 C   0  0  0  0  0  0  0  0  0  0  0  0
    9.4578   -5.0200   16.3036 N   0  0  0  0  0  0  0  0  0  0  0  0
    5.0287   -8.9365   16.8223 C   0  0  0  0  0  0  0  0  0  0  0  0
    8.7742   -6.1498   16.6764 C   0  0  0  0  0  0  0  0  0  0  0  0
   10.9418   -3.4032   21.2053 O   0  0  0  0  0  0  0  0  0  0  0  0
    1.4797   -8.6258   16.2950 C   0  0  0  0  0  0  0  0  0  0  0  0
    9.2861   -1.2743   25.3585 C   0  0  0  0  0  0  0  0  0  0  0  0
    1.8892  -10.3985   17.7511 N   0  0  0  0  0  0  0  0  0  0  0  0
    9.6210   -0.6952   24.0976 C   0  0  0  0  0  0  0  0  0  0  0  0
    7.0792   -9.0217   17.1429 C   0  0  0  0  0  0  0  0  0  0  0  0
    3.1713  -10.1816   17.6634 C   0  0  0  0  0  0  0  0  0  0  0  0
    2.7878   -8.3822   16.2137 C   0  0  0  0  0  0  0  0  0  0  0  0
    9.4601   -2.6590   25.6528 C   0  0  0  0  0  0  0  0  0  0  0  0
   10.1182   -1.5672   23.1165 C   0  0  0  0  0  0  0  0  0  0  0  0
    1.0552   -9.6360   17.0650 C   0  0  0  0  0  0  0  0  0  0  0  0
    3.6519   -9.1783   16.9039 C   0  0  0  0  0  0  0  0  0  0  0  0
    7.8675   -7.0096   15.9415 C   0  0  0  0  0  0  0  0  0  0  0  0
    5.9733   -9.6553   17.3832 N   0  0  0  0  0  0  0  0  0  0  0  0
   10.2411   -2.9363   23.4301 C   0  0  0  0  0  0  0  0  0  0  0  0
   10.7288   -3.8197   19.9525 C   0  0  0  0  0  0  0  0  0  0  0  0
   10.1189   -5.0054   19.6987 C   0  0  0  0  0  0  0  0  0  0  0  0
  1  3  4  0
  1  7  4  0
  2 21  4  0
  2 27  4  0
  3  9  4  0
  3 10  4  0
  4  8  4  0
  4 18  4  0
  4 25  1  0
  5  9  4  0
  5 12  4  0
  6 13  1  0
  6 27  1  0
  7 28  4  0
  8 11  4  0
  9 29  4  0
 10 12  4  0
 11 24  1  0
 11 26  4  0
 12 25  1  0
 13 28  1  0
 14 20  4  0
 14 23  4  0
 15 17  4  0
 15 21  4  0
 16 19  4  0
 16 23  4  0
 17 22  4  0
 18 26  4  0
 19 24  4  0
 20 24  4  0
 22 27  4  0
 28 29  4  0
M  END
$$$$

 Created by Python create_sdf_string function

 29 33  0  0  0  0  0  0  0  0999 V2000
   10.7215   -3.3326   17.6437 C   0  0  0  0  0  0  0  0  0  0  0  0
    9.9489   -3.4675   24.6487 N   0  0  0  0  0  0  0  0  0  0  0  0
   10.0172   -4.4740   17.4101 C   0  0  0  0  0  0  0  0  0  0  0  0
    6.9051   -7.9575   16.4222 C   0  0  0  0  0  0  0  0  0  0  0  0
    8.9969   -6.3552   17.9668 N   0  0  0  0  0  0  0  0  0  0  0  0
   10.6702   -3.9051   22.4070 C   0  0  0  0  0  0  0  0  0  0  0  0
   11.0625   -3.0028   18.8894 C   0  0  0  0  0  0  0  0  0  0  0  0
    5.6180   -7.9194   16.1754 O   0  0  0  0  0  0  0  0  0  0  0  0
    9.7259   -5.3080   18.4485 C   0  0  0  0  0  0  0  0  0  0  0  0
    9.4578   -5.0200   16.3036 N   0  0  0  0  0  0  0  0  0  0  0  0
    5.0287   -8.9365   16.8223 C   0  0  0  0  0  0  0  0  0  0  0  0
    8.7742   -6.1498   16.6764 C   0  0  0  0  0  0  0  0  0  0  0  0
   10.9418   -3.4032   21.2053 O   0  0  0  0  0  0  0  0  0  0  0  0
    1.4797   -8.6258   16.2950 C   0  0  0  0  0  0  0  0  0  0  0  0
    9.2861   -1.2743   25.3585 C   0  0  0  0  0  0  0  0  0  0  0  0
    1.8892  -10.3985   17.7511 N   0  0  0  0  0  0  0  0  0  0  0  0
    9.6210   -0.6952   24.0976 C   0  0  0  0  0  0  0  0  0  0  0  0
    7.0792   -9.0217   17.1429 C   0  0  0  0  0  0  0  0  0  0  0  0
    3.1713  -10.1816   17.6634 C   0  0  0  0  0  0  0  0  0  0  0  0
    2.7878   -8.3822   16.2137 C   0  0  0  0  0  0  0  0  0  0  0  0
    9.4601   -2.6590   25.6528 C   0  0  0  0  0  0  0  0  0  0  0  0
   10.1182   -1.5672   23.1165 C   0  0  0  0  0  0  0  0  0  0  0  0
    1.0552   -9.6360   17.0650 C   0  0  0  0  0  0  0  0  0  0  0  0
    3.6519   -9.1783   16.9039 C   0  0  0  0  0  0  0  0  0  0  0  0
    7.8675   -7.0096   15.9415 C   0  0  0  0  0  0  0  0  0  0  0  0
    5.9733   -9.6553   17.3832 N   0  0  0  0  0  0  0  0  0  0  0  0
   10.2411   -2.9363   23.4301 C   0  0  0  0  0  0  0  0  0  0  0  0
   10.7288   -3.8197   19.9525 C   0  0  0  0  0  0  0  0  0  0  0  0
   10.1189   -5.0054   19.6987 C   0  0  0  0  0  0  0  0  0  0  0  0
  1  3  4  0
  1  7  4  0
  2 21  4  0
  2 27  4  0
  3  9  4  0
  3 10  4  0
  4  8  4  0
  4 18  4  0
  4 25  1  0
  5  9  4  0
  5 12  4  0
  6 13  1  0
  6 27  1  0
  7 28  4  0
  8 11  4  0
  9 29  4  0
 10 12  4  0
 11 24  1  0
 11 26  4  0
 12 25  1  0
 13 28  1  0
 14 20  4  0
 14 23  4  0
 15 17  4  0
 15 21  4  0
 16 19  4  0
 16 23  4  0
 17 22  4  0
 18 26  4  0
 19 24  4  0
 20 24  4  0
 22 27  4  0
 28 29  4  0
M  END
$$$$

 Created by Python create_sdf_string function

 29 33  0  0  0  0  0  0  0  0999 V2000
   10.7215   -3.3326   17.6437 C   0  0  0  0  0  0  0  0  0  0  0  0
    9.9489   -3.4675   24.6487 N   0  0  0  0  0  0  0  0  0  0  0  0
   10.0172   -4.4740   17.4101 C   0  0  0  0  0  0  0  0  0  0  0  0
    6.9051   -7.9575   16.4222 C   0  0  0  0  0  0  0  0  0  0  0  0
    8.9969   -6.3552   17.9668 N   0  0  0  0  0  0  0  0  0  0  0  0
   10.6702   -3.9051   22.4070 C   0  0  0  0  0  0  0  0  0  0  0  0
   11.0625   -3.0028   18.8894 C   0  0  0  0  0  0  0  0  0  0  0  0
    5.6180   -7.9194   16.1754 O   0  0  0  0  0  0  0  0  0  0  0  0
    9.7259   -5.3080   18.4485 C   0  0  0  0  0  0  0  0  0  0  0  0
    9.4578   -5.0200   16.3036 N   0  0  0  0  0  0  0  0  0  0  0  0
    5.0287   -8.9365   16.8223 C   0  0  0  0  0  0  0  0  0  0  0  0
    8.7742   -6.1498   16.6764 C   0  0  0  0  0  0  0  0  0  0  0  0
   10.9418   -3.4032   21.2053 O   0  0  0  0  0  0  0  0  0  0  0  0
    1.4797   -8.6258   16.2950 C   0  0  0  0  0  0  0  0  0  0  0  0
    9.2861   -1.2743   25.3585 C   0  0  0  0  0  0  0  0  0  0  0  0
    1.8892  -10.3985   17.7511 N   0  0  0  0  0  0  0  0  0  0  0  0
    9.6210   -0.6952   24.0976 C   0  0  0  0  0  0  0  0  0  0  0  0
    7.0792   -9.0217   17.1429 C   0  0  0  0  0  0  0  0  0  0  0  0
    3.1713  -10.1816   17.6634 C   0  0  0  0  0  0  0  0  0  0  0  0
    2.7878   -8.3822   16.2137 C   0  0  0  0  0  0  0  0  0  0  0  0
    9.4601   -2.6590   25.6528 C   0  0  0  0  0  0  0  0  0  0  0  0
   10.1182   -1.5672   23.1165 C   0  0  0  0  0  0  0  0  0  0  0  0
    1.0552   -9.6360   17.0650 C   0  0  0  0  0  0  0  0  0  0  0  0
    3.6519   -9.1783   16.9039 C   0  0  0  0  0  0  0  0  0  0  0  0
    7.8675   -7.0096   15.9415 C   0  0  0  0  0  0  0  0  0  0  0  0
    5.9733   -9.6553   17.3832 N   0  0  0  0  0  0  0  0  0  0  0  0
   10.2411   -2.9363   23.4301 C   0  0  0  0  0  0  0  0  0  0  0  0
   10.7288   -3.8197   19.9525 C   0  0  0  0  0  0  0  0  0  0  0  0
   10.1189   -5.0054   19.6987 C   0  0  0  0  0  0  0  0  0  0  0  0
  1  3  4  0
  1  7  4  0
  2 21  4  0
  2 27  4  0
  3  9  4  0
  3 10  4  0
  4  8  4  0
  4 18  4  0
  4 25  1  0
  5  9  4  0
  5 12  4  0
  6 13  1  0
  6 27  1  0
  7 28  4  0
  8 11  4  0
  9 29  4  0
 10 12  4  0
 11 24  1  0
 11 26  4  0
 12 25  1  0
 13 28  1  0
 14 20  4  0
 14 23  4  0
 15 17  4  0
 15 21  4  0
 16 19  4  0
 16 23  4  0
 17 22  4  0
 18 26  4  0
 19 24  4  0
 20 24  4  0
 22 27  4  0
 28 29  4  0
M  END
$$$$

 Created by Python create_sdf_string function

 29 33  0  0  0  0  0  0  0  0999 V2000
   10.7215   -3.3326   17.6437 C   0  0  0  0  0  0  0  0  0  0  0  0
    9.9489   -3.4675   24.6487 N   0  0  0  0  0  0  0  0  0  0  0  0
   10.0172   -4.4740   17.4101 C   0  0  0  0  0  0  0  0  0  0  0  0
    6.9051   -7.9575   16.4222 C   0  0  0  0  0  0  0  0  0  0  0  0
    8.9969   -6.3552   17.9668 N   0  0  0  0  0  0  0  0  0  0  0  0
   10.6702   -3.9051   22.4070 C   0  0  0  0  0  0  0  0  0  0  0  0
   11.0625   -3.0028   18.8894 C   0  0  0  0  0  0  0  0  0  0  0  0
    5.6180   -7.9194   16.1754 O   0  0  0  0  0  0  0  0  0  0  0  0
    9.7259   -5.3080   18.4485 C   0  0  0  0  0  0  0  0  0  0  0  0
    9.4578   -5.0200   16.3036 N   0  0  0  0  0  0  0  0  0  0  0  0
    5.0287   -8.9365   16.8223 C   0  0  0  0  0  0  0  0  0  0  0  0
    8.7742   -6.1498   16.6764 C   0  0  0  0  0  0  0  0  0  0  0  0
   10.9418   -3.4032   21.2053 O   0  0  0  0  0  0  0  0  0  0  0  0
    1.4797   -8.6258   16.2950 C   0  0  0  0  0  0  0  0  0  0  0  0
    9.2861   -1.2743   25.3585 C   0  0  0  0  0  0  0  0  0  0  0  0
    1.8892  -10.3985   17.7511 N   0  0  0  0  0  0  0  0  0  0  0  0
    9.6210   -0.6952   24.0976 C   0  0  0  0  0  0  0  0  0  0  0  0
    7.0792   -9.0217   17.1429 C   0  0  0  0  0  0  0  0  0  0  0  0
    3.1713  -10.1816   17.6634 C   0  0  0  0  0  0  0  0  0  0  0  0
    2.7878   -8.3822   16.2137 C   0  0  0  0  0  0  0  0  0  0  0  0
    9.4601   -2.6590   25.6528 C   0  0  0  0  0  0  0  0  0  0  0  0
   10.1182   -1.5672   23.1165 C   0  0  0  0  0  0  0  0  0  0  0  0
    1.0552   -9.6360   17.0650 C   0  0  0  0  0  0  0  0  0  0  0  0
    3.6519   -9.1783   16.9039 C   0  0  0  0  0  0  0  0  0  0  0  0
    7.8675   -7.0096   15.9415 C   0  0  0  0  0  0  0  0  0  0  0  0
    5.9733   -9.6553   17.3832 N   0  0  0  0  0  0  0  0  0  0  0  0
   10.2411   -2.9363   23.4301 C   0  0  0  0  0  0  0  0  0  0  0  0
   10.7288   -3.8197   19.9525 C   0  0  0  0  0  0  0  0  0  0  0  0
   10.1189   -5.0054   19.6987 C   0  0  0  0  0  0  0  0  0  0  0  0
  1  3  4  0
  1  7  4  0
  2 21  4  0
  2 27  4  0
  3  9  4  0
  3 10  4  0
  4  8  4  0
  4 18  4  0
  4 25  1  0
  5  9  4  0
  5 12  4  0
  6 13  1  0
  6 27  1  0
  7 28  4  0
  8 11  4  0
  9 29  4  0
 10 12  4  0
 11 24  1  0
 11 26  4  0
 12 25  1  0
 13 28  1  0
 14 20  4  0
 14 23  4  0
 15 17  4  0
 15 21  4  0
 16 19  4  0
 16 23  4  0
 17 22  4  0
 18 26  4  0
 19 24  4  0
 20 24  4  0
 22 27  4  0
 28 29  4  0
M  END
$$$$

 Created by Python create_sdf_string function

 29 33  0  0  0  0  0  0  0  0999 V2000
   10.7215   -3.3326   17.6437 C   0  0  0  0  0  0  0  0  0  0  0  0
    9.9489   -3.4675   24.6487 N   0  0  0  0  0  0  0  0  0  0  0  0
   10.0172   -4.4740   17.4101 C   0  0  0  0  0  0  0  0  0  0  0  0
    6.9051   -7.9575   16.4222 C   0  0  0  0  0  0  0  0  0  0  0  0
    8.9969   -6.3552   17.9668 N   0  0  0  0  0  0  0  0  0  0  0  0
   10.6702   -3.9051   22.4070 C   0  0  0  0  0  0  0  0  0  0  0  0
   11.0625   -3.0028   18.8894 C   0  0  0  0  0  0  0  0  0  0  0  0
    5.6180   -7.9194   16.1754 O   0  0  0  0  0  0  0  0  0  0  0  0
    9.7259   -5.3080   18.4485 C   0  0  0  0  0  0  0  0  0  0  0  0
    9.4578   -5.0200   16.3036 N   0  0  0  0  0  0  0  0  0  0  0  0
    5.0287   -8.9365   16.8223 C   0  0  0  0  0  0  0  0  0  0  0  0
    8.7742   -6.1498   16.6764 C   0  0  0  0  0  0  0  0  0  0  0  0
   10.9418   -3.4032   21.2053 O   0  0  0  0  0  0  0  0  0  0  0  0
    1.4797   -8.6258   16.2950 C   0  0  0  0  0  0  0  0  0  0  0  0
    9.2861   -1.2743   25.3585 C   0  0  0  0  0  0  0  0  0  0  0  0
    1.8892  -10.3985   17.7511 N   0  0  0  0  0  0  0  0  0  0  0  0
    9.6210   -0.6952   24.0976 C   0  0  0  0  0  0  0  0  0  0  0  0
    7.0792   -9.0217   17.1429 C   0  0  0  0  0  0  0  0  0  0  0  0
    3.1713  -10.1816   17.6634 C   0  0  0  0  0  0  0  0  0  0  0  0
    2.7878   -8.3822   16.2137 C   0  0  0  0  0  0  0  0  0  0  0  0
    9.4601   -2.6590   25.6528 C   0  0  0  0  0  0  0  0  0  0  0  0
   10.1182   -1.5672   23.1165 C   0  0  0  0  0  0  0  0  0  0  0  0
    1.0552   -9.6360   17.0650 C   0  0  0  0  0  0  0  0  0  0  0  0
    3.6519   -9.1783   16.9039 C   0  0  0  0  0  0  0  0  0  0  0  0
    7.8675   -7.0096   15.9415 C   0  0  0  0  0  0  0  0  0  0  0  0
    5.9733   -9.6553   17.3832 N   0  0  0  0  0  0  0  0  0  0  0  0
   10.2411   -2.9363   23.4301 C   0  0  0  0  0  0  0  0  0  0  0  0
   10.7288   -3.8197   19.9525 C   0  0  0  0  0  0  0  0  0  0  0  0
   10.1189   -5.0054   19.6987 C   0  0  0  0  0  0  0  0  0  0  0  0
  1  3  4  0
  1  7  4  0
  2 21  4  0
  2 27  4  0
  3  9  4  0
  3 10  4  0
  4  8  4  0
  4 18  4  0
  4 25  1  0
  5  9  4  0
  5 12  4  0
  6 13  1  0
  6 27  1  0
  7 28  4  0
  8 11  4  0
  9 29  4  0
 10 12  4  0
 11 24  1  0
 11 26  4  0
 12 25  1  0
 13 28  1  0
 14 20  4  0
 14 23  4  0
 15 17  4  0
 15 21  4  0
 16 19  4  0
 16 23  4  0
 17 22  4  0
 18 26  4  0
 19 24  4  0
 20 24  4  0
 22 27  4  0
 28 29  4  0
M  END
$$$$

 Created by Python create_sdf_string function

 29 33  0  0  0  0  0  0  0  0999 V2000
   10.7215   -3.3326   17.6437 C   0  0  0  0  0  0  0  0  0  0  0  0
    9.9489   -3.4675   24.6487 N   0  0  0  0  0  0  0  0  0  0  0  0
   10.0172   -4.4740   17.4101 C   0  0  0  0  0  0  0  0  0  0  0  0
    6.9051   -7.9575   16.4222 C   0  0  0  0  0  0  0  0  0  0  0  0
    8.9969   -6.3552   17.9668 N   0  0  0  0  0  0  0  0  0  0  0  0
   10.6702   -3.9051   22.4070 C   0  0  0  0  0  0  0  0  0  0  0  0
   11.0625   -3.0028   18.8894 C   0  0  0  0  0  0  0  0  0  0  0  0
    5.6180   -7.9194   16.1754 O   0  0  0  0  0  0  0  0  0  0  0  0
    9.7259   -5.3080   18.4485 C   0  0  0  0  0  0  0  0  0  0  0  0
    9.4578   -5.0200   16.3036 N   0  0  0  0  0  0  0  0  0  0  0  0
    5.0287   -8.9365   16.8223 C   0  0  0  0  0  0  0  0  0  0  0  0
    8.7742   -6.1498   16.6764 C   0  0  0  0  0  0  0  0  0  0  0  0
   10.9418   -3.4032   21.2053 O   0  0  0  0  0  0  0  0  0  0  0  0
    1.4797   -8.6258   16.2950 C   0  0  0  0  0  0  0  0  0  0  0  0
    9.2861   -1.2743   25.3585 C   0  0  0  0  0  0  0  0  0  0  0  0
    1.8892  -10.3985   17.7511 N   0  0  0  0  0  0  0  0  0  0  0  0
    9.6210   -0.6952   24.0976 C   0  0  0  0  0  0  0  0  0  0  0  0
    7.0792   -9.0217   17.1429 C   0  0  0  0  0  0  0  0  0  0  0  0
    3.1713  -10.1816   17.6634 C   0  0  0  0  0  0  0  0  0  0  0  0
    2.7878   -8.3822   16.2137 C   0  0  0  0  0  0  0  0  0  0  0  0
    9.4601   -2.6590   25.6528 C   0  0  0  0  0  0  0  0  0  0  0  0
   10.1182   -1.5672   23.1165 C   0  0  0  0  0  0  0  0  0  0  0  0
    1.0552   -9.6360   17.0650 C   0  0  0  0  0  0  0  0  0  0  0  0
    3.6519   -9.1783   16.9039 C   0  0  0  0  0  0  0  0  0  0  0  0
    7.8675   -7.0096   15.9415 C   0  0  0  0  0  0  0  0  0  0  0  0
    5.9733   -9.6553   17.3832 N   0  0  0  0  0  0  0  0  0  0  0  0
   10.2411   -2.9363   23.4301 C   0  0  0  0  0  0  0  0  0  0  0  0
   10.7288   -3.8197   19.9525 C   0  0  0  0  0  0  0  0  0  0  0  0
   10.1189   -5.0054   19.6987 C   0  0  0  0  0  0  0  0  0  0  0  0
  1  3  4  0
  1  7  4  0
  2 21  4  0
  2 27  4  0
  3  9  4  0
  3 10  4  0
  4  8  4  0
  4 18  4  0
  4 25  1  0
  5  9  4  0
  5 12  4  0
  6 13  1  0
  6 27  1  0
  7 28  4  0
  8 11  4  0
  9 29  4  0
 10 12  4  0
 11 24  1  0
 11 26  4  0
 12 25  1  0
 13 28  1  0
 14 20  4  0
 14 23  4  0
 15 17  4  0
 15 21  4  0
 16 19  4  0
 16 23  4  0
 17 22  4  0
 18 26  4  0
 19 24  4  0
 20 24  4  0
 22 27  4  0
 28 29  4  0
M  END
$$$$

 Created by Python create_sdf_string function

 29 33  0  0  0  0  0  0  0  0999 V2000
   10.7215   -3.3326   17.6437 C   0  0  0  0  0  0  0  0  0  0  0  0
    9.9489   -3.4675   24.6487 N   0  0  0  0  0  0  0  0  0  0  0  0
   10.0172   -4.4740   17.4101 C   0  0  0  0  0  0  0  0  0  0  0  0
    6.9051   -7.9575   16.4222 C   0  0  0  0  0  0  0  0  0  0  0  0
    8.9969   -6.3552   17.9668 N   0  0  0  0  0  0  0  0  0  0  0  0
   10.6702   -3.9051   22.4070 C   0  0  0  0  0  0  0  0  0  0  0  0
   11.0625   -3.0028   18.8894 C   0  0  0  0  0  0  0  0  0  0  0  0
    5.6180   -7.9194   16.1754 O   0  0  0  0  0  0  0  0  0  0  0  0
    9.7259   -5.3080   18.4485 C   0  0  0  0  0  0  0  0  0  0  0  0
    9.4578   -5.0200   16.3036 N   0  0  0  0  0  0  0  0  0  0  0  0
    5.0287   -8.9365   16.8223 C   0  0  0  0  0  0  0  0  0  0  0  0
    8.7742   -6.1498   16.6764 C   0  0  0  0  0  0  0  0  0  0  0  0
   10.9418   -3.4032   21.2053 O   0  0  0  0  0  0  0  0  0  0  0  0
    1.4797   -8.6258   16.2950 C   0  0  0  0  0  0  0  0  0  0  0  0
    9.2861   -1.2743   25.3585 C   0  0  0  0  0  0  0  0  0  0  0  0
    1.8892  -10.3985   17.7511 N   0  0  0  0  0  0  0  0  0  0  0  0
    9.6210   -0.6952   24.0976 C   0  0  0  0  0  0  0  0  0  0  0  0
    7.0792   -9.0217   17.1429 C   0  0  0  0  0  0  0  0  0  0  0  0
    3.1713  -10.1816   17.6634 C   0  0  0  0  0  0  0  0  0  0  0  0
    2.7878   -8.3822   16.2137 C   0  0  0  0  0  0  0  0  0  0  0  0
    9.4601   -2.6590   25.6528 C   0  0  0  0  0  0  0  0  0  0  0  0
   10.1182   -1.5672   23.1165 C   0  0  0  0  0  0  0  0  0  0  0  0
    1.0552   -9.6360   17.0650 C   0  0  0  0  0  0  0  0  0  0  0  0
    3.6519   -9.1783   16.9039 C   0  0  0  0  0  0  0  0  0  0  0  0
    7.8675   -7.0096   15.9415 C   0  0  0  0  0  0  0  0  0  0  0  0
    5.9733   -9.6553   17.3832 N   0  0  0  0  0  0  0  0  0  0  0  0
   10.2411   -2.9363   23.4301 C   0  0  0  0  0  0  0  0  0  0  0  0
   10.7288   -3.8197   19.9525 C   0  0  0  0  0  0  0  0  0  0  0  0
   10.1189   -5.0054   19.6987 C   0  0  0  0  0  0  0  0  0  0  0  0
  1  3  4  0
  1  7  4  0
  2 21  4  0
  2 27  4  0
  3  9  4  0
  3 10  4  0
  4  8  4  0
  4 18  4  0
  4 25  1  0
  5  9  4  0
  5 12  4  0
  6 13  1  0
  6 27  1  0
  7 28  4  0
  8 11  4  0
  9 29  4  0
 10 12  4  0
 11 24  1  0
 11 26  4  0
 12 25  1  0
 13 28  1  0
 14 20  4  0
 14 23  4  0
 15 17  4  0
 15 21  4  0
 16 19  4  0
 16 23  4  0
 17 22  4  0
 18 26  4  0
 19 24  4  0
 20 24  4  0
 22 27  4  0
 28 29  4  0
M  END
$$$$

 Created by Python create_sdf_string function

 29 33  0  0  0  0  0  0  0  0999 V2000
   10.7215   -3.3326   17.6437 C   0  0  0  0  0  0  0  0  0  0  0  0
    9.9489   -3.4675   24.6487 N   0  0  0  0  0  0  0  0  0  0  0  0
   10.0172   -4.4740   17.4101 C   0  0  0  0  0  0  0  0  0  0  0  0
    6.9051   -7.9575   16.4222 C   0  0  0  0  0  0  0  0  0  0  0  0
    8.9969   -6.3552   17.9668 N   0  0  0  0  0  0  0  0  0  0  0  0
   10.6702   -3.9051   22.4070 C   0  0  0  0  0  0  0  0  0  0  0  0
   11.0625   -3.0028   18.8894 C   0  0  0  0  0  0  0  0  0  0  0  0
    5.6180   -7.9194   16.1754 O   0  0  0  0  0  0  0  0  0  0  0  0
    9.7259   -5.3080   18.4485 C   0  0  0  0  0  0  0  0  0  0  0  0
    9.4578   -5.0200   16.3036 N   0  0  0  0  0  0  0  0  0  0  0  0
    5.0287   -8.9365   16.8223 C   0  0  0  0  0  0  0  0  0  0  0  0
    8.7742   -6.1498   16.6764 C   0  0  0  0  0  0  0  0  0  0  0  0
   10.9418   -3.4032   21.2053 O   0  0  0  0  0  0  0  0  0  0  0  0
    1.4797   -8.6258   16.2950 C   0  0  0  0  0  0  0  0  0  0  0  0
    9.2861   -1.2743   25.3585 C   0  0  0  0  0  0  0  0  0  0  0  0
    1.8892  -10.3985   17.7511 N   0  0  0  0  0  0  0  0  0  0  0  0
    9.6210   -0.6952   24.0976 C   0  0  0  0  0  0  0  0  0  0  0  0
    7.0792   -9.0217   17.1429 C   0  0  0  0  0  0  0  0  0  0  0  0
    3.1713  -10.1816   17.6634 C   0  0  0  0  0  0  0  0  0  0  0  0
    2.7878   -8.3822   16.2137 C   0  0  0  0  0  0  0  0  0  0  0  0
    9.4601   -2.6590   25.6528 C   0  0  0  0  0  0  0  0  0  0  0  0
   10.1182   -1.5672   23.1165 C   0  0  0  0  0  0  0  0  0  0  0  0
    1.0552   -9.6360   17.0650 C   0  0  0  0  0  0  0  0  0  0  0  0
    3.6519   -9.1783   16.9039 C   0  0  0  0  0  0  0  0  0  0  0  0
    7.8675   -7.0096   15.9415 C   0  0  0  0  0  0  0  0  0  0  0  0
    5.9733   -9.6553   17.3832 N   0  0  0  0  0  0  0  0  0  0  0  0
   10.2411   -2.9363   23.4301 C   0  0  0  0  0  0  0  0  0  0  0  0
   10.7288   -3.8197   19.9525 C   0  0  0  0  0  0  0  0  0  0  0  0
   10.1189   -5.0054   19.6987 C   0  0  0  0  0  0  0  0  0  0  0  0
  1  3  4  0
  1  7  4  0
  2 21  4  0
  2 27  4  0
  3  9  4  0
  3 10  4  0
  4  8  4  0
  4 18  4  0
  4 25  1  0
  5  9  4  0
  5 12  4  0
  6 13  1  0
  6 27  1  0
  7 28  4  0
  8 11  4  0
  9 29  4  0
 10 12  4  0
 11 24  1  0
 11 26  4  0
 12 25  1  0
 13 28  1  0
 14 20  4  0
 14 23  4  0
 15 17  4  0
 15 21  4  0
 16 19  4  0
 16 23  4  0
 17 22  4  0
 18 26  4  0
 19 24  4  0
 20 24  4  0
 22 27  4  0
 28 29  4  0
M  END
$$$$

 Created by Python create_sdf_string function

 29 33  0  0  0  0  0  0  0  0999 V2000
   10.7215   -3.3326   17.6437 C   0  0  0  0  0  0  0  0  0  0  0  0
    9.9489   -3.4675   24.6487 N   0  0  0  0  0  0  0  0  0  0  0  0
   10.0172   -4.4740   17.4101 C   0  0  0  0  0  0  0  0  0  0  0  0
    6.9051   -7.9575   16.4222 C   0  0  0  0  0  0  0  0  0  0  0  0
    8.9969   -6.3552   17.9668 N   0  0  0  0  0  0  0  0  0  0  0  0
   10.6702   -3.9051   22.4070 C   0  0  0  0  0  0  0  0  0  0  0  0
   11.0625   -3.0028   18.8894 C   0  0  0  0  0  0  0  0  0  0  0  0
    5.6180   -7.9194   16.1754 O   0  0  0  0  0  0  0  0  0  0  0  0
    9.7259   -5.3080   18.4485 C   0  0  0  0  0  0  0  0  0  0  0  0
    9.4578   -5.0200   16.3036 N   0  0  0  0  0  0  0  0  0  0  0  0
    5.0287   -8.9365   16.8223 C   0  0  0  0  0  0  0  0  0  0  0  0
    8.7742   -6.1498   16.6764 C   0  0  0  0  0  0  0  0  0  0  0  0
   10.9418   -3.4032   21.2053 O   0  0  0  0  0  0  0  0  0  0  0  0
    1.4797   -8.6258   16.2950 C   0  0  0  0  0  0  0  0  0  0  0  0
    9.2861   -1.2743   25.3585 C   0  0  0  0  0  0  0  0  0  0  0  0
    1.8892  -10.3985   17.7511 N   0  0  0  0  0  0  0  0  0  0  0  0
    9.6210   -0.6952   24.0976 C   0  0  0  0  0  0  0  0  0  0  0  0
    7.0792   -9.0217   17.1429 C   0  0  0  0  0  0  0  0  0  0  0  0
    3.1713  -10.1816   17.6634 C   0  0  0  0  0  0  0  0  0  0  0  0
    2.7878   -8.3822   16.2137 C   0  0  0  0  0  0  0  0  0  0  0  0
    9.4601   -2.6590   25.6528 C   0  0  0  0  0  0  0  0  0  0  0  0
   10.1182   -1.5672   23.1165 C   0  0  0  0  0  0  0  0  0  0  0  0
    1.0552   -9.6360   17.0650 C   0  0  0  0  0  0  0  0  0  0  0  0
    3.6519   -9.1783   16.9039 C   0  0  0  0  0  0  0  0  0  0  0  0
    7.8675   -7.0096   15.9415 C   0  0  0  0  0  0  0  0  0  0  0  0
    5.9733   -9.6553   17.3832 N   0  0  0  0  0  0  0  0  0  0  0  0
   10.2411   -2.9363   23.4301 C   0  0  0  0  0  0  0  0  0  0  0  0
   10.7288   -3.8197   19.9525 C   0  0  0  0  0  0  0  0  0  0  0  0
   10.1189   -5.0054   19.6987 C   0  0  0  0  0  0  0  0  0  0  0  0
  1  3  4  0
  1  7  4  0
  2 21  4  0
  2 27  4  0
  3  9  4  0
  3 10  4  0
  4  8  4  0
  4 18  4  0
  4 25  1  0
  5  9  4  0
  5 12  4  0
  6 13  1  0
  6 27  1  0
  7 28  4  0
  8 11  4  0
  9 29  4  0
 10 12  4  0
 11 24  1  0
 11 26  4  0
 12 25  1  0
 13 28  1  0
 14 20  4  0
 14 23  4  0
 15 17  4  0
 15 21  4  0
 16 19  4  0
 16 23  4  0
 17 22  4  0
 18 26  4  0
 19 24  4  0
 20 24  4  0
 22 27  4  0
 28 29  4  0
M  END
$$$$

 Created by Python create_sdf_string function

 29 33  0  0  0  0  0  0  0  0999 V2000
   10.7215   -3.3326   17.6437 C   0  0  0  0  0  0  0  0  0  0  0  0
    9.9489   -3.4675   24.6487 N   0  0  0  0  0  0  0  0  0  0  0  0
   10.0172   -4.4740   17.4101 C   0  0  0  0  0  0  0  0  0  0  0  0
    6.9051   -7.9575   16.4222 C   0  0  0  0  0  0  0  0  0  0  0  0
    8.9969   -6.3552   17.9668 N   0  0  0  0  0  0  0  0  0  0  0  0
   10.6702   -3.9051   22.4070 C   0  0  0  0  0  0  0  0  0  0  0  0
   11.0625   -3.0028   18.8894 C   0  0  0  0  0  0  0  0  0  0  0  0
    5.6180   -7.9194   16.1754 O   0  0  0  0  0  0  0  0  0  0  0  0
    9.7259   -5.3080   18.4485 C   0  0  0  0  0  0  0  0  0  0  0  0
    9.4578   -5.0200   16.3036 N   0  0  0  0  0  0  0  0  0  0  0  0
    5.0287   -8.9365   16.8223 C   0  0  0  0  0  0  0  0  0  0  0  0
    8.7742   -6.1498   16.6764 C   0  0  0  0  0  0  0  0  0  0  0  0
   10.9418   -3.4032   21.2053 O   0  0  0  0  0  0  0  0  0  0  0  0
    1.4797   -8.6258   16.2950 C   0  0  0  0  0  0  0  0  0  0  0  0
    9.2861   -1.2743   25.3585 C   0  0  0  0  0  0  0  0  0  0  0  0
    1.8892  -10.3985   17.7511 N   0  0  0  0  0  0  0  0  0  0  0  0
    9.6210   -0.6952   24.0976 C   0  0  0  0  0  0  0  0  0  0  0  0
    7.0792   -9.0217   17.1429 C   0  0  0  0  0  0  0  0  0  0  0  0
    3.1713  -10.1816   17.6634 C   0  0  0  0  0  0  0  0  0  0  0  0
    2.7878   -8.3822   16.2137 C   0  0  0  0  0  0  0  0  0  0  0  0
    9.4601   -2.6590   25.6528 C   0  0  0  0  0  0  0  0  0  0  0  0
   10.1182   -1.5672   23.1165 C   0  0  0  0  0  0  0  0  0  0  0  0
    1.0552   -9.6360   17.0650 C   0  0  0  0  0  0  0  0  0  0  0  0
    3.6519   -9.1783   16.9039 C   0  0  0  0  0  0  0  0  0  0  0  0
    7.8675   -7.0096   15.9415 C   0  0  0  0  0  0  0  0  0  0  0  0
    5.9733   -9.6553   17.3832 N   0  0  0  0  0  0  0  0  0  0  0  0
   10.2411   -2.9363   23.4301 C   0  0  0  0  0  0  0  0  0  0  0  0
   10.7288   -3.8197   19.9525 C   0  0  0  0  0  0  0  0  0  0  0  0
   10.1189   -5.0054   19.6987 C   0  0  0  0  0  0  0  0  0  0  0  0
  1  3  4  0
  1  7  4  0
  2 21  4  0
  2 27  4  0
  3  9  4  0
  3 10  4  0
  4  8  4  0
  4 18  4  0
  4 25  1  0
  5  9  4  0
  5 12  4  0
  6 13  1  0
  6 27  1  0
  7 28  4  0
  8 11  4  0
  9 29  4  0
 10 12  4  0
 11 24  1  0
 11 26  4  0
 12 25  1  0
 13 28  1  0
 14 20  4  0
 14 23  4  0
 15 17  4  0
 15 21  4  0
 16 19  4  0
 16 23  4  0
 17 22  4  0
 18 26  4  0
 19 24  4  0
 20 24  4  0
 22 27  4  0
 28 29  4  0
M  END
$$$$

 Created by Python create_sdf_string function

 29 33  0  0  0  0  0  0  0  0999 V2000
   10.7215   -3.3326   17.6437 C   0  0  0  0  0  0  0  0  0  0  0  0
    9.9489   -3.4675   24.6487 N   0  0  0  0  0  0  0  0  0  0  0  0
   10.0172   -4.4740   17.4101 C   0  0  0  0  0  0  0  0  0  0  0  0
    6.9051   -7.9575   16.4222 C   0  0  0  0  0  0  0  0  0  0  0  0
    8.9969   -6.3552   17.9668 N   0  0  0  0  0  0  0  0  0  0  0  0
   10.6702   -3.9051   22.4070 C   0  0  0  0  0  0  0  0  0  0  0  0
   11.0625   -3.0028   18.8894 C   0  0  0  0  0  0  0  0  0  0  0  0
    5.6180   -7.9194   16.1754 O   0  0  0  0  0  0  0  0  0  0  0  0
    9.7259   -5.3080   18.4485 C   0  0  0  0  0  0  0  0  0  0  0  0
    9.4578   -5.0200   16.3036 N   0  0  0  0  0  0  0  0  0  0  0  0
    5.0287   -8.9365   16.8223 C   0  0  0  0  0  0  0  0  0  0  0  0
    8.7742   -6.1498   16.6764 C   0  0  0  0  0  0  0  0  0  0  0  0
   10.9418   -3.4032   21.2053 O   0  0  0  0  0  0  0  0  0  0  0  0
    1.4797   -8.6258   16.2950 C   0  0  0  0  0  0  0  0  0  0  0  0
    9.2861   -1.2743   25.3585 C   0  0  0  0  0  0  0  0  0  0  0  0
    1.8892  -10.3985   17.7511 N   0  0  0  0  0  0  0  0  0  0  0  0
    9.6210   -0.6952   24.0976 C   0  0  0  0  0  0  0  0  0  0  0  0
    7.0792   -9.0217   17.1429 C   0  0  0  0  0  0  0  0  0  0  0  0
    3.1713  -10.1816   17.6634 C   0  0  0  0  0  0  0  0  0  0  0  0
    2.7878   -8.3822   16.2137 C   0  0  0  0  0  0  0  0  0  0  0  0
    9.4601   -2.6590   25.6528 C   0  0  0  0  0  0  0  0  0  0  0  0
   10.1182   -1.5672   23.1165 C   0  0  0  0  0  0  0  0  0  0  0  0
    1.0552   -9.6360   17.0650 C   0  0  0  0  0  0  0  0  0  0  0  0
    3.6519   -9.1783   16.9039 C   0  0  0  0  0  0  0  0  0  0  0  0
    7.8675   -7.0096   15.9415 C   0  0  0  0  0  0  0  0  0  0  0  0
    5.9733   -9.6553   17.3832 N   0  0  0  0  0  0  0  0  0  0  0  0
   10.2411   -2.9363   23.4301 C   0  0  0  0  0  0  0  0  0  0  0  0
   10.7288   -3.8197   19.9525 C   0  0  0  0  0  0  0  0  0  0  0  0
   10.1189   -5.0054   19.6987 C   0  0  0  0  0  0  0  0  0  0  0  0
  1  3  4  0
  1  7  4  0
  2 21  4  0
  2 27  4  0
  3  9  4  0
  3 10  4  0
  4  8  4  0
  4 18  4  0
  4 25  1  0
  5  9  4  0
  5 12  4  0
  6 13  1  0
  6 27  1  0
  7 28  4  0
  8 11  4  0
  9 29  4  0
 10 12  4  0
 11 24  1  0
 11 26  4  0
 12 25  1  0
 13 28  1  0
 14 20  4  0
 14 23  4  0
 15 17  4  0
 15 21  4  0
 16 19  4  0
 16 23  4  0
 17 22  4  0
 18 26  4  0
 19 24  4  0
 20 24  4  0
 22 27  4  0
 28 29  4  0
M  END
$$$$

 Created by Python create_sdf_string function

 29 33  0  0  0  0  0  0  0  0999 V2000
   10.7215   -3.3326   17.6437 C   0  0  0  0  0  0  0  0  0  0  0  0
    9.9489   -3.4675   24.6487 N   0  0  0  0  0  0  0  0  0  0  0  0
   10.0172   -4.4740   17.4101 C   0  0  0  0  0  0  0  0  0  0  0  0
    6.9051   -7.9575   16.4222 C   0  0  0  0  0  0  0  0  0  0  0  0
    8.9969   -6.3552   17.9668 N   0  0  0  0  0  0  0  0  0  0  0  0
   10.6702   -3.9051   22.4070 C   0  0  0  0  0  0  0  0  0  0  0  0
   11.0625   -3.0028   18.8894 C   0  0  0  0  0  0  0  0  0  0  0  0
    5.6180   -7.9194   16.1754 O   0  0  0  0  0  0  0  0  0  0  0  0
    9.7259   -5.3080   18.4485 C   0  0  0  0  0  0  0  0  0  0  0  0
    9.4578   -5.0200   16.3036 N   0  0  0  0  0  0  0  0  0  0  0  0
    5.0287   -8.9365   16.8223 C   0  0  0  0  0  0  0  0  0  0  0  0
    8.7742   -6.1498   16.6764 C   0  0  0  0  0  0  0  0  0  0  0  0
   10.9418   -3.4032   21.2053 O   0  0  0  0  0  0  0  0  0  0  0  0
    1.4797   -8.6258   16.2950 C   0  0  0  0  0  0  0  0  0  0  0  0
    9.2861   -1.2743   25.3585 C   0  0  0  0  0  0  0  0  0  0  0  0
    1.8892  -10.3985   17.7511 N   0  0  0  0  0  0  0  0  0  0  0  0
    9.6210   -0.6952   24.0976 C   0  0  0  0  0  0  0  0  0  0  0  0
    7.0792   -9.0217   17.1429 C   0  0  0  0  0  0  0  0  0  0  0  0
    3.1713  -10.1816   17.6634 C   0  0  0  0  0  0  0  0  0  0  0  0
    2.7878   -8.3822   16.2137 C   0  0  0  0  0  0  0  0  0  0  0  0
    9.4601   -2.6590   25.6528 C   0  0  0  0  0  0  0  0  0  0  0  0
   10.1182   -1.5672   23.1165 C   0  0  0  0  0  0  0  0  0  0  0  0
    1.0552   -9.6360   17.0650 C   0  0  0  0  0  0  0  0  0  0  0  0
    3.6519   -9.1783   16.9039 C   0  0  0  0  0  0  0  0  0  0  0  0
    7.8675   -7.0096   15.9415 C   0  0  0  0  0  0  0  0  0  0  0  0
    5.9733   -9.6553   17.3832 N   0  0  0  0  0  0  0  0  0  0  0  0
   10.2411   -2.9363   23.4301 C   0  0  0  0  0  0  0  0  0  0  0  0
   10.7288   -3.8197   19.9525 C   0  0  0  0  0  0  0  0  0  0  0  0
   10.1189   -5.0054   19.6987 C   0  0  0  0  0  0  0  0  0  0  0  0
  1  3  4  0
  1  7  4  0
  2 21  4  0
  2 27  4  0
  3  9  4  0
  3 10  4  0
  4  8  4  0
  4 18  4  0
  4 25  1  0
  5  9  4  0
  5 12  4  0
  6 13  1  0
  6 27  1  0
  7 28  4  0
  8 11  4  0
  9 29  4  0
 10 12  4  0
 11 24  1  0
 11 26  4  0
 12 25  1  0
 13 28  1  0
 14 20  4  0
 14 23  4  0
 15 17  4  0
 15 21  4  0
 16 19  4  0
 16 23  4  0
 17 22  4  0
 18 26  4  0
 19 24  4  0
 20 24  4  0
 22 27  4  0
 28 29  4  0
M  END
$$$$

 Created by Python create_sdf_string function

 29 33  0  0  0  0  0  0  0  0999 V2000
   10.7215   -3.3326   17.6437 C   0  0  0  0  0  0  0  0  0  0  0  0
    9.9489   -3.4675   24.6487 N   0  0  0  0  0  0  0  0  0  0  0  0
   10.0172   -4.4740   17.4101 C   0  0  0  0  0  0  0  0  0  0  0  0
    6.9051   -7.9575   16.4222 C   0  0  0  0  0  0  0  0  0  0  0  0
    8.9969   -6.3552   17.9668 N   0  0  0  0  0  0  0  0  0  0  0  0
   10.6702   -3.9051   22.4070 C   0  0  0  0  0  0  0  0  0  0  0  0
   11.0625   -3.0028   18.8894 C   0  0  0  0  0  0  0  0  0  0  0  0
    5.6180   -7.9194   16.1754 O   0  0  0  0  0  0  0  0  0  0  0  0
    9.7259   -5.3080   18.4485 C   0  0  0  0  0  0  0  0  0  0  0  0
    9.4578   -5.0200   16.3036 N   0  0  0  0  0  0  0  0  0  0  0  0
    5.0287   -8.9365   16.8223 C   0  0  0  0  0  0  0  0  0  0  0  0
    8.7742   -6.1498   16.6764 C   0  0  0  0  0  0  0  0  0  0  0  0
   10.9418   -3.4032   21.2053 O   0  0  0  0  0  0  0  0  0  0  0  0
    1.4797   -8.6258   16.2950 C   0  0  0  0  0  0  0  0  0  0  0  0
    9.2861   -1.2743   25.3585 C   0  0  0  0  0  0  0  0  0  0  0  0
    1.8892  -10.3985   17.7511 N   0  0  0  0  0  0  0  0  0  0  0  0
    9.6210   -0.6952   24.0976 C   0  0  0  0  0  0  0  0  0  0  0  0
    7.0792   -9.0217   17.1429 C   0  0  0  0  0  0  0  0  0  0  0  0
    3.1713  -10.1816   17.6634 C   0  0  0  0  0  0  0  0  0  0  0  0
    2.7878   -8.3822   16.2137 C   0  0  0  0  0  0  0  0  0  0  0  0
    9.4601   -2.6590   25.6528 C   0  0  0  0  0  0  0  0  0  0  0  0
   10.1182   -1.5672   23.1165 C   0  0  0  0  0  0  0  0  0  0  0  0
    1.0552   -9.6360   17.0650 C   0  0  0  0  0  0  0  0  0  0  0  0
    3.6519   -9.1783   16.9039 C   0  0  0  0  0  0  0  0  0  0  0  0
    7.8675   -7.0096   15.9415 C   0  0  0  0  0  0  0  0  0  0  0  0
    5.9733   -9.6553   17.3832 N   0  0  0  0  0  0  0  0  0  0  0  0
   10.2411   -2.9363   23.4301 C   0  0  0  0  0  0  0  0  0  0  0  0
   10.7288   -3.8197   19.9525 C   0  0  0  0  0  0  0  0  0  0  0  0
   10.1189   -5.0054   19.6987 C   0  0  0  0  0  0  0  0  0  0  0  0
  1  3  4  0
  1  7  4  0
  2 21  4  0
  2 27  4  0
  3  9  4  0
  3 10  4  0
  4  8  4  0
  4 18  4  0
  4 25  1  0
  5  9  4  0
  5 12  4  0
  6 13  1  0
  6 27  1  0
  7 28  4  0
  8 11  4  0
  9 29  4  0
 10 12  4  0
 11 24  1  0
 11 26  4  0
 12 25  1  0
 13 28  1  0
 14 20  4  0
 14 23  4  0
 15 17  4  0
 15 21  4  0
 16 19  4  0
 16 23  4  0
 17 22  4  0
 18 26  4  0
 19 24  4  0
 20 24  4  0
 22 27  4  0
 28 29  4  0
M  END
$$$$

 Created by Python create_sdf_string function

 29 33  0  0  0  0  0  0  0  0999 V2000
   10.7215   -3.3326   17.6437 C   0  0  0  0  0  0  0  0  0  0  0  0
    9.9489   -3.4675   24.6487 N   0  0  0  0  0  0  0  0  0  0  0  0
   10.0172   -4.4740   17.4101 C   0  0  0  0  0  0  0  0  0  0  0  0
    6.9051   -7.9575   16.4222 C   0  0  0  0  0  0  0  0  0  0  0  0
    8.9969   -6.3552   17.9668 N   0  0  0  0  0  0  0  0  0  0  0  0
   10.6702   -3.9051   22.4070 C   0  0  0  0  0  0  0  0  0  0  0  0
   11.0625   -3.0028   18.8894 C   0  0  0  0  0  0  0  0  0  0  0  0
    5.6180   -7.9194   16.1754 O   0  0  0  0  0  0  0  0  0  0  0  0
    9.7259   -5.3080   18.4485 C   0  0  0  0  0  0  0  0  0  0  0  0
    9.4578   -5.0200   16.3036 N   0  0  0  0  0  0  0  0  0  0  0  0
    5.0287   -8.9365   16.8223 C   0  0  0  0  0  0  0  0  0  0  0  0
    8.7742   -6.1498   16.6764 C   0  0  0  0  0  0  0  0  0  0  0  0
   10.9418   -3.4032   21.2053 O   0  0  0  0  0  0  0  0  0  0  0  0
    1.4797   -8.6258   16.2950 C   0  0  0  0  0  0  0  0  0  0  0  0
    9.2861   -1.2743   25.3585 C   0  0  0  0  0  0  0  0  0  0  0  0
    1.8892  -10.3985   17.7511 N   0  0  0  0  0  0  0  0  0  0  0  0
    9.6210   -0.6952   24.0976 C   0  0  0  0  0  0  0  0  0  0  0  0
    7.0792   -9.0217   17.1429 C   0  0  0  0  0  0  0  0  0  0  0  0
    3.1713  -10.1816   17.6634 C   0  0  0  0  0  0  0  0  0  0  0  0
    2.7878   -8.3822   16.2137 C   0  0  0  0  0  0  0  0  0  0  0  0
    9.4601   -2.6590   25.6528 C   0  0  0  0  0  0  0  0  0  0  0  0
   10.1182   -1.5672   23.1165 C   0  0  0  0  0  0  0  0  0  0  0  0
    1.0552   -9.6360   17.0650 C   0  0  0  0  0  0  0  0  0  0  0  0
    3.6519   -9.1783   16.9039 C   0  0  0  0  0  0  0  0  0  0  0  0
    7.8675   -7.0096   15.9415 C   0  0  0  0  0  0  0  0  0  0  0  0
    5.9733   -9.6553   17.3832 N   0  0  0  0  0  0  0  0  0  0  0  0
   10.2411   -2.9363   23.4301 C   0  0  0  0  0  0  0  0  0  0  0  0
   10.7288   -3.8197   19.9525 C   0  0  0  0  0  0  0  0  0  0  0  0
   10.1189   -5.0054   19.6987 C   0  0  0  0  0  0  0  0  0  0  0  0
  1  3  4  0
  1  7  4  0
  2 21  4  0
  2 27  4  0
  3  9  4  0
  3 10  4  0
  4  8  4  0
  4 18  4  0
  4 25  1  0
  5  9  4  0
  5 12  4  0
  6 13  1  0
  6 27  1  0
  7 28  4  0
  8 11  4  0
  9 29  4  0
 10 12  4  0
 11 24  1  0
 11 26  4  0
 12 25  1  0
 13 28  1  0
 14 20  4  0
 14 23  4  0
 15 17  4  0
 15 21  4  0
 16 19  4  0
 16 23  4  0
 17 22  4  0
 18 26  4  0
 19 24  4  0
 20 24  4  0
 22 27  4  0
 28 29  4  0
M  END
$$$$

 Created by Python create_sdf_string function

 29 33  0  0  0  0  0  0  0  0999 V2000
   10.7215   -3.3326   17.6437 C   0  0  0  0  0  0  0  0  0  0  0  0
    9.9489   -3.4675   24.6487 N   0  0  0  0  0  0  0  0  0  0  0  0
   10.0172   -4.4740   17.4101 C   0  0  0  0  0  0  0  0  0  0  0  0
    6.9051   -7.9575   16.4222 C   0  0  0  0  0  0  0  0  0  0  0  0
    8.9969   -6.3552   17.9668 N   0  0  0  0  0  0  0  0  0  0  0  0
   10.6702   -3.9051   22.4070 C   0  0  0  0  0  0  0  0  0  0  0  0
   11.0625   -3.0028   18.8894 C   0  0  0  0  0  0  0  0  0  0  0  0
    5.6180   -7.9194   16.1754 O   0  0  0  0  0  0  0  0  0  0  0  0
    9.7259   -5.3080   18.4485 C   0  0  0  0  0  0  0  0  0  0  0  0
    9.4578   -5.0200   16.3036 N   0  0  0  0  0  0  0  0  0  0  0  0
    5.0287   -8.9365   16.8223 C   0  0  0  0  0  0  0  0  0  0  0  0
    8.7742   -6.1498   16.6764 C   0  0  0  0  0  0  0  0  0  0  0  0
   10.9418   -3.4032   21.2053 O   0  0  0  0  0  0  0  0  0  0  0  0
    1.4797   -8.6258   16.2950 C   0  0  0  0  0  0  0  0  0  0  0  0
    9.2861   -1.2743   25.3585 C   0  0  0  0  0  0  0  0  0  0  0  0
    1.8892  -10.3985   17.7511 N   0  0  0  0  0  0  0  0  0  0  0  0
    9.6210   -0.6952   24.0976 C   0  0  0  0  0  0  0  0  0  0  0  0
    7.0792   -9.0217   17.1429 C   0  0  0  0  0  0  0  0  0  0  0  0
    3.1713  -10.1816   17.6634 C   0  0  0  0  0  0  0  0  0  0  0  0
    2.7878   -8.3822   16.2137 C   0  0  0  0  0  0  0  0  0  0  0  0
    9.4601   -2.6590   25.6528 C   0  0  0  0  0  0  0  0  0  0  0  0
   10.1182   -1.5672   23.1165 C   0  0  0  0  0  0  0  0  0  0  0  0
    1.0552   -9.6360   17.0650 C   0  0  0  0  0  0  0  0  0  0  0  0
    3.6519   -9.1783   16.9039 C   0  0  0  0  0  0  0  0  0  0  0  0
    7.8675   -7.0096   15.9415 C   0  0  0  0  0  0  0  0  0  0  0  0
    5.9733   -9.6553   17.3832 N   0  0  0  0  0  0  0  0  0  0  0  0
   10.2411   -2.9363   23.4301 C   0  0  0  0  0  0  0  0  0  0  0  0
   10.7288   -3.8197   19.9525 C   0  0  0  0  0  0  0  0  0  0  0  0
   10.1189   -5.0054   19.6987 C   0  0  0  0  0  0  0  0  0  0  0  0
  1  3  4  0
  1  7  4  0
  2 21  4  0
  2 27  4  0
  3  9  4  0
  3 10  4  0
  4  8  4  0
  4 18  4  0
  4 25  1  0
  5  9  4  0
  5 12  4  0
  6 13  1  0
  6 27  1  0
  7 28  4  0
  8 11  4  0
  9 29  4  0
 10 12  4  0
 11 24  1  0
 11 26  4  0
 12 25  1  0
 13 28  1  0
 14 20  4  0
 14 23  4  0
 15 17  4  0
 15 21  4  0
 16 19  4  0
 16 23  4  0
 17 22  4  0
 18 26  4  0
 19 24  4  0
 20 24  4  0
 22 27  4  0
 28 29  4  0
M  END
$$$$

 Created by Python create_sdf_string function

 29 33  0  0  0  0  0  0  0  0999 V2000
   10.7215   -3.3326   17.6437 C   0  0  0  0  0  0  0  0  0  0  0  0
    9.9489   -3.4675   24.6487 N   0  0  0  0  0  0  0  0  0  0  0  0
   10.0172   -4.4740   17.4101 C   0  0  0  0  0  0  0  0  0  0  0  0
    6.9051   -7.9575   16.4222 C   0  0  0  0  0  0  0  0  0  0  0  0
    8.9969   -6.3552   17.9668 N   0  0  0  0  0  0  0  0  0  0  0  0
   10.6702   -3.9051   22.4070 C   0  0  0  0  0  0  0  0  0  0  0  0
   11.0625   -3.0028   18.8894 C   0  0  0  0  0  0  0  0  0  0  0  0
    5.6180   -7.9194   16.1754 O   0  0  0  0  0  0  0  0  0  0  0  0
    9.7259   -5.3080   18.4485 C   0  0  0  0  0  0  0  0  0  0  0  0
    9.4578   -5.0200   16.3036 N   0  0  0  0  0  0  0  0  0  0  0  0
    5.0287   -8.9365   16.8223 C   0  0  0  0  0  0  0  0  0  0  0  0
    8.7742   -6.1498   16.6764 C   0  0  0  0  0  0  0  0  0  0  0  0
   10.9418   -3.4032   21.2053 O   0  0  0  0  0  0  0  0  0  0  0  0
    1.4797   -8.6258   16.2950 C   0  0  0  0  0  0  0  0  0  0  0  0
    9.2861   -1.2743   25.3585 C   0  0  0  0  0  0  0  0  0  0  0  0
    1.8892  -10.3985   17.7511 N   0  0  0  0  0  0  0  0  0  0  0  0
    9.6210   -0.6952   24.0976 C   0  0  0  0  0  0  0  0  0  0  0  0
    7.0792   -9.0217   17.1429 C   0  0  0  0  0  0  0  0  0  0  0  0
    3.1713  -10.1816   17.6634 C   0  0  0  0  0  0  0  0  0  0  0  0
    2.7878   -8.3822   16.2137 C   0  0  0  0  0  0  0  0  0  0  0  0
    9.4601   -2.6590   25.6528 C   0  0  0  0  0  0  0  0  0  0  0  0
   10.1182   -1.5672   23.1165 C   0  0  0  0  0  0  0  0  0  0  0  0
    1.0552   -9.6360   17.0650 C   0  0  0  0  0  0  0  0  0  0  0  0
    3.6519   -9.1783   16.9039 C   0  0  0  0  0  0  0  0  0  0  0  0
    7.8675   -7.0096   15.9415 C   0  0  0  0  0  0  0  0  0  0  0  0
    5.9733   -9.6553   17.3832 N   0  0  0  0  0  0  0  0  0  0  0  0
   10.2411   -2.9363   23.4301 C   0  0  0  0  0  0  0  0  0  0  0  0
   10.7288   -3.8197   19.9525 C   0  0  0  0  0  0  0  0  0  0  0  0
   10.1189   -5.0054   19.6987 C   0  0  0  0  0  0  0  0  0  0  0  0
  1  3  4  0
  1  7  4  0
  2 21  4  0
  2 27  4  0
  3  9  4  0
  3 10  4  0
  4  8  4  0
  4 18  4  0
  4 25  1  0
  5  9  4  0
  5 12  4  0
  6 13  1  0
  6 27  1  0
  7 28  4  0
  8 11  4  0
  9 29  4  0
 10 12  4  0
 11 24  1  0
 11 26  4  0
 12 25  1  0
 13 28  1  0
 14 20  4  0
 14 23  4  0
 15 17  4  0
 15 21  4  0
 16 19  4  0
 16 23  4  0
 17 22  4  0
 18 26  4  0
 19 24  4  0
 20 24  4  0
 22 27  4  0
 28 29  4  0
M  END
$$$$

 Created by Python create_sdf_string function

 29 33  0  0  0  0  0  0  0  0999 V2000
   10.7215   -3.3326   17.6437 C   0  0  0  0  0  0  0  0  0  0  0  0
    9.9489   -3.4675   24.6487 N   0  0  0  0  0  0  0  0  0  0  0  0
   10.0172   -4.4740   17.4101 C   0  0  0  0  0  0  0  0  0  0  0  0
    6.9051   -7.9575   16.4222 C   0  0  0  0  0  0  0  0  0  0  0  0
    8.9969   -6.3552   17.9668 N   0  0  0  0  0  0  0  0  0  0  0  0
   10.6702   -3.9051   22.4070 C   0  0  0  0  0  0  0  0  0  0  0  0
   11.0625   -3.0028   18.8894 C   0  0  0  0  0  0  0  0  0  0  0  0
    5.6180   -7.9194   16.1754 O   0  0  0  0  0  0  0  0  0  0  0  0
    9.7259   -5.3080   18.4485 C   0  0  0  0  0  0  0  0  0  0  0  0
    9.4578   -5.0200   16.3036 N   0  0  0  0  0  0  0  0  0  0  0  0
    5.0287   -8.9365   16.8223 C   0  0  0  0  0  0  0  0  0  0  0  0
    8.7742   -6.1498   16.6764 C   0  0  0  0  0  0  0  0  0  0  0  0
   10.9418   -3.4032   21.2053 O   0  0  0  0  0  0  0  0  0  0  0  0
    1.4797   -8.6258   16.2950 C   0  0  0  0  0  0  0  0  0  0  0  0
    9.2861   -1.2743   25.3585 C   0  0  0  0  0  0  0  0  0  0  0  0
    1.8892  -10.3985   17.7511 N   0  0  0  0  0  0  0  0  0  0  0  0
    9.6210   -0.6952   24.0976 C   0  0  0  0  0  0  0  0  0  0  0  0
    7.0792   -9.0217   17.1429 C   0  0  0  0  0  0  0  0  0  0  0  0
    3.1713  -10.1816   17.6634 C   0  0  0  0  0  0  0  0  0  0  0  0
    2.7878   -8.3822   16.2137 C   0  0  0  0  0  0  0  0  0  0  0  0
    9.4601   -2.6590   25.6528 C   0  0  0  0  0  0  0  0  0  0  0  0
   10.1182   -1.5672   23.1165 C   0  0  0  0  0  0  0  0  0  0  0  0
    1.0552   -9.6360   17.0650 C   0  0  0  0  0  0  0  0  0  0  0  0
    3.6519   -9.1783   16.9039 C   0  0  0  0  0  0  0  0  0  0  0  0
    7.8675   -7.0096   15.9415 C   0  0  0  0  0  0  0  0  0  0  0  0
    5.9733   -9.6553   17.3832 N   0  0  0  0  0  0  0  0  0  0  0  0
   10.2411   -2.9363   23.4301 C   0  0  0  0  0  0  0  0  0  0  0  0
   10.7288   -3.8197   19.9525 C   0  0  0  0  0  0  0  0  0  0  0  0
   10.1189   -5.0054   19.6987 C   0  0  0  0  0  0  0  0  0  0  0  0
  1  3  4  0
  1  7  4  0
  2 21  4  0
  2 27  4  0
  3  9  4  0
  3 10  4  0
  4  8  4  0
  4 18  4  0
  4 25  1  0
  5  9  4  0
  5 12  4  0
  6 13  1  0
  6 27  1  0
  7 28  4  0
  8 11  4  0
  9 29  4  0
 10 12  4  0
 11 24  1  0
 11 26  4  0
 12 25  1  0
 13 28  1  0
 14 20  4  0
 14 23  4  0
 15 17  4  0
 15 21  4  0
 16 19  4  0
 16 23  4  0
 17 22  4  0
 18 26  4  0
 19 24  4  0
 20 24  4  0
 22 27  4  0
 28 29  4  0
M  END
$$$$

 Created by Python create_sdf_string function

 29 33  0  0  0  0  0  0  0  0999 V2000
   10.7215   -3.3326   17.6437 C   0  0  0  0  0  0  0  0  0  0  0  0
    9.9489   -3.4675   24.6487 N   0  0  0  0  0  0  0  0  0  0  0  0
   10.0172   -4.4740   17.4101 C   0  0  0  0  0  0  0  0  0  0  0  0
    6.9051   -7.9575   16.4222 C   0  0  0  0  0  0  0  0  0  0  0  0
    8.9969   -6.3552   17.9668 N   0  0  0  0  0  0  0  0  0  0  0  0
   10.6702   -3.9051   22.4070 C   0  0  0  0  0  0  0  0  0  0  0  0
   11.0625   -3.0028   18.8894 C   0  0  0  0  0  0  0  0  0  0  0  0
    5.6180   -7.9194   16.1754 O   0  0  0  0  0  0  0  0  0  0  0  0
    9.7259   -5.3080   18.4485 C   0  0  0  0  0  0  0  0  0  0  0  0
    9.4578   -5.0200   16.3036 N   0  0  0  0  0  0  0  0  0  0  0  0
    5.0287   -8.9365   16.8223 C   0  0  0  0  0  0  0  0  0  0  0  0
    8.7742   -6.1498   16.6764 C   0  0  0  0  0  0  0  0  0  0  0  0
   10.9418   -3.4032   21.2053 O   0  0  0  0  0  0  0  0  0  0  0  0
    1.4797   -8.6258   16.2950 C   0  0  0  0  0  0  0  0  0  0  0  0
    9.2861   -1.2743   25.3585 C   0  0  0  0  0  0  0  0  0  0  0  0
    1.8892  -10.3985   17.7511 N   0  0  0  0  0  0  0  0  0  0  0  0
    9.6210   -0.6952   24.0976 C   0  0  0  0  0  0  0  0  0  0  0  0
    7.0792   -9.0217   17.1429 C   0  0  0  0  0  0  0  0  0  0  0  0
    3.1713  -10.1816   17.6634 C   0  0  0  0  0  0  0  0  0  0  0  0
    2.7878   -8.3822   16.2137 C   0  0  0  0  0  0  0  0  0  0  0  0
    9.4601   -2.6590   25.6528 C   0  0  0  0  0  0  0  0  0  0  0  0
   10.1182   -1.5672   23.1165 C   0  0  0  0  0  0  0  0  0  0  0  0
    1.0552   -9.6360   17.0650 C   0  0  0  0  0  0  0  0  0  0  0  0
    3.6519   -9.1783   16.9039 C   0  0  0  0  0  0  0  0  0  0  0  0
    7.8675   -7.0096   15.9415 C   0  0  0  0  0  0  0  0  0  0  0  0
    5.9733   -9.6553   17.3832 N   0  0  0  0  0  0  0  0  0  0  0  0
   10.2411   -2.9363   23.4301 C   0  0  0  0  0  0  0  0  0  0  0  0
   10.7288   -3.8197   19.9525 C   0  0  0  0  0  0  0  0  0  0  0  0
   10.1189   -5.0054   19.6987 C   0  0  0  0  0  0  0  0  0  0  0  0
  1  3  4  0
  1  7  4  0
  2 21  4  0
  2 27  4  0
  3  9  4  0
  3 10  4  0
  4  8  4  0
  4 18  4  0
  4 25  1  0
  5  9  4  0
  5 12  4  0
  6 13  1  0
  6 27  1  0
  7 28  4  0
  8 11  4  0
  9 29  4  0
 10 12  4  0
 11 24  1  0
 11 26  4  0
 12 25  1  0
 13 28  1  0
 14 20  4  0
 14 23  4  0
 15 17  4  0
 15 21  4  0
 16 19  4  0
 16 23  4  0
 17 22  4  0
 18 26  4  0
 19 24  4  0
 20 24  4  0
 22 27  4  0
 28 29  4  0
M  END
$$$$

 Created by Python create_sdf_string function

 29 33  0  0  0  0  0  0  0  0999 V2000
   10.7215   -3.3326   17.6437 C   0  0  0  0  0  0  0  0  0  0  0  0
    9.9489   -3.4675   24.6487 N   0  0  0  0  0  0  0  0  0  0  0  0
   10.0172   -4.4740   17.4101 C   0  0  0  0  0  0  0  0  0  0  0  0
    6.9051   -7.9575   16.4222 C   0  0  0  0  0  0  0  0  0  0  0  0
    8.9969   -6.3552   17.9668 N   0  0  0  0  0  0  0  0  0  0  0  0
   10.6702   -3.9051   22.4070 C   0  0  0  0  0  0  0  0  0  0  0  0
   11.0625   -3.0028   18.8894 C   0  0  0  0  0  0  0  0  0  0  0  0
    5.6180   -7.9194   16.1754 O   0  0  0  0  0  0  0  0  0  0  0  0
    9.7259   -5.3080   18.4485 C   0  0  0  0  0  0  0  0  0  0  0  0
    9.4578   -5.0200   16.3036 N   0  0  0  0  0  0  0  0  0  0  0  0
    5.0287   -8.9365   16.8223 C   0  0  0  0  0  0  0  0  0  0  0  0
    8.7742   -6.1498   16.6764 C   0  0  0  0  0  0  0  0  0  0  0  0
   10.9418   -3.4032   21.2053 O   0  0  0  0  0  0  0  0  0  0  0  0
    1.4797   -8.6258   16.2950 C   0  0  0  0  0  0  0  0  0  0  0  0
    9.2861   -1.2743   25.3585 C   0  0  0  0  0  0  0  0  0  0  0  0
    1.8892  -10.3985   17.7511 N   0  0  0  0  0  0  0  0  0  0  0  0
    9.6210   -0.6952   24.0976 C   0  0  0  0  0  0  0  0  0  0  0  0
    7.0792   -9.0217   17.1429 C   0  0  0  0  0  0  0  0  0  0  0  0
    3.1713  -10.1816   17.6634 C   0  0  0  0  0  0  0  0  0  0  0  0
    2.7878   -8.3822   16.2137 C   0  0  0  0  0  0  0  0  0  0  0  0
    9.4601   -2.6590   25.6528 C   0  0  0  0  0  0  0  0  0  0  0  0
   10.1182   -1.5672   23.1165 C   0  0  0  0  0  0  0  0  0  0  0  0
    1.0552   -9.6360   17.0650 C   0  0  0  0  0  0  0  0  0  0  0  0
    3.6519   -9.1783   16.9039 C   0  0  0  0  0  0  0  0  0  0  0  0
    7.8675   -7.0096   15.9415 C   0  0  0  0  0  0  0  0  0  0  0  0
    5.9733   -9.6553   17.3832 N   0  0  0  0  0  0  0  0  0  0  0  0
   10.2411   -2.9363   23.4301 C   0  0  0  0  0  0  0  0  0  0  0  0
   10.7288   -3.8197   19.9525 C   0  0  0  0  0  0  0  0  0  0  0  0
   10.1189   -5.0054   19.6987 C   0  0  0  0  0  0  0  0  0  0  0  0
  1  3  4  0
  1  7  4  0
  2 21  4  0
  2 27  4  0
  3  9  4  0
  3 10  4  0
  4  8  4  0
  4 18  4  0
  4 25  1  0
  5  9  4  0
  5 12  4  0
  6 13  1  0
  6 27  1  0
  7 28  4  0
  8 11  4  0
  9 29  4  0
 10 12  4  0
 11 24  1  0
 11 26  4  0
 12 25  1  0
 13 28  1  0
 14 20  4  0
 14 23  4  0
 15 17  4  0
 15 21  4  0
 16 19  4  0
 16 23  4  0
 17 22  4  0
 18 26  4  0
 19 24  4  0
 20 24  4  0
 22 27  4  0
 28 29  4  0
M  END
$$$$

 Created by Python create_sdf_string function

 29 33  0  0  0  0  0  0  0  0999 V2000
   10.7215   -3.3326   17.6437 C   0  0  0  0  0  0  0  0  0  0  0  0
    9.9489   -3.4675   24.6487 N   0  0  0  0  0  0  0  0  0  0  0  0
   10.0172   -4.4740   17.4101 C   0  0  0  0  0  0  0  0  0  0  0  0
    6.9051   -7.9575   16.4222 C   0  0  0  0  0  0  0  0  0  0  0  0
    8.9969   -6.3552   17.9668 N   0  0  0  0  0  0  0  0  0  0  0  0
   10.6702   -3.9051   22.4070 C   0  0  0  0  0  0  0  0  0  0  0  0
   11.0625   -3.0028   18.8894 C   0  0  0  0  0  0  0  0  0  0  0  0
    5.6180   -7.9194   16.1754 O   0  0  0  0  0  0  0  0  0  0  0  0
    9.7259   -5.3080   18.4485 C   0  0  0  0  0  0  0  0  0  0  0  0
    9.4578   -5.0200   16.3036 N   0  0  0  0  0  0  0  0  0  0  0  0
    5.0287   -8.9365   16.8223 C   0  0  0  0  0  0  0  0  0  0  0  0
    8.7742   -6.1498   16.6764 C   0  0  0  0  0  0  0  0  0  0  0  0
   10.9418   -3.4032   21.2053 O   0  0  0  0  0  0  0  0  0  0  0  0
    1.4797   -8.6258   16.2950 C   0  0  0  0  0  0  0  0  0  0  0  0
    9.2861   -1.2743   25.3585 C   0  0  0  0  0  0  0  0  0  0  0  0
    1.8892  -10.3985   17.7511 N   0  0  0  0  0  0  0  0  0  0  0  0
    9.6210   -0.6952   24.0976 C   0  0  0  0  0  0  0  0  0  0  0  0
    7.0792   -9.0217   17.1429 C   0  0  0  0  0  0  0  0  0  0  0  0
    3.1713  -10.1816   17.6634 C   0  0  0  0  0  0  0  0  0  0  0  0
    2.7878   -8.3822   16.2137 C   0  0  0  0  0  0  0  0  0  0  0  0
    9.4601   -2.6590   25.6528 C   0  0  0  0  0  0  0  0  0  0  0  0
   10.1182   -1.5672   23.1165 C   0  0  0  0  0  0  0  0  0  0  0  0
    1.0552   -9.6360   17.0650 C   0  0  0  0  0  0  0  0  0  0  0  0
    3.6519   -9.1783   16.9039 C   0  0  0  0  0  0  0  0  0  0  0  0
    7.8675   -7.0096   15.9415 C   0  0  0  0  0  0  0  0  0  0  0  0
    5.9733   -9.6553   17.3832 N   0  0  0  0  0  0  0  0  0  0  0  0
   10.2411   -2.9363   23.4301 C   0  0  0  0  0  0  0  0  0  0  0  0
   10.7288   -3.8197   19.9525 C   0  0  0  0  0  0  0  0  0  0  0  0
   10.1189   -5.0054   19.6987 C   0  0  0  0  0  0  0  0  0  0  0  0
  1  3  4  0
  1  7  4  0
  2 21  4  0
  2 27  4  0
  3  9  4  0
  3 10  4  0
  4  8  4  0
  4 18  4  0
  4 25  1  0
  5  9  4  0
  5 12  4  0
  6 13  1  0
  6 27  1  0
  7 28  4  0
  8 11  4  0
  9 29  4  0
 10 12  4  0
 11 24  1  0
 11 26  4  0
 12 25  1  0
 13 28  1  0
 14 20  4  0
 14 23  4  0
 15 17  4  0
 15 21  4  0
 16 19  4  0
 16 23  4  0
 17 22  4  0
 18 26  4  0
 19 24  4  0
 20 24  4  0
 22 27  4  0
 28 29  4  0
M  END
$$$$

 Created by Python create_sdf_string function

 29 33  0  0  0  0  0  0  0  0999 V2000
   10.7215   -3.3326   17.6437 C   0  0  0  0  0  0  0  0  0  0  0  0
    9.9489   -3.4675   24.6487 N   0  0  0  0  0  0  0  0  0  0  0  0
   10.0172   -4.4740   17.4101 C   0  0  0  0  0  0  0  0  0  0  0  0
    6.9051   -7.9575   16.4222 C   0  0  0  0  0  0  0  0  0  0  0  0
    8.9969   -6.3552   17.9668 N   0  0  0  0  0  0  0  0  0  0  0  0
   10.6702   -3.9051   22.4070 C   0  0  0  0  0  0  0  0  0  0  0  0
   11.0625   -3.0028   18.8894 C   0  0  0  0  0  0  0  0  0  0  0  0
    5.6180   -7.9194   16.1754 O   0  0  0  0  0  0  0  0  0  0  0  0
    9.7259   -5.3080   18.4485 C   0  0  0  0  0  0  0  0  0  0  0  0
    9.4578   -5.0200   16.3036 N   0  0  0  0  0  0  0  0  0  0  0  0
    5.0287   -8.9365   16.8223 C   0  0  0  0  0  0  0  0  0  0  0  0
    8.7742   -6.1498   16.6764 C   0  0  0  0  0  0  0  0  0  0  0  0
   10.9418   -3.4032   21.2053 O   0  0  0  0  0  0  0  0  0  0  0  0
    1.4797   -8.6258   16.2950 C   0  0  0  0  0  0  0  0  0  0  0  0
    9.2861   -1.2743   25.3585 C   0  0  0  0  0  0  0  0  0  0  0  0
    1.8892  -10.3985   17.7511 N   0  0  0  0  0  0  0  0  0  0  0  0
    9.6210   -0.6952   24.0976 C   0  0  0  0  0  0  0  0  0  0  0  0
    7.0792   -9.0217   17.1429 C   0  0  0  0  0  0  0  0  0  0  0  0
    3.1713  -10.1816   17.6634 C   0  0  0  0  0  0  0  0  0  0  0  0
    2.7878   -8.3822   16.2137 C   0  0  0  0  0  0  0  0  0  0  0  0
    9.4601   -2.6590   25.6528 C   0  0  0  0  0  0  0  0  0  0  0  0
   10.1182   -1.5672   23.1165 C   0  0  0  0  0  0  0  0  0  0  0  0
    1.0552   -9.6360   17.0650 C   0  0  0  0  0  0  0  0  0  0  0  0
    3.6519   -9.1783   16.9039 C   0  0  0  0  0  0  0  0  0  0  0  0
    7.8675   -7.0096   15.9415 C   0  0  0  0  0  0  0  0  0  0  0  0
    5.9733   -9.6553   17.3832 N   0  0  0  0  0  0  0  0  0  0  0  0
   10.2411   -2.9363   23.4301 C   0  0  0  0  0  0  0  0  0  0  0  0
   10.7288   -3.8197   19.9525 C   0  0  0  0  0  0  0  0  0  0  0  0
   10.1189   -5.0054   19.6987 C   0  0  0  0  0  0  0  0  0  0  0  0
  1  3  4  0
  1  7  4  0
  2 21  4  0
  2 27  4  0
  3  9  4  0
  3 10  4  0
  4  8  4  0
  4 18  4  0
  4 25  1  0
  5  9  4  0
  5 12  4  0
  6 13  1  0
  6 27  1  0
  7 28  4  0
  8 11  4  0
  9 29  4  0
 10 12  4  0
 11 24  1  0
 11 26  4  0
 12 25  1  0
 13 28  1  0
 14 20  4  0
 14 23  4  0
 15 17  4  0
 15 21  4  0
 16 19  4  0
 16 23  4  0
 17 22  4  0
 18 26  4  0
 19 24  4  0
 20 24  4  0
 22 27  4  0
 28 29  4  0
M  END
$$$$

 Created by Python create_sdf_string function

 29 33  0  0  0  0  0  0  0  0999 V2000
   10.7215   -3.3326   17.6437 C   0  0  0  0  0  0  0  0  0  0  0  0
    9.9489   -3.4675   24.6487 N   0  0  0  0  0  0  0  0  0  0  0  0
   10.0172   -4.4740   17.4101 C   0  0  0  0  0  0  0  0  0  0  0  0
    6.9051   -7.9575   16.4222 C   0  0  0  0  0  0  0  0  0  0  0  0
    8.9969   -6.3552   17.9668 N   0  0  0  0  0  0  0  0  0  0  0  0
   10.6702   -3.9051   22.4070 C   0  0  0  0  0  0  0  0  0  0  0  0
   11.0625   -3.0028   18.8894 C   0  0  0  0  0  0  0  0  0  0  0  0
    5.6180   -7.9194   16.1754 O   0  0  0  0  0  0  0  0  0  0  0  0
    9.7259   -5.3080   18.4485 C   0  0  0  0  0  0  0  0  0  0  0  0
    9.4578   -5.0200   16.3036 N   0  0  0  0  0  0  0  0  0  0  0  0
    5.0287   -8.9365   16.8223 C   0  0  0  0  0  0  0  0  0  0  0  0
    8.7742   -6.1498   16.6764 C   0  0  0  0  0  0  0  0  0  0  0  0
   10.9418   -3.4032   21.2053 O   0  0  0  0  0  0  0  0  0  0  0  0
    1.4797   -8.6258   16.2950 C   0  0  0  0  0  0  0  0  0  0  0  0
    9.2861   -1.2743   25.3585 C   0  0  0  0  0  0  0  0  0  0  0  0
    1.8892  -10.3985   17.7511 N   0  0  0  0  0  0  0  0  0  0  0  0
    9.6210   -0.6952   24.0976 C   0  0  0  0  0  0  0  0  0  0  0  0
    7.0792   -9.0217   17.1429 C   0  0  0  0  0  0  0  0  0  0  0  0
    3.1713  -10.1816   17.6634 C   0  0  0  0  0  0  0  0  0  0  0  0
    2.7878   -8.3822   16.2137 C   0  0  0  0  0  0  0  0  0  0  0  0
    9.4601   -2.6590   25.6528 C   0  0  0  0  0  0  0  0  0  0  0  0
   10.1182   -1.5672   23.1165 C   0  0  0  0  0  0  0  0  0  0  0  0
    1.0552   -9.6360   17.0650 C   0  0  0  0  0  0  0  0  0  0  0  0
    3.6519   -9.1783   16.9039 C   0  0  0  0  0  0  0  0  0  0  0  0
    7.8675   -7.0096   15.9415 C   0  0  0  0  0  0  0  0  0  0  0  0
    5.9733   -9.6553   17.3832 N   0  0  0  0  0  0  0  0  0  0  0  0
   10.2411   -2.9363   23.4301 C   0  0  0  0  0  0  0  0  0  0  0  0
   10.7288   -3.8197   19.9525 C   0  0  0  0  0  0  0  0  0  0  0  0
   10.1189   -5.0054   19.6987 C   0  0  0  0  0  0  0  0  0  0  0  0
  1  3  4  0
  1  7  4  0
  2 21  4  0
  2 27  4  0
  3  9  4  0
  3 10  4  0
  4  8  4  0
  4 18  4  0
  4 25  1  0
  5  9  4  0
  5 12  4  0
  6 13  1  0
  6 27  1  0
  7 28  4  0
  8 11  4  0
  9 29  4  0
 10 12  4  0
 11 24  1  0
 11 26  4  0
 12 25  1  0
 13 28  1  0
 14 20  4  0
 14 23  4  0
 15 17  4  0
 15 21  4  0
 16 19  4  0
 16 23  4  0
 17 22  4  0
 18 26  4  0
 19 24  4  0
 20 24  4  0
 22 27  4  0
 28 29  4  0
M  END
$$$$

 Created by Python create_sdf_string function

 29 33  0  0  0  0  0  0  0  0999 V2000
   10.7215   -3.3326   17.6437 C   0  0  0  0  0  0  0  0  0  0  0  0
    9.9489   -3.4675   24.6487 N   0  0  0  0  0  0  0  0  0  0  0  0
   10.0172   -4.4740   17.4101 C   0  0  0  0  0  0  0  0  0  0  0  0
    6.9051   -7.9575   16.4222 C   0  0  0  0  0  0  0  0  0  0  0  0
    8.9969   -6.3552   17.9668 N   0  0  0  0  0  0  0  0  0  0  0  0
   10.6702   -3.9051   22.4070 C   0  0  0  0  0  0  0  0  0  0  0  0
   11.0625   -3.0028   18.8894 C   0  0  0  0  0  0  0  0  0  0  0  0
    5.6180   -7.9194   16.1754 O   0  0  0  0  0  0  0  0  0  0  0  0
    9.7259   -5.3080   18.4485 C   0  0  0  0  0  0  0  0  0  0  0  0
    9.4578   -5.0200   16.3036 N   0  0  0  0  0  0  0  0  0  0  0  0
    5.0287   -8.9365   16.8223 C   0  0  0  0  0  0  0  0  0  0  0  0
    8.7742   -6.1498   16.6764 C   0  0  0  0  0  0  0  0  0  0  0  0
   10.9418   -3.4032   21.2053 O   0  0  0  0  0  0  0  0  0  0  0  0
    1.4797   -8.6258   16.2950 C   0  0  0  0  0  0  0  0  0  0  0  0
    9.2861   -1.2743   25.3585 C   0  0  0  0  0  0  0  0  0  0  0  0
    1.8892  -10.3985   17.7511 N   0  0  0  0  0  0  0  0  0  0  0  0
    9.6210   -0.6952   24.0976 C   0  0  0  0  0  0  0  0  0  0  0  0
    7.0792   -9.0217   17.1429 C   0  0  0  0  0  0  0  0  0  0  0  0
    3.1713  -10.1816   17.6634 C   0  0  0  0  0  0  0  0  0  0  0  0
    2.7878   -8.3822   16.2137 C   0  0  0  0  0  0  0  0  0  0  0  0
    9.4601   -2.6590   25.6528 C   0  0  0  0  0  0  0  0  0  0  0  0
   10.1182   -1.5672   23.1165 C   0  0  0  0  0  0  0  0  0  0  0  0
    1.0552   -9.6360   17.0650 C   0  0  0  0  0  0  0  0  0  0  0  0
    3.6519   -9.1783   16.9039 C   0  0  0  0  0  0  0  0  0  0  0  0
    7.8675   -7.0096   15.9415 C   0  0  0  0  0  0  0  0  0  0  0  0
    5.9733   -9.6553   17.3832 N   0  0  0  0  0  0  0  0  0  0  0  0
   10.2411   -2.9363   23.4301 C   0  0  0  0  0  0  0  0  0  0  0  0
   10.7288   -3.8197   19.9525 C   0  0  0  0  0  0  0  0  0  0  0  0
   10.1189   -5.0054   19.6987 C   0  0  0  0  0  0  0  0  0  0  0  0
  1  3  4  0
  1  7  4  0
  2 21  4  0
  2 27  4  0
  3  9  4  0
  3 10  4  0
  4  8  4  0
  4 18  4  0
  4 25  1  0
  5  9  4  0
  5 12  4  0
  6 13  1  0
  6 27  1  0
  7 28  4  0
  8 11  4  0
  9 29  4  0
 10 12  4  0
 11 24  1  0
 11 26  4  0
 12 25  1  0
 13 28  1  0
 14 20  4  0
 14 23  4  0
 15 17  4  0
 15 21  4  0
 16 19  4  0
 16 23  4  0
 17 22  4  0
 18 26  4  0
 19 24  4  0
 20 24  4  0
 22 27  4  0
 28 29  4  0
M  END
$$$$

 Created by Python create_sdf_string function

 29 33  0  0  0  0  0  0  0  0999 V2000
   10.7215   -3.3326   17.6437 C   0  0  0  0  0  0  0  0  0  0  0  0
    9.9489   -3.4675   24.6487 N   0  0  0  0  0  0  0  0  0  0  0  0
   10.0172   -4.4740   17.4101 C   0  0  0  0  0  0  0  0  0  0  0  0
    6.9051   -7.9575   16.4222 C   0  0  0  0  0  0  0  0  0  0  0  0
    8.9969   -6.3552   17.9668 N   0  0  0  0  0  0  0  0  0  0  0  0
   10.6702   -3.9051   22.4070 C   0  0  0  0  0  0  0  0  0  0  0  0
   11.0625   -3.0028   18.8894 C   0  0  0  0  0  0  0  0  0  0  0  0
    5.6180   -7.9194   16.1754 O   0  0  0  0  0  0  0  0  0  0  0  0
    9.7259   -5.3080   18.4485 C   0  0  0  0  0  0  0  0  0  0  0  0
    9.4578   -5.0200   16.3036 N   0  0  0  0  0  0  0  0  0  0  0  0
    5.0287   -8.9365   16.8223 C   0  0  0  0  0  0  0  0  0  0  0  0
    8.7742   -6.1498   16.6764 C   0  0  0  0  0  0  0  0  0  0  0  0
   10.9418   -3.4032   21.2053 O   0  0  0  0  0  0  0  0  0  0  0  0
    1.4797   -8.6258   16.2950 C   0  0  0  0  0  0  0  0  0  0  0  0
    9.2861   -1.2743   25.3585 C   0  0  0  0  0  0  0  0  0  0  0  0
    1.8892  -10.3985   17.7511 N   0  0  0  0  0  0  0  0  0  0  0  0
    9.6210   -0.6952   24.0976 C   0  0  0  0  0  0  0  0  0  0  0  0
    7.0792   -9.0217   17.1429 C   0  0  0  0  0  0  0  0  0  0  0  0
    3.1713  -10.1816   17.6634 C   0  0  0  0  0  0  0  0  0  0  0  0
    2.7878   -8.3822   16.2137 C   0  0  0  0  0  0  0  0  0  0  0  0
    9.4601   -2.6590   25.6528 C   0  0  0  0  0  0  0  0  0  0  0  0
   10.1182   -1.5672   23.1165 C   0  0  0  0  0  0  0  0  0  0  0  0
    1.0552   -9.6360   17.0650 C   0  0  0  0  0  0  0  0  0  0  0  0
    3.6519   -9.1783   16.9039 C   0  0  0  0  0  0  0  0  0  0  0  0
    7.8675   -7.0096   15.9415 C   0  0  0  0  0  0  0  0  0  0  0  0
    5.9733   -9.6553   17.3832 N   0  0  0  0  0  0  0  0  0  0  0  0
   10.2411   -2.9363   23.4301 C   0  0  0  0  0  0  0  0  0  0  0  0
   10.7288   -3.8197   19.9525 C   0  0  0  0  0  0  0  0  0  0  0  0
   10.1189   -5.0054   19.6987 C   0  0  0  0  0  0  0  0  0  0  0  0
  1  3  4  0
  1  7  4  0
  2 21  4  0
  2 27  4  0
  3  9  4  0
  3 10  4  0
  4  8  4  0
  4 18  4  0
  4 25  1  0
  5  9  4  0
  5 12  4  0
  6 13  1  0
  6 27  1  0
  7 28  4  0
  8 11  4  0
  9 29  4  0
 10 12  4  0
 11 24  1  0
 11 26  4  0
 12 25  1  0
 13 28  1  0
 14 20  4  0
 14 23  4  0
 15 17  4  0
 15 21  4  0
 16 19  4  0
 16 23  4  0
 17 22  4  0
 18 26  4  0
 19 24  4  0
 20 24  4  0
 22 27  4  0
 28 29  4  0
M  END
$$$$

 Created by Python create_sdf_string function

 29 33  0  0  0  0  0  0  0  0999 V2000
   10.7215   -3.3326   17.6437 C   0  0  0  0  0  0  0  0  0  0  0  0
    9.9489   -3.4675   24.6487 N   0  0  0  0  0  0  0  0  0  0  0  0
   10.0172   -4.4740   17.4101 C   0  0  0  0  0  0  0  0  0  0  0  0
    6.9051   -7.9575   16.4222 C   0  0  0  0  0  0  0  0  0  0  0  0
    8.9969   -6.3552   17.9668 N   0  0  0  0  0  0  0  0  0  0  0  0
   10.6702   -3.9051   22.4070 C   0  0  0  0  0  0  0  0  0  0  0  0
   11.0625   -3.0028   18.8894 C   0  0  0  0  0  0  0  0  0  0  0  0
    5.6180   -7.9194   16.1754 O   0  0  0  0  0  0  0  0  0  0  0  0
    9.7259   -5.3080   18.4485 C   0  0  0  0  0  0  0  0  0  0  0  0
    9.4578   -5.0200   16.3036 N   0  0  0  0  0  0  0  0  0  0  0  0
    5.0287   -8.9365   16.8223 C   0  0  0  0  0  0  0  0  0  0  0  0
    8.7742   -6.1498   16.6764 C   0  0  0  0  0  0  0  0  0  0  0  0
   10.9418   -3.4032   21.2053 O   0  0  0  0  0  0  0  0  0  0  0  0
    1.4797   -8.6258   16.2950 C   0  0  0  0  0  0  0  0  0  0  0  0
    9.2861   -1.2743   25.3585 C   0  0  0  0  0  0  0  0  0  0  0  0
    1.8892  -10.3985   17.7511 N   0  0  0  0  0  0  0  0  0  0  0  0
    9.6210   -0.6952   24.0976 C   0  0  0  0  0  0  0  0  0  0  0  0
    7.0792   -9.0217   17.1429 C   0  0  0  0  0  0  0  0  0  0  0  0
    3.1713  -10.1816   17.6634 C   0  0  0  0  0  0  0  0  0  0  0  0
    2.7878   -8.3822   16.2137 C   0  0  0  0  0  0  0  0  0  0  0  0
    9.4601   -2.6590   25.6528 C   0  0  0  0  0  0  0  0  0  0  0  0
   10.1182   -1.5672   23.1165 C   0  0  0  0  0  0  0  0  0  0  0  0
    1.0552   -9.6360   17.0650 C   0  0  0  0  0  0  0  0  0  0  0  0
    3.6519   -9.1783   16.9039 C   0  0  0  0  0  0  0  0  0  0  0  0
    7.8675   -7.0096   15.9415 C   0  0  0  0  0  0  0  0  0  0  0  0
    5.9733   -9.6553   17.3832 N   0  0  0  0  0  0  0  0  0  0  0  0
   10.2411   -2.9363   23.4301 C   0  0  0  0  0  0  0  0  0  0  0  0
   10.7288   -3.8197   19.9525 C   0  0  0  0  0  0  0  0  0  0  0  0
   10.1189   -5.0054   19.6987 C   0  0  0  0  0  0  0  0  0  0  0  0
  1  3  4  0
  1  7  4  0
  2 21  4  0
  2 27  4  0
  3  9  4  0
  3 10  4  0
  4  8  4  0
  4 18  4  0
  4 25  1  0
  5  9  4  0
  5 12  4  0
  6 13  1  0
  6 27  1  0
  7 28  4  0
  8 11  4  0
  9 29  4  0
 10 12  4  0
 11 24  1  0
 11 26  4  0
 12 25  1  0
 13 28  1  0
 14 20  4  0
 14 23  4  0
 15 17  4  0
 15 21  4  0
 16 19  4  0
 16 23  4  0
 17 22  4  0
 18 26  4  0
 19 24  4  0
 20 24  4  0
 22 27  4  0
 28 29  4  0
M  END
$$$$

 Created by Python create_sdf_string function

 29 33  0  0  0  0  0  0  0  0999 V2000
   10.7215   -3.3326   17.6437 C   0  0  0  0  0  0  0  0  0  0  0  0
    9.9489   -3.4675   24.6487 N   0  0  0  0  0  0  0  0  0  0  0  0
   10.0172   -4.4740   17.4101 C   0  0  0  0  0  0  0  0  0  0  0  0
    6.9051   -7.9575   16.4222 C   0  0  0  0  0  0  0  0  0  0  0  0
    8.9969   -6.3552   17.9668 N   0  0  0  0  0  0  0  0  0  0  0  0
   10.6702   -3.9051   22.4070 C   0  0  0  0  0  0  0  0  0  0  0  0
   11.0625   -3.0028   18.8894 C   0  0  0  0  0  0  0  0  0  0  0  0
    5.6180   -7.9194   16.1754 O   0  0  0  0  0  0  0  0  0  0  0  0
    9.7259   -5.3080   18.4485 C   0  0  0  0  0  0  0  0  0  0  0  0
    9.4578   -5.0200   16.3036 N   0  0  0  0  0  0  0  0  0  0  0  0
    5.0287   -8.9365   16.8223 C   0  0  0  0  0  0  0  0  0  0  0  0
    8.7742   -6.1498   16.6764 C   0  0  0  0  0  0  0  0  0  0  0  0
   10.9418   -3.4032   21.2053 O   0  0  0  0  0  0  0  0  0  0  0  0
    1.4797   -8.6258   16.2950 C   0  0  0  0  0  0  0  0  0  0  0  0
    9.2861   -1.2743   25.3585 C   0  0  0  0  0  0  0  0  0  0  0  0
    1.8892  -10.3985   17.7511 N   0  0  0  0  0  0  0  0  0  0  0  0
    9.6210   -0.6952   24.0976 C   0  0  0  0  0  0  0  0  0  0  0  0
    7.0792   -9.0217   17.1429 C   0  0  0  0  0  0  0  0  0  0  0  0
    3.1713  -10.1816   17.6634 C   0  0  0  0  0  0  0  0  0  0  0  0
    2.7878   -8.3822   16.2137 C   0  0  0  0  0  0  0  0  0  0  0  0
    9.4601   -2.6590   25.6528 C   0  0  0  0  0  0  0  0  0  0  0  0
   10.1182   -1.5672   23.1165 C   0  0  0  0  0  0  0  0  0  0  0  0
    1.0552   -9.6360   17.0650 C   0  0  0  0  0  0  0  0  0  0  0  0
    3.6519   -9.1783   16.9039 C   0  0  0  0  0  0  0  0  0  0  0  0
    7.8675   -7.0096   15.9415 C   0  0  0  0  0  0  0  0  0  0  0  0
    5.9733   -9.6553   17.3832 N   0  0  0  0  0  0  0  0  0  0  0  0
   10.2411   -2.9363   23.4301 C   0  0  0  0  0  0  0  0  0  0  0  0
   10.7288   -3.8197   19.9525 C   0  0  0  0  0  0  0  0  0  0  0  0
   10.1189   -5.0054   19.6987 C   0  0  0  0  0  0  0  0  0  0  0  0
  1  3  4  0
  1  7  4  0
  2 21  4  0
  2 27  4  0
  3  9  4  0
  3 10  4  0
  4  8  4  0
  4 18  4  0
  4 25  1  0
  5  9  4  0
  5 12  4  0
  6 13  1  0
  6 27  1  0
  7 28  4  0
  8 11  4  0
  9 29  4  0
 10 12  4  0
 11 24  1  0
 11 26  4  0
 12 25  1  0
 13 28  1  0
 14 20  4  0
 14 23  4  0
 15 17  4  0
 15 21  4  0
 16 19  4  0
 16 23  4  0
 17 22  4  0
 18 26  4  0
 19 24  4  0
 20 24  4  0
 22 27  4  0
 28 29  4  0
M  END
$$$$

 Created by Python create_sdf_string function

 29 33  0  0  0  0  0  0  0  0999 V2000
   10.7215   -3.3326   17.6437 C   0  0  0  0  0  0  0  0  0  0  0  0
    9.9489   -3.4675   24.6487 N   0  0  0  0  0  0  0  0  0  0  0  0
   10.0172   -4.4740   17.4101 C   0  0  0  0  0  0  0  0  0  0  0  0
    6.9051   -7.9575   16.4222 C   0  0  0  0  0  0  0  0  0  0  0  0
    8.9969   -6.3552   17.9668 N   0  0  0  0  0  0  0  0  0  0  0  0
   10.6702   -3.9051   22.4070 C   0  0  0  0  0  0  0  0  0  0  0  0
   11.0625   -3.0028   18.8894 C   0  0  0  0  0  0  0  0  0  0  0  0
    5.6180   -7.9194   16.1754 O   0  0  0  0  0  0  0  0  0  0  0  0
    9.7259   -5.3080   18.4485 C   0  0  0  0  0  0  0  0  0  0  0  0
    9.4578   -5.0200   16.3036 N   0  0  0  0  0  0  0  0  0  0  0  0
    5.0287   -8.9365   16.8223 C   0  0  0  0  0  0  0  0  0  0  0  0
    8.7742   -6.1498   16.6764 C   0  0  0  0  0  0  0  0  0  0  0  0
   10.9418   -3.4032   21.2053 O   0  0  0  0  0  0  0  0  0  0  0  0
    1.4797   -8.6258   16.2950 C   0  0  0  0  0  0  0  0  0  0  0  0
    9.2861   -1.2743   25.3585 C   0  0  0  0  0  0  0  0  0  0  0  0
    1.8892  -10.3985   17.7511 N   0  0  0  0  0  0  0  0  0  0  0  0
    9.6210   -0.6952   24.0976 C   0  0  0  0  0  0  0  0  0  0  0  0
    7.0792   -9.0217   17.1429 C   0  0  0  0  0  0  0  0  0  0  0  0
    3.1713  -10.1816   17.6634 C   0  0  0  0  0  0  0  0  0  0  0  0
    2.7878   -8.3822   16.2137 C   0  0  0  0  0  0  0  0  0  0  0  0
    9.4601   -2.6590   25.6528 C   0  0  0  0  0  0  0  0  0  0  0  0
   10.1182   -1.5672   23.1165 C   0  0  0  0  0  0  0  0  0  0  0  0
    1.0552   -9.6360   17.0650 C   0  0  0  0  0  0  0  0  0  0  0  0
    3.6519   -9.1783   16.9039 C   0  0  0  0  0  0  0  0  0  0  0  0
    7.8675   -7.0096   15.9415 C   0  0  0  0  0  0  0  0  0  0  0  0
    5.9733   -9.6553   17.3832 N   0  0  0  0  0  0  0  0  0  0  0  0
   10.2411   -2.9363   23.4301 C   0  0  0  0  0  0  0  0  0  0  0  0
   10.7288   -3.8197   19.9525 C   0  0  0  0  0  0  0  0  0  0  0  0
   10.1189   -5.0054   19.6987 C   0  0  0  0  0  0  0  0  0  0  0  0
  1  3  4  0
  1  7  4  0
  2 21  4  0
  2 27  4  0
  3  9  4  0
  3 10  4  0
  4  8  4  0
  4 18  4  0
  4 25  1  0
  5  9  4  0
  5 12  4  0
  6 13  1  0
  6 27  1  0
  7 28  4  0
  8 11  4  0
  9 29  4  0
 10 12  4  0
 11 24  1  0
 11 26  4  0
 12 25  1  0
 13 28  1  0
 14 20  4  0
 14 23  4  0
 15 17  4  0
 15 21  4  0
 16 19  4  0
 16 23  4  0
 17 22  4  0
 18 26  4  0
 19 24  4  0
 20 24  4  0
 22 27  4  0
 28 29  4  0
M  END
$$$$

 Created by Python create_sdf_string function

 29 33  0  0  0  0  0  0  0  0999 V2000
   10.7215   -3.3326   17.6437 C   0  0  0  0  0  0  0  0  0  0  0  0
    9.9489   -3.4675   24.6487 N   0  0  0  0  0  0  0  0  0  0  0  0
   10.0172   -4.4740   17.4101 C   0  0  0  0  0  0  0  0  0  0  0  0
    6.9051   -7.9575   16.4222 C   0  0  0  0  0  0  0  0  0  0  0  0
    8.9969   -6.3552   17.9668 N   0  0  0  0  0  0  0  0  0  0  0  0
   10.6702   -3.9051   22.4070 C   0  0  0  0  0  0  0  0  0  0  0  0
   11.0625   -3.0028   18.8894 C   0  0  0  0  0  0  0  0  0  0  0  0
    5.6180   -7.9194   16.1754 O   0  0  0  0  0  0  0  0  0  0  0  0
    9.7259   -5.3080   18.4485 C   0  0  0  0  0  0  0  0  0  0  0  0
    9.4578   -5.0200   16.3036 N   0  0  0  0  0  0  0  0  0  0  0  0
    5.0287   -8.9365   16.8223 C   0  0  0  0  0  0  0  0  0  0  0  0
    8.7742   -6.1498   16.6764 C   0  0  0  0  0  0  0  0  0  0  0  0
   10.9418   -3.4032   21.2053 O   0  0  0  0  0  0  0  0  0  0  0  0
    1.4797   -8.6258   16.2950 C   0  0  0  0  0  0  0  0  0  0  0  0
    9.2861   -1.2743   25.3585 C   0  0  0  0  0  0  0  0  0  0  0  0
    1.8892  -10.3985   17.7511 N   0  0  0  0  0  0  0  0  0  0  0  0
    9.6210   -0.6952   24.0976 C   0  0  0  0  0  0  0  0  0  0  0  0
    7.0792   -9.0217   17.1429 C   0  0  0  0  0  0  0  0  0  0  0  0
    3.1713  -10.1816   17.6634 C   0  0  0  0  0  0  0  0  0  0  0  0
    2.7878   -8.3822   16.2137 C   0  0  0  0  0  0  0  0  0  0  0  0
    9.4601   -2.6590   25.6528 C   0  0  0  0  0  0  0  0  0  0  0  0
   10.1182   -1.5672   23.1165 C   0  0  0  0  0  0  0  0  0  0  0  0
    1.0552   -9.6360   17.0650 C   0  0  0  0  0  0  0  0  0  0  0  0
    3.6519   -9.1783   16.9039 C   0  0  0  0  0  0  0  0  0  0  0  0
    7.8675   -7.0096   15.9415 C   0  0  0  0  0  0  0  0  0  0  0  0
    5.9733   -9.6553   17.3832 N   0  0  0  0  0  0  0  0  0  0  0  0
   10.2411   -2.9363   23.4301 C   0  0  0  0  0  0  0  0  0  0  0  0
   10.7288   -3.8197   19.9525 C   0  0  0  0  0  0  0  0  0  0  0  0
   10.1189   -5.0054   19.6987 C   0  0  0  0  0  0  0  0  0  0  0  0
  1  3  4  0
  1  7  4  0
  2 21  4  0
  2 27  4  0
  3  9  4  0
  3 10  4  0
  4  8  4  0
  4 18  4  0
  4 25  1  0
  5  9  4  0
  5 12  4  0
  6 13  1  0
  6 27  1  0
  7 28  4  0
  8 11  4  0
  9 29  4  0
 10 12  4  0
 11 24  1  0
 11 26  4  0
 12 25  1  0
 13 28  1  0
 14 20  4  0
 14 23  4  0
 15 17  4  0
 15 21  4  0
 16 19  4  0
 16 23  4  0
 17 22  4  0
 18 26  4  0
 19 24  4  0
 20 24  4  0
 22 27  4  0
 28 29  4  0
M  END
$$$$

 Created by Python create_sdf_string function

 29 33  0  0  0  0  0  0  0  0999 V2000
   10.7215   -3.3326   17.6437 C   0  0  0  0  0  0  0  0  0  0  0  0
    9.9489   -3.4675   24.6487 N   0  0  0  0  0  0  0  0  0  0  0  0
   10.0172   -4.4740   17.4101 C   0  0  0  0  0  0  0  0  0  0  0  0
    6.9051   -7.9575   16.4222 C   0  0  0  0  0  0  0  0  0  0  0  0
    8.9969   -6.3552   17.9668 N   0  0  0  0  0  0  0  0  0  0  0  0
   10.6702   -3.9051   22.4070 C   0  0  0  0  0  0  0  0  0  0  0  0
   11.0625   -3.0028   18.8894 C   0  0  0  0  0  0  0  0  0  0  0  0
    5.6180   -7.9194   16.1754 O   0  0  0  0  0  0  0  0  0  0  0  0
    9.7259   -5.3080   18.4485 C   0  0  0  0  0  0  0  0  0  0  0  0
    9.4578   -5.0200   16.3036 N   0  0  0  0  0  0  0  0  0  0  0  0
    5.0287   -8.9365   16.8223 C   0  0  0  0  0  0  0  0  0  0  0  0
    8.7742   -6.1498   16.6764 C   0  0  0  0  0  0  0  0  0  0  0  0
   10.9418   -3.4032   21.2053 O   0  0  0  0  0  0  0  0  0  0  0  0
    1.4797   -8.6258   16.2950 C   0  0  0  0  0  0  0  0  0  0  0  0
    9.2861   -1.2743   25.3585 C   0  0  0  0  0  0  0  0  0  0  0  0
    1.8892  -10.3985   17.7511 N   0  0  0  0  0  0  0  0  0  0  0  0
    9.6210   -0.6952   24.0976 C   0  0  0  0  0  0  0  0  0  0  0  0
    7.0792   -9.0217   17.1429 C   0  0  0  0  0  0  0  0  0  0  0  0
    3.1713  -10.1816   17.6634 C   0  0  0  0  0  0  0  0  0  0  0  0
    2.7878   -8.3822   16.2137 C   0  0  0  0  0  0  0  0  0  0  0  0
    9.4601   -2.6590   25.6528 C   0  0  0  0  0  0  0  0  0  0  0  0
   10.1182   -1.5672   23.1165 C   0  0  0  0  0  0  0  0  0  0  0  0
    1.0552   -9.6360   17.0650 C   0  0  0  0  0  0  0  0  0  0  0  0
    3.6519   -9.1783   16.9039 C   0  0  0  0  0  0  0  0  0  0  0  0
    7.8675   -7.0096   15.9415 C   0  0  0  0  0  0  0  0  0  0  0  0
    5.9733   -9.6553   17.3832 N   0  0  0  0  0  0  0  0  0  0  0  0
   10.2411   -2.9363   23.4301 C   0  0  0  0  0  0  0  0  0  0  0  0
   10.7288   -3.8197   19.9525 C   0  0  0  0  0  0  0  0  0  0  0  0
   10.1189   -5.0054   19.6987 C   0  0  0  0  0  0  0  0  0  0  0  0
  1  3  4  0
  1  7  4  0
  2 21  4  0
  2 27  4  0
  3  9  4  0
  3 10  4  0
  4  8  4  0
  4 18  4  0
  4 25  1  0
  5  9  4  0
  5 12  4  0
  6 13  1  0
  6 27  1  0
  7 28  4  0
  8 11  4  0
  9 29  4  0
 10 12  4  0
 11 24  1  0
 11 26  4  0
 12 25  1  0
 13 28  1  0
 14 20  4  0
 14 23  4  0
 15 17  4  0
 15 21  4  0
 16 19  4  0
 16 23  4  0
 17 22  4  0
 18 26  4  0
 19 24  4  0
 20 24  4  0
 22 27  4  0
 28 29  4  0
M  END
$$$$

 Created by Python create_sdf_string function

 29 33  0  0  0  0  0  0  0  0999 V2000
   10.7215   -3.3326   17.6437 C   0  0  0  0  0  0  0  0  0  0  0  0
    9.9489   -3.4675   24.6487 N   0  0  0  0  0  0  0  0  0  0  0  0
   10.0172   -4.4740   17.4101 C   0  0  0  0  0  0  0  0  0  0  0  0
    6.9051   -7.9575   16.4222 C   0  0  0  0  0  0  0  0  0  0  0  0
    8.9969   -6.3552   17.9668 N   0  0  0  0  0  0  0  0  0  0  0  0
   10.6702   -3.9051   22.4070 C   0  0  0  0  0  0  0  0  0  0  0  0
   11.0625   -3.0028   18.8894 C   0  0  0  0  0  0  0  0  0  0  0  0
    5.6180   -7.9194   16.1754 O   0  0  0  0  0  0  0  0  0  0  0  0
    9.7259   -5.3080   18.4485 C   0  0  0  0  0  0  0  0  0  0  0  0
    9.4578   -5.0200   16.3036 N   0  0  0  0  0  0  0  0  0  0  0  0
    5.0287   -8.9365   16.8223 C   0  0  0  0  0  0  0  0  0  0  0  0
    8.7742   -6.1498   16.6764 C   0  0  0  0  0  0  0  0  0  0  0  0
   10.9418   -3.4032   21.2053 O   0  0  0  0  0  0  0  0  0  0  0  0
    1.4797   -8.6258   16.2950 C   0  0  0  0  0  0  0  0  0  0  0  0
    9.2861   -1.2743   25.3585 C   0  0  0  0  0  0  0  0  0  0  0  0
    1.8892  -10.3985   17.7511 N   0  0  0  0  0  0  0  0  0  0  0  0
    9.6210   -0.6952   24.0976 C   0  0  0  0  0  0  0  0  0  0  0  0
    7.0792   -9.0217   17.1429 C   0  0  0  0  0  0  0  0  0  0  0  0
    3.1713  -10.1816   17.6634 C   0  0  0  0  0  0  0  0  0  0  0  0
    2.7878   -8.3822   16.2137 C   0  0  0  0  0  0  0  0  0  0  0  0
    9.4601   -2.6590   25.6528 C   0  0  0  0  0  0  0  0  0  0  0  0
   10.1182   -1.5672   23.1165 C   0  0  0  0  0  0  0  0  0  0  0  0
    1.0552   -9.6360   17.0650 C   0  0  0  0  0  0  0  0  0  0  0  0
    3.6519   -9.1783   16.9039 C   0  0  0  0  0  0  0  0  0  0  0  0
    7.8675   -7.0096   15.9415 C   0  0  0  0  0  0  0  0  0  0  0  0
    5.9733   -9.6553   17.3832 N   0  0  0  0  0  0  0  0  0  0  0  0
   10.2411   -2.9363   23.4301 C   0  0  0  0  0  0  0  0  0  0  0  0
   10.7288   -3.8197   19.9525 C   0  0  0  0  0  0  0  0  0  0  0  0
   10.1189   -5.0054   19.6987 C   0  0  0  0  0  0  0  0  0  0  0  0
  1  3  4  0
  1  7  4  0
  2 21  4  0
  2 27  4  0
  3  9  4  0
  3 10  4  0
  4  8  4  0
  4 18  4  0
  4 25  1  0
  5  9  4  0
  5 12  4  0
  6 13  1  0
  6 27  1  0
  7 28  4  0
  8 11  4  0
  9 29  4  0
 10 12  4  0
 11 24  1  0
 11 26  4  0
 12 25  1  0
 13 28  1  0
 14 20  4  0
 14 23  4  0
 15 17  4  0
 15 21  4  0
 16 19  4  0
 16 23  4  0
 17 22  4  0
 18 26  4  0
 19 24  4  0
 20 24  4  0
 22 27  4  0
 28 29  4  0
M  END
$$$$

 Created by Python create_sdf_string function

 29 33  0  0  0  0  0  0  0  0999 V2000
   10.7215   -3.3326   17.6437 C   0  0  0  0  0  0  0  0  0  0  0  0
    9.9489   -3.4675   24.6487 N   0  0  0  0  0  0  0  0  0  0  0  0
   10.0172   -4.4740   17.4101 C   0  0  0  0  0  0  0  0  0  0  0  0
    6.9051   -7.9575   16.4222 C   0  0  0  0  0  0  0  0  0  0  0  0
    8.9969   -6.3552   17.9668 N   0  0  0  0  0  0  0  0  0  0  0  0
   10.6702   -3.9051   22.4070 C   0  0  0  0  0  0  0  0  0  0  0  0
   11.0625   -3.0028   18.8894 C   0  0  0  0  0  0  0  0  0  0  0  0
    5.6180   -7.9194   16.1754 O   0  0  0  0  0  0  0  0  0  0  0  0
    9.7259   -5.3080   18.4485 C   0  0  0  0  0  0  0  0  0  0  0  0
    9.4578   -5.0200   16.3036 N   0  0  0  0  0  0  0  0  0  0  0  0
    5.0287   -8.9365   16.8223 C   0  0  0  0  0  0  0  0  0  0  0  0
    8.7742   -6.1498   16.6764 C   0  0  0  0  0  0  0  0  0  0  0  0
   10.9418   -3.4032   21.2053 O   0  0  0  0  0  0  0  0  0  0  0  0
    1.4797   -8.6258   16.2950 C   0  0  0  0  0  0  0  0  0  0  0  0
    9.2861   -1.2743   25.3585 C   0  0  0  0  0  0  0  0  0  0  0  0
    1.8892  -10.3985   17.7511 N   0  0  0  0  0  0  0  0  0  0  0  0
    9.6210   -0.6952   24.0976 C   0  0  0  0  0  0  0  0  0  0  0  0
    7.0792   -9.0217   17.1429 C   0  0  0  0  0  0  0  0  0  0  0  0
    3.1713  -10.1816   17.6634 C   0  0  0  0  0  0  0  0  0  0  0  0
    2.7878   -8.3822   16.2137 C   0  0  0  0  0  0  0  0  0  0  0  0
    9.4601   -2.6590   25.6528 C   0  0  0  0  0  0  0  0  0  0  0  0
   10.1182   -1.5672   23.1165 C   0  0  0  0  0  0  0  0  0  0  0  0
    1.0552   -9.6360   17.0650 C   0  0  0  0  0  0  0  0  0  0  0  0
    3.6519   -9.1783   16.9039 C   0  0  0  0  0  0  0  0  0  0  0  0
    7.8675   -7.0096   15.9415 C   0  0  0  0  0  0  0  0  0  0  0  0
    5.9733   -9.6553   17.3832 N   0  0  0  0  0  0  0  0  0  0  0  0
   10.2411   -2.9363   23.4301 C   0  0  0  0  0  0  0  0  0  0  0  0
   10.7288   -3.8197   19.9525 C   0  0  0  0  0  0  0  0  0  0  0  0
   10.1189   -5.0054   19.6987 C   0  0  0  0  0  0  0  0  0  0  0  0
  1  3  4  0
  1  7  4  0
  2 21  4  0
  2 27  4  0
  3  9  4  0
  3 10  4  0
  4  8  4  0
  4 18  4  0
  4 25  1  0
  5  9  4  0
  5 12  4  0
  6 13  1  0
  6 27  1  0
  7 28  4  0
  8 11  4  0
  9 29  4  0
 10 12  4  0
 11 24  1  0
 11 26  4  0
 12 25  1  0
 13 28  1  0
 14 20  4  0
 14 23  4  0
 15 17  4  0
 15 21  4  0
 16 19  4  0
 16 23  4  0
 17 22  4  0
 18 26  4  0
 19 24  4  0
 20 24  4  0
 22 27  4  0
 28 29  4  0
M  END
$$$$

 Created by Python create_sdf_string function

 29 33  0  0  0  0  0  0  0  0999 V2000
   10.7215   -3.3326   17.6437 C   0  0  0  0  0  0  0  0  0  0  0  0
    9.9489   -3.4675   24.6487 N   0  0  0  0  0  0  0  0  0  0  0  0
   10.0172   -4.4740   17.4101 C   0  0  0  0  0  0  0  0  0  0  0  0
    6.9051   -7.9575   16.4222 C   0  0  0  0  0  0  0  0  0  0  0  0
    8.9969   -6.3552   17.9668 N   0  0  0  0  0  0  0  0  0  0  0  0
   10.6702   -3.9051   22.4070 C   0  0  0  0  0  0  0  0  0  0  0  0
   11.0625   -3.0028   18.8894 C   0  0  0  0  0  0  0  0  0  0  0  0
    5.6180   -7.9194   16.1754 O   0  0  0  0  0  0  0  0  0  0  0  0
    9.7259   -5.3080   18.4485 C   0  0  0  0  0  0  0  0  0  0  0  0
    9.4578   -5.0200   16.3036 N   0  0  0  0  0  0  0  0  0  0  0  0
    5.0287   -8.9365   16.8223 C   0  0  0  0  0  0  0  0  0  0  0  0
    8.7742   -6.1498   16.6764 C   0  0  0  0  0  0  0  0  0  0  0  0
   10.9418   -3.4032   21.2053 O   0  0  0  0  0  0  0  0  0  0  0  0
    1.4797   -8.6258   16.2950 C   0  0  0  0  0  0  0  0  0  0  0  0
    9.2861   -1.2743   25.3585 C   0  0  0  0  0  0  0  0  0  0  0  0
    1.8892  -10.3985   17.7511 N   0  0  0  0  0  0  0  0  0  0  0  0
    9.6210   -0.6952   24.0976 C   0  0  0  0  0  0  0  0  0  0  0  0
    7.0792   -9.0217   17.1429 C   0  0  0  0  0  0  0  0  0  0  0  0
    3.1713  -10.1816   17.6634 C   0  0  0  0  0  0  0  0  0  0  0  0
    2.7878   -8.3822   16.2137 C   0  0  0  0  0  0  0  0  0  0  0  0
    9.4601   -2.6590   25.6528 C   0  0  0  0  0  0  0  0  0  0  0  0
   10.1182   -1.5672   23.1165 C   0  0  0  0  0  0  0  0  0  0  0  0
    1.0552   -9.6360   17.0650 C   0  0  0  0  0  0  0  0  0  0  0  0
    3.6519   -9.1783   16.9039 C   0  0  0  0  0  0  0  0  0  0  0  0
    7.8675   -7.0096   15.9415 C   0  0  0  0  0  0  0  0  0  0  0  0
    5.9733   -9.6553   17.3832 N   0  0  0  0  0  0  0  0  0  0  0  0
   10.2411   -2.9363   23.4301 C   0  0  0  0  0  0  0  0  0  0  0  0
   10.7288   -3.8197   19.9525 C   0  0  0  0  0  0  0  0  0  0  0  0
   10.1189   -5.0054   19.6987 C   0  0  0  0  0  0  0  0  0  0  0  0
  1  3  4  0
  1  7  4  0
  2 21  4  0
  2 27  4  0
  3  9  4  0
  3 10  4  0
  4  8  4  0
  4 18  4  0
  4 25  1  0
  5  9  4  0
  5 12  4  0
  6 13  1  0
  6 27  1  0
  7 28  4  0
  8 11  4  0
  9 29  4  0
 10 12  4  0
 11 24  1  0
 11 26  4  0
 12 25  1  0
 13 28  1  0
 14 20  4  0
 14 23  4  0
 15 17  4  0
 15 21  4  0
 16 19  4  0
 16 23  4  0
 17 22  4  0
 18 26  4  0
 19 24  4  0
 20 24  4  0
 22 27  4  0
 28 29  4  0
M  END
$$$$

 Created by Python create_sdf_string function

 29 33  0  0  0  0  0  0  0  0999 V2000
   10.7215   -3.3326   17.6437 C   0  0  0  0  0  0  0  0  0  0  0  0
    9.9489   -3.4675   24.6487 N   0  0  0  0  0  0  0  0  0  0  0  0
   10.0172   -4.4740   17.4101 C   0  0  0  0  0  0  0  0  0  0  0  0
    6.9051   -7.9575   16.4222 C   0  0  0  0  0  0  0  0  0  0  0  0
    8.9969   -6.3552   17.9668 N   0  0  0  0  0  0  0  0  0  0  0  0
   10.6702   -3.9051   22.4070 C   0  0  0  0  0  0  0  0  0  0  0  0
   11.0625   -3.0028   18.8894 C   0  0  0  0  0  0  0  0  0  0  0  0
    5.6180   -7.9194   16.1754 O   0  0  0  0  0  0  0  0  0  0  0  0
    9.7259   -5.3080   18.4485 C   0  0  0  0  0  0  0  0  0  0  0  0
    9.4578   -5.0200   16.3036 N   0  0  0  0  0  0  0  0  0  0  0  0
    5.0287   -8.9365   16.8223 C   0  0  0  0  0  0  0  0  0  0  0  0
    8.7742   -6.1498   16.6764 C   0  0  0  0  0  0  0  0  0  0  0  0
   10.9418   -3.4032   21.2053 O   0  0  0  0  0  0  0  0  0  0  0  0
    1.4797   -8.6258   16.2950 C   0  0  0  0  0  0  0  0  0  0  0  0
    9.2861   -1.2743   25.3585 C   0  0  0  0  0  0  0  0  0  0  0  0
    1.8892  -10.3985   17.7511 N   0  0  0  0  0  0  0  0  0  0  0  0
    9.6210   -0.6952   24.0976 C   0  0  0  0  0  0  0  0  0  0  0  0
    7.0792   -9.0217   17.1429 C   0  0  0  0  0  0  0  0  0  0  0  0
    3.1713  -10.1816   17.6634 C   0  0  0  0  0  0  0  0  0  0  0  0
    2.7878   -8.3822   16.2137 C   0  0  0  0  0  0  0  0  0  0  0  0
    9.4601   -2.6590   25.6528 C   0  0  0  0  0  0  0  0  0  0  0  0
   10.1182   -1.5672   23.1165 C   0  0  0  0  0  0  0  0  0  0  0  0
    1.0552   -9.6360   17.0650 C   0  0  0  0  0  0  0  0  0  0  0  0
    3.6519   -9.1783   16.9039 C   0  0  0  0  0  0  0  0  0  0  0  0
    7.8675   -7.0096   15.9415 C   0  0  0  0  0  0  0  0  0  0  0  0
    5.9733   -9.6553   17.3832 N   0  0  0  0  0  0  0  0  0  0  0  0
   10.2411   -2.9363   23.4301 C   0  0  0  0  0  0  0  0  0  0  0  0
   10.7288   -3.8197   19.9525 C   0  0  0  0  0  0  0  0  0  0  0  0
   10.1189   -5.0054   19.6987 C   0  0  0  0  0  0  0  0  0  0  0  0
  1  3  4  0
  1  7  4  0
  2 21  4  0
  2 27  4  0
  3  9  4  0
  3 10  4  0
  4  8  4  0
  4 18  4  0
  4 25  1  0
  5  9  4  0
  5 12  4  0
  6 13  1  0
  6 27  1  0
  7 28  4  0
  8 11  4  0
  9 29  4  0
 10 12  4  0
 11 24  1  0
 11 26  4  0
 12 25  1  0
 13 28  1  0
 14 20  4  0
 14 23  4  0
 15 17  4  0
 15 21  4  0
 16 19  4  0
 16 23  4  0
 17 22  4  0
 18 26  4  0
 19 24  4  0
 20 24  4  0
 22 27  4  0
 28 29  4  0
M  END
$$$$

 Created by Python create_sdf_string function

 29 33  0  0  0  0  0  0  0  0999 V2000
   10.7215   -3.3326   17.6437 C   0  0  0  0  0  0  0  0  0  0  0  0
    9.9489   -3.4675   24.6487 N   0  0  0  0  0  0  0  0  0  0  0  0
   10.0172   -4.4740   17.4101 C   0  0  0  0  0  0  0  0  0  0  0  0
    6.9051   -7.9575   16.4222 C   0  0  0  0  0  0  0  0  0  0  0  0
    8.9969   -6.3552   17.9668 N   0  0  0  0  0  0  0  0  0  0  0  0
   10.6702   -3.9051   22.4070 C   0  0  0  0  0  0  0  0  0  0  0  0
   11.0625   -3.0028   18.8894 C   0  0  0  0  0  0  0  0  0  0  0  0
    5.6180   -7.9194   16.1754 O   0  0  0  0  0  0  0  0  0  0  0  0
    9.7259   -5.3080   18.4485 C   0  0  0  0  0  0  0  0  0  0  0  0
    9.4578   -5.0200   16.3036 N   0  0  0  0  0  0  0  0  0  0  0  0
    5.0287   -8.9365   16.8223 C   0  0  0  0  0  0  0  0  0  0  0  0
    8.7742   -6.1498   16.6764 C   0  0  0  0  0  0  0  0  0  0  0  0
   10.9418   -3.4032   21.2053 O   0  0  0  0  0  0  0  0  0  0  0  0
    1.4797   -8.6258   16.2950 C   0  0  0  0  0  0  0  0  0  0  0  0
    9.2861   -1.2743   25.3585 C   0  0  0  0  0  0  0  0  0  0  0  0
    1.8892  -10.3985   17.7511 N   0  0  0  0  0  0  0  0  0  0  0  0
    9.6210   -0.6952   24.0976 C   0  0  0  0  0  0  0  0  0  0  0  0
    7.0792   -9.0217   17.1429 C   0  0  0  0  0  0  0  0  0  0  0  0
    3.1713  -10.1816   17.6634 C   0  0  0  0  0  0  0  0  0  0  0  0
    2.7878   -8.3822   16.2137 C   0  0  0  0  0  0  0  0  0  0  0  0
    9.4601   -2.6590   25.6528 C   0  0  0  0  0  0  0  0  0  0  0  0
   10.1182   -1.5672   23.1165 C   0  0  0  0  0  0  0  0  0  0  0  0
    1.0552   -9.6360   17.0650 C   0  0  0  0  0  0  0  0  0  0  0  0
    3.6519   -9.1783   16.9039 C   0  0  0  0  0  0  0  0  0  0  0  0
    7.8675   -7.0096   15.9415 C   0  0  0  0  0  0  0  0  0  0  0  0
    5.9733   -9.6553   17.3832 N   0  0  0  0  0  0  0  0  0  0  0  0
   10.2411   -2.9363   23.4301 C   0  0  0  0  0  0  0  0  0  0  0  0
   10.7288   -3.8197   19.9525 C   0  0  0  0  0  0  0  0  0  0  0  0
   10.1189   -5.0054   19.6987 C   0  0  0  0  0  0  0  0  0  0  0  0
  1  3  4  0
  1  7  4  0
  2 21  4  0
  2 27  4  0
  3  9  4  0
  3 10  4  0
  4  8  4  0
  4 18  4  0
  4 25  1  0
  5  9  4  0
  5 12  4  0
  6 13  1  0
  6 27  1  0
  7 28  4  0
  8 11  4  0
  9 29  4  0
 10 12  4  0
 11 24  1  0
 11 26  4  0
 12 25  1  0
 13 28  1  0
 14 20  4  0
 14 23  4  0
 15 17  4  0
 15 21  4  0
 16 19  4  0
 16 23  4  0
 17 22  4  0
 18 26  4  0
 19 24  4  0
 20 24  4  0
 22 27  4  0
 28 29  4  0
M  END
$$$$

 Created by Python create_sdf_string function

 29 33  0  0  0  0  0  0  0  0999 V2000
   10.7215   -3.3326   17.6437 C   0  0  0  0  0  0  0  0  0  0  0  0
    9.9489   -3.4675   24.6487 N   0  0  0  0  0  0  0  0  0  0  0  0
   10.0172   -4.4740   17.4101 C   0  0  0  0  0  0  0  0  0  0  0  0
    6.9051   -7.9575   16.4222 C   0  0  0  0  0  0  0  0  0  0  0  0
    8.9969   -6.3552   17.9668 N   0  0  0  0  0  0  0  0  0  0  0  0
   10.6702   -3.9051   22.4070 C   0  0  0  0  0  0  0  0  0  0  0  0
   11.0625   -3.0028   18.8894 C   0  0  0  0  0  0  0  0  0  0  0  0
    5.6180   -7.9194   16.1754 O   0  0  0  0  0  0  0  0  0  0  0  0
    9.7259   -5.3080   18.4485 C   0  0  0  0  0  0  0  0  0  0  0  0
    9.4578   -5.0200   16.3036 N   0  0  0  0  0  0  0  0  0  0  0  0
    5.0287   -8.9365   16.8223 C   0  0  0  0  0  0  0  0  0  0  0  0
    8.7742   -6.1498   16.6764 C   0  0  0  0  0  0  0  0  0  0  0  0
   10.9418   -3.4032   21.2053 O   0  0  0  0  0  0  0  0  0  0  0  0
    1.4797   -8.6258   16.2950 C   0  0  0  0  0  0  0  0  0  0  0  0
    9.2861   -1.2743   25.3585 C   0  0  0  0  0  0  0  0  0  0  0  0
    1.8892  -10.3985   17.7511 N   0  0  0  0  0  0  0  0  0  0  0  0
    9.6210   -0.6952   24.0976 C   0  0  0  0  0  0  0  0  0  0  0  0
    7.0792   -9.0217   17.1429 C   0  0  0  0  0  0  0  0  0  0  0  0
    3.1713  -10.1816   17.6634 C   0  0  0  0  0  0  0  0  0  0  0  0
    2.7878   -8.3822   16.2137 C   0  0  0  0  0  0  0  0  0  0  0  0
    9.4601   -2.6590   25.6528 C   0  0  0  0  0  0  0  0  0  0  0  0
   10.1182   -1.5672   23.1165 C   0  0  0  0  0  0  0  0  0  0  0  0
    1.0552   -9.6360   17.0650 C   0  0  0  0  0  0  0  0  0  0  0  0
    3.6519   -9.1783   16.9039 C   0  0  0  0  0  0  0  0  0  0  0  0
    7.8675   -7.0096   15.9415 C   0  0  0  0  0  0  0  0  0  0  0  0
    5.9733   -9.6553   17.3832 N   0  0  0  0  0  0  0  0  0  0  0  0
   10.2411   -2.9363   23.4301 C   0  0  0  0  0  0  0  0  0  0  0  0
   10.7288   -3.8197   19.9525 C   0  0  0  0  0  0  0  0  0  0  0  0
   10.1189   -5.0054   19.6987 C   0  0  0  0  0  0  0  0  0  0  0  0
  1  3  4  0
  1  7  4  0
  2 21  4  0
  2 27  4  0
  3  9  4  0
  3 10  4  0
  4  8  4  0
  4 18  4  0
  4 25  1  0
  5  9  4  0
  5 12  4  0
  6 13  1  0
  6 27  1  0
  7 28  4  0
  8 11  4  0
  9 29  4  0
 10 12  4  0
 11 24  1  0
 11 26  4  0
 12 25  1  0
 13 28  1  0
 14 20  4  0
 14 23  4  0
 15 17  4  0
 15 21  4  0
 16 19  4  0
 16 23  4  0
 17 22  4  0
 18 26  4  0
 19 24  4  0
 20 24  4  0
 22 27  4  0
 28 29  4  0
M  END
$$$$

 Created by Python create_sdf_string function

 29 33  0  0  0  0  0  0  0  0999 V2000
   10.7215   -3.3326   17.6437 C   0  0  0  0  0  0  0  0  0  0  0  0
    9.9489   -3.4675   24.6487 N   0  0  0  0  0  0  0  0  0  0  0  0
   10.0172   -4.4740   17.4101 C   0  0  0  0  0  0  0  0  0  0  0  0
    6.9051   -7.9575   16.4222 C   0  0  0  0  0  0  0  0  0  0  0  0
    8.9969   -6.3552   17.9668 N   0  0  0  0  0  0  0  0  0  0  0  0
   10.6702   -3.9051   22.4070 C   0  0  0  0  0  0  0  0  0  0  0  0
   11.0625   -3.0028   18.8894 C   0  0  0  0  0  0  0  0  0  0  0  0
    5.6180   -7.9194   16.1754 O   0  0  0  0  0  0  0  0  0  0  0  0
    9.7259   -5.3080   18.4485 C   0  0  0  0  0  0  0  0  0  0  0  0
    9.4578   -5.0200   16.3036 N   0  0  0  0  0  0  0  0  0  0  0  0
    5.0287   -8.9365   16.8223 C   0  0  0  0  0  0  0  0  0  0  0  0
    8.7742   -6.1498   16.6764 C   0  0  0  0  0  0  0  0  0  0  0  0
   10.9418   -3.4032   21.2053 O   0  0  0  0  0  0  0  0  0  0  0  0
    1.4797   -8.6258   16.2950 C   0  0  0  0  0  0  0  0  0  0  0  0
    9.2861   -1.2743   25.3585 C   0  0  0  0  0  0  0  0  0  0  0  0
    1.8892  -10.3985   17.7511 N   0  0  0  0  0  0  0  0  0  0  0  0
    9.6210   -0.6952   24.0976 C   0  0  0  0  0  0  0  0  0  0  0  0
    7.0792   -9.0217   17.1429 C   0  0  0  0  0  0  0  0  0  0  0  0
    3.1713  -10.1816   17.6634 C   0  0  0  0  0  0  0  0  0  0  0  0
    2.7878   -8.3822   16.2137 C   0  0  0  0  0  0  0  0  0  0  0  0
    9.4601   -2.6590   25.6528 C   0  0  0  0  0  0  0  0  0  0  0  0
   10.1182   -1.5672   23.1165 C   0  0  0  0  0  0  0  0  0  0  0  0
    1.0552   -9.6360   17.0650 C   0  0  0  0  0  0  0  0  0  0  0  0
    3.6519   -9.1783   16.9039 C   0  0  0  0  0  0  0  0  0  0  0  0
    7.8675   -7.0096   15.9415 C   0  0  0  0  0  0  0  0  0  0  0  0
    5.9733   -9.6553   17.3832 N   0  0  0  0  0  0  0  0  0  0  0  0
   10.2411   -2.9363   23.4301 C   0  0  0  0  0  0  0  0  0  0  0  0
   10.7288   -3.8197   19.9525 C   0  0  0  0  0  0  0  0  0  0  0  0
   10.1189   -5.0054   19.6987 C   0  0  0  0  0  0  0  0  0  0  0  0
  1  3  4  0
  1  7  4  0
  2 21  4  0
  2 27  4  0
  3  9  4  0
  3 10  4  0
  4  8  4  0
  4 18  4  0
  4 25  1  0
  5  9  4  0
  5 12  4  0
  6 13  1  0
  6 27  1  0
  7 28  4  0
  8 11  4  0
  9 29  4  0
 10 12  4  0
 11 24  1  0
 11 26  4  0
 12 25  1  0
 13 28  1  0
 14 20  4  0
 14 23  4  0
 15 17  4  0
 15 21  4  0
 16 19  4  0
 16 23  4  0
 17 22  4  0
 18 26  4  0
 19 24  4  0
 20 24  4  0
 22 27  4  0
 28 29  4  0
M  END
$$$$

 Created by Python create_sdf_string function

 29 33  0  0  0  0  0  0  0  0999 V2000
   10.7215   -3.3326   17.6437 C   0  0  0  0  0  0  0  0  0  0  0  0
    9.9489   -3.4675   24.6487 N   0  0  0  0  0  0  0  0  0  0  0  0
   10.0172   -4.4740   17.4101 C   0  0  0  0  0  0  0  0  0  0  0  0
    6.9051   -7.9575   16.4222 C   0  0  0  0  0  0  0  0  0  0  0  0
    8.9969   -6.3552   17.9668 N   0  0  0  0  0  0  0  0  0  0  0  0
   10.6702   -3.9051   22.4070 C   0  0  0  0  0  0  0  0  0  0  0  0
   11.0625   -3.0028   18.8894 C   0  0  0  0  0  0  0  0  0  0  0  0
    5.6180   -7.9194   16.1754 O   0  0  0  0  0  0  0  0  0  0  0  0
    9.7259   -5.3080   18.4485 C   0  0  0  0  0  0  0  0  0  0  0  0
    9.4578   -5.0200   16.3036 N   0  0  0  0  0  0  0  0  0  0  0  0
    5.0287   -8.9365   16.8223 C   0  0  0  0  0  0  0  0  0  0  0  0
    8.7742   -6.1498   16.6764 C   0  0  0  0  0  0  0  0  0  0  0  0
   10.9418   -3.4032   21.2053 O   0  0  0  0  0  0  0  0  0  0  0  0
    1.4797   -8.6258   16.2950 C   0  0  0  0  0  0  0  0  0  0  0  0
    9.2861   -1.2743   25.3585 C   0  0  0  0  0  0  0  0  0  0  0  0
    1.8892  -10.3985   17.7511 N   0  0  0  0  0  0  0  0  0  0  0  0
    9.6210   -0.6952   24.0976 C   0  0  0  0  0  0  0  0  0  0  0  0
    7.0792   -9.0217   17.1429 C   0  0  0  0  0  0  0  0  0  0  0  0
    3.1713  -10.1816   17.6634 C   0  0  0  0  0  0  0  0  0  0  0  0
    2.7878   -8.3822   16.2137 C   0  0  0  0  0  0  0  0  0  0  0  0
    9.4601   -2.6590   25.6528 C   0  0  0  0  0  0  0  0  0  0  0  0
   10.1182   -1.5672   23.1165 C   0  0  0  0  0  0  0  0  0  0  0  0
    1.0552   -9.6360   17.0650 C   0  0  0  0  0  0  0  0  0  0  0  0
    3.6519   -9.1783   16.9039 C   0  0  0  0  0  0  0  0  0  0  0  0
    7.8675   -7.0096   15.9415 C   0  0  0  0  0  0  0  0  0  0  0  0
    5.9733   -9.6553   17.3832 N   0  0  0  0  0  0  0  0  0  0  0  0
   10.2411   -2.9363   23.4301 C   0  0  0  0  0  0  0  0  0  0  0  0
   10.7288   -3.8197   19.9525 C   0  0  0  0  0  0  0  0  0  0  0  0
   10.1189   -5.0054   19.6987 C   0  0  0  0  0  0  0  0  0  0  0  0
  1  3  4  0
  1  7  4  0
  2 21  4  0
  2 27  4  0
  3  9  4  0
  3 10  4  0
  4  8  4  0
  4 18  4  0
  4 25  1  0
  5  9  4  0
  5 12  4  0
  6 13  1  0
  6 27  1  0
  7 28  4  0
  8 11  4  0
  9 29  4  0
 10 12  4  0
 11 24  1  0
 11 26  4  0
 12 25  1  0
 13 28  1  0
 14 20  4  0
 14 23  4  0
 15 17  4  0
 15 21  4  0
 16 19  4  0
 16 23  4  0
 17 22  4  0
 18 26  4  0
 19 24  4  0
 20 24  4  0
 22 27  4  0
 28 29  4  0
M  END
$$$$

 Created by Python create_sdf_string function

 29 33  0  0  0  0  0  0  0  0999 V2000
   10.7215   -3.3326   17.6437 C   0  0  0  0  0  0  0  0  0  0  0  0
    9.9489   -3.4675   24.6487 N   0  0  0  0  0  0  0  0  0  0  0  0
   10.0172   -4.4740   17.4101 C   0  0  0  0  0  0  0  0  0  0  0  0
    6.9051   -7.9575   16.4222 C   0  0  0  0  0  0  0  0  0  0  0  0
    8.9969   -6.3552   17.9668 N   0  0  0  0  0  0  0  0  0  0  0  0
   10.6702   -3.9051   22.4070 C   0  0  0  0  0  0  0  0  0  0  0  0
   11.0625   -3.0028   18.8894 C   0  0  0  0  0  0  0  0  0  0  0  0
    5.6180   -7.9194   16.1754 O   0  0  0  0  0  0  0  0  0  0  0  0
    9.7259   -5.3080   18.4485 C   0  0  0  0  0  0  0  0  0  0  0  0
    9.4578   -5.0200   16.3036 N   0  0  0  0  0  0  0  0  0  0  0  0
    5.0287   -8.9365   16.8223 C   0  0  0  0  0  0  0  0  0  0  0  0
    8.7742   -6.1498   16.6764 C   0  0  0  0  0  0  0  0  0  0  0  0
   10.9418   -3.4032   21.2053 O   0  0  0  0  0  0  0  0  0  0  0  0
    1.4797   -8.6258   16.2950 C   0  0  0  0  0  0  0  0  0  0  0  0
    9.2861   -1.2743   25.3585 C   0  0  0  0  0  0  0  0  0  0  0  0
    1.8892  -10.3985   17.7511 N   0  0  0  0  0  0  0  0  0  0  0  0
    9.6210   -0.6952   24.0976 C   0  0  0  0  0  0  0  0  0  0  0  0
    7.0792   -9.0217   17.1429 C   0  0  0  0  0  0  0  0  0  0  0  0
    3.1713  -10.1816   17.6634 C   0  0  0  0  0  0  0  0  0  0  0  0
    2.7878   -8.3822   16.2137 C   0  0  0  0  0  0  0  0  0  0  0  0
    9.4601   -2.6590   25.6528 C   0  0  0  0  0  0  0  0  0  0  0  0
   10.1182   -1.5672   23.1165 C   0  0  0  0  0  0  0  0  0  0  0  0
    1.0552   -9.6360   17.0650 C   0  0  0  0  0  0  0  0  0  0  0  0
    3.6519   -9.1783   16.9039 C   0  0  0  0  0  0  0  0  0  0  0  0
    7.8675   -7.0096   15.9415 C   0  0  0  0  0  0  0  0  0  0  0  0
    5.9733   -9.6553   17.3832 N   0  0  0  0  0  0  0  0  0  0  0  0
   10.2411   -2.9363   23.4301 C   0  0  0  0  0  0  0  0  0  0  0  0
   10.7288   -3.8197   19.9525 C   0  0  0  0  0  0  0  0  0  0  0  0
   10.1189   -5.0054   19.6987 C   0  0  0  0  0  0  0  0  0  0  0  0
  1  3  4  0
  1  7  4  0
  2 21  4  0
  2 27  4  0
  3  9  4  0
  3 10  4  0
  4  8  4  0
  4 18  4  0
  4 25  1  0
  5  9  4  0
  5 12  4  0
  6 13  1  0
  6 27  1  0
  7 28  4  0
  8 11  4  0
  9 29  4  0
 10 12  4  0
 11 24  1  0
 11 26  4  0
 12 25  1  0
 13 28  1  0
 14 20  4  0
 14 23  4  0
 15 17  4  0
 15 21  4  0
 16 19  4  0
 16 23  4  0
 17 22  4  0
 18 26  4  0
 19 24  4  0
 20 24  4  0
 22 27  4  0
 28 29  4  0
M  END
$$$$

 Created by Python create_sdf_string function

 29 33  0  0  0  0  0  0  0  0999 V2000
   10.7215   -3.3326   17.6437 C   0  0  0  0  0  0  0  0  0  0  0  0
    9.9489   -3.4675   24.6487 N   0  0  0  0  0  0  0  0  0  0  0  0
   10.0172   -4.4740   17.4101 C   0  0  0  0  0  0  0  0  0  0  0  0
    6.9051   -7.9575   16.4222 C   0  0  0  0  0  0  0  0  0  0  0  0
    8.9969   -6.3552   17.9668 N   0  0  0  0  0  0  0  0  0  0  0  0
   10.6702   -3.9051   22.4070 C   0  0  0  0  0  0  0  0  0  0  0  0
   11.0625   -3.0028   18.8894 C   0  0  0  0  0  0  0  0  0  0  0  0
    5.6180   -7.9194   16.1754 O   0  0  0  0  0  0  0  0  0  0  0  0
    9.7259   -5.3080   18.4485 C   0  0  0  0  0  0  0  0  0  0  0  0
    9.4578   -5.0200   16.3036 N   0  0  0  0  0  0  0  0  0  0  0  0
    5.0287   -8.9365   16.8223 C   0  0  0  0  0  0  0  0  0  0  0  0
    8.7742   -6.1498   16.6764 C   0  0  0  0  0  0  0  0  0  0  0  0
   10.9418   -3.4032   21.2053 O   0  0  0  0  0  0  0  0  0  0  0  0
    1.4797   -8.6258   16.2950 C   0  0  0  0  0  0  0  0  0  0  0  0
    9.2861   -1.2743   25.3585 C   0  0  0  0  0  0  0  0  0  0  0  0
    1.8892  -10.3985   17.7511 N   0  0  0  0  0  0  0  0  0  0  0  0
    9.6210   -0.6952   24.0976 C   0  0  0  0  0  0  0  0  0  0  0  0
    7.0792   -9.0217   17.1429 C   0  0  0  0  0  0  0  0  0  0  0  0
    3.1713  -10.1816   17.6634 C   0  0  0  0  0  0  0  0  0  0  0  0
    2.7878   -8.3822   16.2137 C   0  0  0  0  0  0  0  0  0  0  0  0
    9.4601   -2.6590   25.6528 C   0  0  0  0  0  0  0  0  0  0  0  0
   10.1182   -1.5672   23.1165 C   0  0  0  0  0  0  0  0  0  0  0  0
    1.0552   -9.6360   17.0650 C   0  0  0  0  0  0  0  0  0  0  0  0
    3.6519   -9.1783   16.9039 C   0  0  0  0  0  0  0  0  0  0  0  0
    7.8675   -7.0096   15.9415 C   0  0  0  0  0  0  0  0  0  0  0  0
    5.9733   -9.6553   17.3832 N   0  0  0  0  0  0  0  0  0  0  0  0
   10.2411   -2.9363   23.4301 C   0  0  0  0  0  0  0  0  0  0  0  0
   10.7288   -3.8197   19.9525 C   0  0  0  0  0  0  0  0  0  0  0  0
   10.1189   -5.0054   19.6987 C   0  0  0  0  0  0  0  0  0  0  0  0
  1  3  4  0
  1  7  4  0
  2 21  4  0
  2 27  4  0
  3  9  4  0
  3 10  4  0
  4  8  4  0
  4 18  4  0
  4 25  1  0
  5  9  4  0
  5 12  4  0
  6 13  1  0
  6 27  1  0
  7 28  4  0
  8 11  4  0
  9 29  4  0
 10 12  4  0
 11 24  1  0
 11 26  4  0
 12 25  1  0
 13 28  1  0
 14 20  4  0
 14 23  4  0
 15 17  4  0
 15 21  4  0
 16 19  4  0
 16 23  4  0
 17 22  4  0
 18 26  4  0
 19 24  4  0
 20 24  4  0
 22 27  4  0
 28 29  4  0
M  END
$$$$

 Created by Python create_sdf_string function

 29 33  0  0  0  0  0  0  0  0999 V2000
   10.7215   -3.3326   17.6437 C   0  0  0  0  0  0  0  0  0  0  0  0
    9.9489   -3.4675   24.6487 N   0  0  0  0  0  0  0  0  0  0  0  0
   10.0172   -4.4740   17.4101 C   0  0  0  0  0  0  0  0  0  0  0  0
    6.9051   -7.9575   16.4222 C   0  0  0  0  0  0  0  0  0  0  0  0
    8.9969   -6.3552   17.9668 N   0  0  0  0  0  0  0  0  0  0  0  0
   10.6702   -3.9051   22.4070 C   0  0  0  0  0  0  0  0  0  0  0  0
   11.0625   -3.0028   18.8894 C   0  0  0  0  0  0  0  0  0  0  0  0
    5.6180   -7.9194   16.1754 O   0  0  0  0  0  0  0  0  0  0  0  0
    9.7259   -5.3080   18.4485 C   0  0  0  0  0  0  0  0  0  0  0  0
    9.4578   -5.0200   16.3036 N   0  0  0  0  0  0  0  0  0  0  0  0
    5.0287   -8.9365   16.8223 C   0  0  0  0  0  0  0  0  0  0  0  0
    8.7742   -6.1498   16.6764 C   0  0  0  0  0  0  0  0  0  0  0  0
   10.9418   -3.4032   21.2053 O   0  0  0  0  0  0  0  0  0  0  0  0
    1.4797   -8.6258   16.2950 C   0  0  0  0  0  0  0  0  0  0  0  0
    9.2861   -1.2743   25.3585 C   0  0  0  0  0  0  0  0  0  0  0  0
    1.8892  -10.3985   17.7511 N   0  0  0  0  0  0  0  0  0  0  0  0
    9.6210   -0.6952   24.0976 C   0  0  0  0  0  0  0  0  0  0  0  0
    7.0792   -9.0217   17.1429 C   0  0  0  0  0  0  0  0  0  0  0  0
    3.1713  -10.1816   17.6634 C   0  0  0  0  0  0  0  0  0  0  0  0
    2.7878   -8.3822   16.2137 C   0  0  0  0  0  0  0  0  0  0  0  0
    9.4601   -2.6590   25.6528 C   0  0  0  0  0  0  0  0  0  0  0  0
   10.1182   -1.5672   23.1165 C   0  0  0  0  0  0  0  0  0  0  0  0
    1.0552   -9.6360   17.0650 C   0  0  0  0  0  0  0  0  0  0  0  0
    3.6519   -9.1783   16.9039 C   0  0  0  0  0  0  0  0  0  0  0  0
    7.8675   -7.0096   15.9415 C   0  0  0  0  0  0  0  0  0  0  0  0
    5.9733   -9.6553   17.3832 N   0  0  0  0  0  0  0  0  0  0  0  0
   10.2411   -2.9363   23.4301 C   0  0  0  0  0  0  0  0  0  0  0  0
   10.7288   -3.8197   19.9525 C   0  0  0  0  0  0  0  0  0  0  0  0
   10.1189   -5.0054   19.6987 C   0  0  0  0  0  0  0  0  0  0  0  0
  1  3  4  0
  1  7  4  0
  2 21  4  0
  2 27  4  0
  3  9  4  0
  3 10  4  0
  4  8  4  0
  4 18  4  0
  4 25  1  0
  5  9  4  0
  5 12  4  0
  6 13  1  0
  6 27  1  0
  7 28  4  0
  8 11  4  0
  9 29  4  0
 10 12  4  0
 11 24  1  0
 11 26  4  0
 12 25  1  0
 13 28  1  0
 14 20  4  0
 14 23  4  0
 15 17  4  0
 15 21  4  0
 16 19  4  0
 16 23  4  0
 17 22  4  0
 18 26  4  0
 19 24  4  0
 20 24  4  0
 22 27  4  0
 28 29  4  0
M  END
$$$$

 Created by Python create_sdf_string function

 29 33  0  0  0  0  0  0  0  0999 V2000
   10.7215   -3.3326   17.6437 C   0  0  0  0  0  0  0  0  0  0  0  0
    9.9489   -3.4675   24.6487 N   0  0  0  0  0  0  0  0  0  0  0  0
   10.0172   -4.4740   17.4101 C   0  0  0  0  0  0  0  0  0  0  0  0
    6.9051   -7.9575   16.4222 C   0  0  0  0  0  0  0  0  0  0  0  0
    8.9969   -6.3552   17.9668 N   0  0  0  0  0  0  0  0  0  0  0  0
   10.6702   -3.9051   22.4070 C   0  0  0  0  0  0  0  0  0  0  0  0
   11.0625   -3.0028   18.8894 C   0  0  0  0  0  0  0  0  0  0  0  0
    5.6180   -7.9194   16.1754 O   0  0  0  0  0  0  0  0  0  0  0  0
    9.7259   -5.3080   18.4485 C   0  0  0  0  0  0  0  0  0  0  0  0
    9.4578   -5.0200   16.3036 N   0  0  0  0  0  0  0  0  0  0  0  0
    5.0287   -8.9365   16.8223 C   0  0  0  0  0  0  0  0  0  0  0  0
    8.7742   -6.1498   16.6764 C   0  0  0  0  0  0  0  0  0  0  0  0
   10.9418   -3.4032   21.2053 O   0  0  0  0  0  0  0  0  0  0  0  0
    1.4797   -8.6258   16.2950 C   0  0  0  0  0  0  0  0  0  0  0  0
    9.2861   -1.2743   25.3585 C   0  0  0  0  0  0  0  0  0  0  0  0
    1.8892  -10.3985   17.7511 N   0  0  0  0  0  0  0  0  0  0  0  0
    9.6210   -0.6952   24.0976 C   0  0  0  0  0  0  0  0  0  0  0  0
    7.0792   -9.0217   17.1429 C   0  0  0  0  0  0  0  0  0  0  0  0
    3.1713  -10.1816   17.6634 C   0  0  0  0  0  0  0  0  0  0  0  0
    2.7878   -8.3822   16.2137 C   0  0  0  0  0  0  0  0  0  0  0  0
    9.4601   -2.6590   25.6528 C   0  0  0  0  0  0  0  0  0  0  0  0
   10.1182   -1.5672   23.1165 C   0  0  0  0  0  0  0  0  0  0  0  0
    1.0552   -9.6360   17.0650 C   0  0  0  0  0  0  0  0  0  0  0  0
    3.6519   -9.1783   16.9039 C   0  0  0  0  0  0  0  0  0  0  0  0
    7.8675   -7.0096   15.9415 C   0  0  0  0  0  0  0  0  0  0  0  0
    5.9733   -9.6553   17.3832 N   0  0  0  0  0  0  0  0  0  0  0  0
   10.2411   -2.9363   23.4301 C   0  0  0  0  0  0  0  0  0  0  0  0
   10.7288   -3.8197   19.9525 C   0  0  0  0  0  0  0  0  0  0  0  0
   10.1189   -5.0054   19.6987 C   0  0  0  0  0  0  0  0  0  0  0  0
  1  3  4  0
  1  7  4  0
  2 21  4  0
  2 27  4  0
  3  9  4  0
  3 10  4  0
  4  8  4  0
  4 18  4  0
  4 25  1  0
  5  9  4  0
  5 12  4  0
  6 13  1  0
  6 27  1  0
  7 28  4  0
  8 11  4  0
  9 29  4  0
 10 12  4  0
 11 24  1  0
 11 26  4  0
 12 25  1  0
 13 28  1  0
 14 20  4  0
 14 23  4  0
 15 17  4  0
 15 21  4  0
 16 19  4  0
 16 23  4  0
 17 22  4  0
 18 26  4  0
 19 24  4  0
 20 24  4  0
 22 27  4  0
 28 29  4  0
M  END
$$$$

 Created by Python create_sdf_string function

 29 33  0  0  0  0  0  0  0  0999 V2000
   10.7215   -3.3326   17.6437 C   0  0  0  0  0  0  0  0  0  0  0  0
    9.9489   -3.4675   24.6487 N   0  0  0  0  0  0  0  0  0  0  0  0
   10.0172   -4.4740   17.4101 C   0  0  0  0  0  0  0  0  0  0  0  0
    6.9051   -7.9575   16.4222 C   0  0  0  0  0  0  0  0  0  0  0  0
    8.9969   -6.3552   17.9668 N   0  0  0  0  0  0  0  0  0  0  0  0
   10.6702   -3.9051   22.4070 C   0  0  0  0  0  0  0  0  0  0  0  0
   11.0625   -3.0028   18.8894 C   0  0  0  0  0  0  0  0  0  0  0  0
    5.6180   -7.9194   16.1754 O   0  0  0  0  0  0  0  0  0  0  0  0
    9.7259   -5.3080   18.4485 C   0  0  0  0  0  0  0  0  0  0  0  0
    9.4578   -5.0200   16.3036 N   0  0  0  0  0  0  0  0  0  0  0  0
    5.0287   -8.9365   16.8223 C   0  0  0  0  0  0  0  0  0  0  0  0
    8.7742   -6.1498   16.6764 C   0  0  0  0  0  0  0  0  0  0  0  0
   10.9418   -3.4032   21.2053 O   0  0  0  0  0  0  0  0  0  0  0  0
    1.4797   -8.6258   16.2950 C   0  0  0  0  0  0  0  0  0  0  0  0
    9.2861   -1.2743   25.3585 C   0  0  0  0  0  0  0  0  0  0  0  0
    1.8892  -10.3985   17.7511 N   0  0  0  0  0  0  0  0  0  0  0  0
    9.6210   -0.6952   24.0976 C   0  0  0  0  0  0  0  0  0  0  0  0
    7.0792   -9.0217   17.1429 C   0  0  0  0  0  0  0  0  0  0  0  0
    3.1713  -10.1816   17.6634 C   0  0  0  0  0  0  0  0  0  0  0  0
    2.7878   -8.3822   16.2137 C   0  0  0  0  0  0  0  0  0  0  0  0
    9.4601   -2.6590   25.6528 C   0  0  0  0  0  0  0  0  0  0  0  0
   10.1182   -1.5672   23.1165 C   0  0  0  0  0  0  0  0  0  0  0  0
    1.0552   -9.6360   17.0650 C   0  0  0  0  0  0  0  0  0  0  0  0
    3.6519   -9.1783   16.9039 C   0  0  0  0  0  0  0  0  0  0  0  0
    7.8675   -7.0096   15.9415 C   0  0  0  0  0  0  0  0  0  0  0  0
    5.9733   -9.6553   17.3832 N   0  0  0  0  0  0  0  0  0  0  0  0
   10.2411   -2.9363   23.4301 C   0  0  0  0  0  0  0  0  0  0  0  0
   10.7288   -3.8197   19.9525 C   0  0  0  0  0  0  0  0  0  0  0  0
   10.1189   -5.0054   19.6987 C   0  0  0  0  0  0  0  0  0  0  0  0
  1  3  4  0
  1  7  4  0
  2 21  4  0
  2 27  4  0
  3  9  4  0
  3 10  4  0
  4  8  4  0
  4 18  4  0
  4 25  1  0
  5  9  4  0
  5 12  4  0
  6 13  1  0
  6 27  1  0
  7 28  4  0
  8 11  4  0
  9 29  4  0
 10 12  4  0
 11 24  1  0
 11 26  4  0
 12 25  1  0
 13 28  1  0
 14 20  4  0
 14 23  4  0
 15 17  4  0
 15 21  4  0
 16 19  4  0
 16 23  4  0
 17 22  4  0
 18 26  4  0
 19 24  4  0
 20 24  4  0
 22 27  4  0
 28 29  4  0
M  END
$$$$

 Created by Python create_sdf_string function

 29 33  0  0  0  0  0  0  0  0999 V2000
   10.7215   -3.3326   17.6437 C   0  0  0  0  0  0  0  0  0  0  0  0
    9.9489   -3.4675   24.6487 N   0  0  0  0  0  0  0  0  0  0  0  0
   10.0172   -4.4740   17.4101 C   0  0  0  0  0  0  0  0  0  0  0  0
    6.9051   -7.9575   16.4222 C   0  0  0  0  0  0  0  0  0  0  0  0
    8.9969   -6.3552   17.9668 N   0  0  0  0  0  0  0  0  0  0  0  0
   10.6702   -3.9051   22.4070 C   0  0  0  0  0  0  0  0  0  0  0  0
   11.0625   -3.0028   18.8894 C   0  0  0  0  0  0  0  0  0  0  0  0
    5.6180   -7.9194   16.1754 O   0  0  0  0  0  0  0  0  0  0  0  0
    9.7259   -5.3080   18.4485 C   0  0  0  0  0  0  0  0  0  0  0  0
    9.4578   -5.0200   16.3036 N   0  0  0  0  0  0  0  0  0  0  0  0
    5.0287   -8.9365   16.8223 C   0  0  0  0  0  0  0  0  0  0  0  0
    8.7742   -6.1498   16.6764 C   0  0  0  0  0  0  0  0  0  0  0  0
   10.9418   -3.4032   21.2053 O   0  0  0  0  0  0  0  0  0  0  0  0
    1.4797   -8.6258   16.2950 C   0  0  0  0  0  0  0  0  0  0  0  0
    9.2861   -1.2743   25.3585 C   0  0  0  0  0  0  0  0  0  0  0  0
    1.8892  -10.3985   17.7511 N   0  0  0  0  0  0  0  0  0  0  0  0
    9.6210   -0.6952   24.0976 C   0  0  0  0  0  0  0  0  0  0  0  0
    7.0792   -9.0217   17.1429 C   0  0  0  0  0  0  0  0  0  0  0  0
    3.1713  -10.1816   17.6634 C   0  0  0  0  0  0  0  0  0  0  0  0
    2.7878   -8.3822   16.2137 C   0  0  0  0  0  0  0  0  0  0  0  0
    9.4601   -2.6590   25.6528 C   0  0  0  0  0  0  0  0  0  0  0  0
   10.1182   -1.5672   23.1165 C   0  0  0  0  0  0  0  0  0  0  0  0
    1.0552   -9.6360   17.0650 C   0  0  0  0  0  0  0  0  0  0  0  0
    3.6519   -9.1783   16.9039 C   0  0  0  0  0  0  0  0  0  0  0  0
    7.8675   -7.0096   15.9415 C   0  0  0  0  0  0  0  0  0  0  0  0
    5.9733   -9.6553   17.3832 N   0  0  0  0  0  0  0  0  0  0  0  0
   10.2411   -2.9363   23.4301 C   0  0  0  0  0  0  0  0  0  0  0  0
   10.7288   -3.8197   19.9525 C   0  0  0  0  0  0  0  0  0  0  0  0
   10.1189   -5.0054   19.6987 C   0  0  0  0  0  0  0  0  0  0  0  0
  1  3  4  0
  1  7  4  0
  2 21  4  0
  2 27  4  0
  3  9  4  0
  3 10  4  0
  4  8  4  0
  4 18  4  0
  4 25  1  0
  5  9  4  0
  5 12  4  0
  6 13  1  0
  6 27  1  0
  7 28  4  0
  8 11  4  0
  9 29  4  0
 10 12  4  0
 11 24  1  0
 11 26  4  0
 12 25  1  0
 13 28  1  0
 14 20  4  0
 14 23  4  0
 15 17  4  0
 15 21  4  0
 16 19  4  0
 16 23  4  0
 17 22  4  0
 18 26  4  0
 19 24  4  0
 20 24  4  0
 22 27  4  0
 28 29  4  0
M  END
$$$$

 Created by Python create_sdf_string function

 29 33  0  0  0  0  0  0  0  0999 V2000
   10.7215   -3.3326   17.6437 C   0  0  0  0  0  0  0  0  0  0  0  0
    9.9489   -3.4675   24.6487 N   0  0  0  0  0  0  0  0  0  0  0  0
   10.0172   -4.4740   17.4101 C   0  0  0  0  0  0  0  0  0  0  0  0
    6.9051   -7.9575   16.4222 C   0  0  0  0  0  0  0  0  0  0  0  0
    8.9969   -6.3552   17.9668 N   0  0  0  0  0  0  0  0  0  0  0  0
   10.6702   -3.9051   22.4070 C   0  0  0  0  0  0  0  0  0  0  0  0
   11.0625   -3.0028   18.8894 C   0  0  0  0  0  0  0  0  0  0  0  0
    5.6180   -7.9194   16.1754 O   0  0  0  0  0  0  0  0  0  0  0  0
    9.7259   -5.3080   18.4485 C   0  0  0  0  0  0  0  0  0  0  0  0
    9.4578   -5.0200   16.3036 N   0  0  0  0  0  0  0  0  0  0  0  0
    5.0287   -8.9365   16.8223 C   0  0  0  0  0  0  0  0  0  0  0  0
    8.7742   -6.1498   16.6764 C   0  0  0  0  0  0  0  0  0  0  0  0
   10.9418   -3.4032   21.2053 O   0  0  0  0  0  0  0  0  0  0  0  0
    1.4797   -8.6258   16.2950 C   0  0  0  0  0  0  0  0  0  0  0  0
    9.2861   -1.2743   25.3585 C   0  0  0  0  0  0  0  0  0  0  0  0
    1.8892  -10.3985   17.7511 N   0  0  0  0  0  0  0  0  0  0  0  0
    9.6210   -0.6952   24.0976 C   0  0  0  0  0  0  0  0  0  0  0  0
    7.0792   -9.0217   17.1429 C   0  0  0  0  0  0  0  0  0  0  0  0
    3.1713  -10.1816   17.6634 C   0  0  0  0  0  0  0  0  0  0  0  0
    2.7878   -8.3822   16.2137 C   0  0  0  0  0  0  0  0  0  0  0  0
    9.4601   -2.6590   25.6528 C   0  0  0  0  0  0  0  0  0  0  0  0
   10.1182   -1.5672   23.1165 C   0  0  0  0  0  0  0  0  0  0  0  0
    1.0552   -9.6360   17.0650 C   0  0  0  0  0  0  0  0  0  0  0  0
    3.6519   -9.1783   16.9039 C   0  0  0  0  0  0  0  0  0  0  0  0
    7.8675   -7.0096   15.9415 C   0  0  0  0  0  0  0  0  0  0  0  0
    5.9733   -9.6553   17.3832 N   0  0  0  0  0  0  0  0  0  0  0  0
   10.2411   -2.9363   23.4301 C   0  0  0  0  0  0  0  0  0  0  0  0
   10.7288   -3.8197   19.9525 C   0  0  0  0  0  0  0  0  0  0  0  0
   10.1189   -5.0054   19.6987 C   0  0  0  0  0  0  0  0  0  0  0  0
  1  3  4  0
  1  7  4  0
  2 21  4  0
  2 27  4  0
  3  9  4  0
  3 10  4  0
  4  8  4  0
  4 18  4  0
  4 25  1  0
  5  9  4  0
  5 12  4  0
  6 13  1  0
  6 27  1  0
  7 28  4  0
  8 11  4  0
  9 29  4  0
 10 12  4  0
 11 24  1  0
 11 26  4  0
 12 25  1  0
 13 28  1  0
 14 20  4  0
 14 23  4  0
 15 17  4  0
 15 21  4  0
 16 19  4  0
 16 23  4  0
 17 22  4  0
 18 26  4  0
 19 24  4  0
 20 24  4  0
 22 27  4  0
 28 29  4  0
M  END
$$$$

 Created by Python create_sdf_string function

 29 33  0  0  0  0  0  0  0  0999 V2000
   10.7215   -3.3326   17.6437 C   0  0  0  0  0  0  0  0  0  0  0  0
    9.9489   -3.4675   24.6487 N   0  0  0  0  0  0  0  0  0  0  0  0
   10.0172   -4.4740   17.4101 C   0  0  0  0  0  0  0  0  0  0  0  0
    6.9051   -7.9575   16.4222 C   0  0  0  0  0  0  0  0  0  0  0  0
    8.9969   -6.3552   17.9668 N   0  0  0  0  0  0  0  0  0  0  0  0
   10.6702   -3.9051   22.4070 C   0  0  0  0  0  0  0  0  0  0  0  0
   11.0625   -3.0028   18.8894 C   0  0  0  0  0  0  0  0  0  0  0  0
    5.6180   -7.9194   16.1754 O   0  0  0  0  0  0  0  0  0  0  0  0
    9.7259   -5.3080   18.4485 C   0  0  0  0  0  0  0  0  0  0  0  0
    9.4578   -5.0200   16.3036 N   0  0  0  0  0  0  0  0  0  0  0  0
    5.0287   -8.9365   16.8223 C   0  0  0  0  0  0  0  0  0  0  0  0
    8.7742   -6.1498   16.6764 C   0  0  0  0  0  0  0  0  0  0  0  0
   10.9418   -3.4032   21.2053 O   0  0  0  0  0  0  0  0  0  0  0  0
    1.4797   -8.6258   16.2950 C   0  0  0  0  0  0  0  0  0  0  0  0
    9.2861   -1.2743   25.3585 C   0  0  0  0  0  0  0  0  0  0  0  0
    1.8892  -10.3985   17.7511 N   0  0  0  0  0  0  0  0  0  0  0  0
    9.6210   -0.6952   24.0976 C   0  0  0  0  0  0  0  0  0  0  0  0
    7.0792   -9.0217   17.1429 C   0  0  0  0  0  0  0  0  0  0  0  0
    3.1713  -10.1816   17.6634 C   0  0  0  0  0  0  0  0  0  0  0  0
    2.7878   -8.3822   16.2137 C   0  0  0  0  0  0  0  0  0  0  0  0
    9.4601   -2.6590   25.6528 C   0  0  0  0  0  0  0  0  0  0  0  0
   10.1182   -1.5672   23.1165 C   0  0  0  0  0  0  0  0  0  0  0  0
    1.0552   -9.6360   17.0650 C   0  0  0  0  0  0  0  0  0  0  0  0
    3.6519   -9.1783   16.9039 C   0  0  0  0  0  0  0  0  0  0  0  0
    7.8675   -7.0096   15.9415 C   0  0  0  0  0  0  0  0  0  0  0  0
    5.9733   -9.6553   17.3832 N   0  0  0  0  0  0  0  0  0  0  0  0
   10.2411   -2.9363   23.4301 C   0  0  0  0  0  0  0  0  0  0  0  0
   10.7288   -3.8197   19.9525 C   0  0  0  0  0  0  0  0  0  0  0  0
   10.1189   -5.0054   19.6987 C   0  0  0  0  0  0  0  0  0  0  0  0
  1  3  4  0
  1  7  4  0
  2 21  4  0
  2 27  4  0
  3  9  4  0
  3 10  4  0
  4  8  4  0
  4 18  4  0
  4 25  1  0
  5  9  4  0
  5 12  4  0
  6 13  1  0
  6 27  1  0
  7 28  4  0
  8 11  4  0
  9 29  4  0
 10 12  4  0
 11 24  1  0
 11 26  4  0
 12 25  1  0
 13 28  1  0
 14 20  4  0
 14 23  4  0
 15 17  4  0
 15 21  4  0
 16 19  4  0
 16 23  4  0
 17 22  4  0
 18 26  4  0
 19 24  4  0
 20 24  4  0
 22 27  4  0
 28 29  4  0
M  END
$$$$

 Created by Python create_sdf_string function

 29 33  0  0  0  0  0  0  0  0999 V2000
   10.7215   -3.3326   17.6437 C   0  0  0  0  0  0  0  0  0  0  0  0
    9.9489   -3.4675   24.6487 N   0  0  0  0  0  0  0  0  0  0  0  0
   10.0172   -4.4740   17.4101 C   0  0  0  0  0  0  0  0  0  0  0  0
    6.9051   -7.9575   16.4222 C   0  0  0  0  0  0  0  0  0  0  0  0
    8.9969   -6.3552   17.9668 N   0  0  0  0  0  0  0  0  0  0  0  0
   10.6702   -3.9051   22.4070 C   0  0  0  0  0  0  0  0  0  0  0  0
   11.0625   -3.0028   18.8894 C   0  0  0  0  0  0  0  0  0  0  0  0
    5.6180   -7.9194   16.1754 O   0  0  0  0  0  0  0  0  0  0  0  0
    9.7259   -5.3080   18.4485 C   0  0  0  0  0  0  0  0  0  0  0  0
    9.4578   -5.0200   16.3036 N   0  0  0  0  0  0  0  0  0  0  0  0
    5.0287   -8.9365   16.8223 C   0  0  0  0  0  0  0  0  0  0  0  0
    8.7742   -6.1498   16.6764 C   0  0  0  0  0  0  0  0  0  0  0  0
   10.9418   -3.4032   21.2053 O   0  0  0  0  0  0  0  0  0  0  0  0
    1.4797   -8.6258   16.2950 C   0  0  0  0  0  0  0  0  0  0  0  0
    9.2861   -1.2743   25.3585 C   0  0  0  0  0  0  0  0  0  0  0  0
    1.8892  -10.3985   17.7511 N   0  0  0  0  0  0  0  0  0  0  0  0
    9.6210   -0.6952   24.0976 C   0  0  0  0  0  0  0  0  0  0  0  0
    7.0792   -9.0217   17.1429 C   0  0  0  0  0  0  0  0  0  0  0  0
    3.1713  -10.1816   17.6634 C   0  0  0  0  0  0  0  0  0  0  0  0
    2.7878   -8.3822   16.2137 C   0  0  0  0  0  0  0  0  0  0  0  0
    9.4601   -2.6590   25.6528 C   0  0  0  0  0  0  0  0  0  0  0  0
   10.1182   -1.5672   23.1165 C   0  0  0  0  0  0  0  0  0  0  0  0
    1.0552   -9.6360   17.0650 C   0  0  0  0  0  0  0  0  0  0  0  0
    3.6519   -9.1783   16.9039 C   0  0  0  0  0  0  0  0  0  0  0  0
    7.8675   -7.0096   15.9415 C   0  0  0  0  0  0  0  0  0  0  0  0
    5.9733   -9.6553   17.3832 N   0  0  0  0  0  0  0  0  0  0  0  0
   10.2411   -2.9363   23.4301 C   0  0  0  0  0  0  0  0  0  0  0  0
   10.7288   -3.8197   19.9525 C   0  0  0  0  0  0  0  0  0  0  0  0
   10.1189   -5.0054   19.6987 C   0  0  0  0  0  0  0  0  0  0  0  0
  1  3  4  0
  1  7  4  0
  2 21  4  0
  2 27  4  0
  3  9  4  0
  3 10  4  0
  4  8  4  0
  4 18  4  0
  4 25  1  0
  5  9  4  0
  5 12  4  0
  6 13  1  0
  6 27  1  0
  7 28  4  0
  8 11  4  0
  9 29  4  0
 10 12  4  0
 11 24  1  0
 11 26  4  0
 12 25  1  0
 13 28  1  0
 14 20  4  0
 14 23  4  0
 15 17  4  0
 15 21  4  0
 16 19  4  0
 16 23  4  0
 17 22  4  0
 18 26  4  0
 19 24  4  0
 20 24  4  0
 22 27  4  0
 28 29  4  0
M  END
$$$$

 Created by Python create_sdf_string function

 29 33  0  0  0  0  0  0  0  0999 V2000
   10.7215   -3.3326   17.6437 C   0  0  0  0  0  0  0  0  0  0  0  0
    9.9489   -3.4675   24.6487 N   0  0  0  0  0  0  0  0  0  0  0  0
   10.0172   -4.4740   17.4101 C   0  0  0  0  0  0  0  0  0  0  0  0
    6.9051   -7.9575   16.4222 C   0  0  0  0  0  0  0  0  0  0  0  0
    8.9969   -6.3552   17.9668 N   0  0  0  0  0  0  0  0  0  0  0  0
   10.6702   -3.9051   22.4070 C   0  0  0  0  0  0  0  0  0  0  0  0
   11.0625   -3.0028   18.8894 C   0  0  0  0  0  0  0  0  0  0  0  0
    5.6180   -7.9194   16.1754 O   0  0  0  0  0  0  0  0  0  0  0  0
    9.7259   -5.3080   18.4485 C   0  0  0  0  0  0  0  0  0  0  0  0
    9.4578   -5.0200   16.3036 N   0  0  0  0  0  0  0  0  0  0  0  0
    5.0287   -8.9365   16.8223 C   0  0  0  0  0  0  0  0  0  0  0  0
    8.7742   -6.1498   16.6764 C   0  0  0  0  0  0  0  0  0  0  0  0
   10.9418   -3.4032   21.2053 O   0  0  0  0  0  0  0  0  0  0  0  0
    1.4797   -8.6258   16.2950 C   0  0  0  0  0  0  0  0  0  0  0  0
    9.2861   -1.2743   25.3585 C   0  0  0  0  0  0  0  0  0  0  0  0
    1.8892  -10.3985   17.7511 N   0  0  0  0  0  0  0  0  0  0  0  0
    9.6210   -0.6952   24.0976 C   0  0  0  0  0  0  0  0  0  0  0  0
    7.0792   -9.0217   17.1429 C   0  0  0  0  0  0  0  0  0  0  0  0
    3.1713  -10.1816   17.6634 C   0  0  0  0  0  0  0  0  0  0  0  0
    2.7878   -8.3822   16.2137 C   0  0  0  0  0  0  0  0  0  0  0  0
    9.4601   -2.6590   25.6528 C   0  0  0  0  0  0  0  0  0  0  0  0
   10.1182   -1.5672   23.1165 C   0  0  0  0  0  0  0  0  0  0  0  0
    1.0552   -9.6360   17.0650 C   0  0  0  0  0  0  0  0  0  0  0  0
    3.6519   -9.1783   16.9039 C   0  0  0  0  0  0  0  0  0  0  0  0
    7.8675   -7.0096   15.9415 C   0  0  0  0  0  0  0  0  0  0  0  0
    5.9733   -9.6553   17.3832 N   0  0  0  0  0  0  0  0  0  0  0  0
   10.2411   -2.9363   23.4301 C   0  0  0  0  0  0  0  0  0  0  0  0
   10.7288   -3.8197   19.9525 C   0  0  0  0  0  0  0  0  0  0  0  0
   10.1189   -5.0054   19.6987 C   0  0  0  0  0  0  0  0  0  0  0  0
  1  3  4  0
  1  7  4  0
  2 21  4  0
  2 27  4  0
  3  9  4  0
  3 10  4  0
  4  8  4  0
  4 18  4  0
  4 25  1  0
  5  9  4  0
  5 12  4  0
  6 13  1  0
  6 27  1  0
  7 28  4  0
  8 11  4  0
  9 29  4  0
 10 12  4  0
 11 24  1  0
 11 26  4  0
 12 25  1  0
 13 28  1  0
 14 20  4  0
 14 23  4  0
 15 17  4  0
 15 21  4  0
 16 19  4  0
 16 23  4  0
 17 22  4  0
 18 26  4  0
 19 24  4  0
 20 24  4  0
 22 27  4  0
 28 29  4  0
M  END
$$$$

 Created by Python create_sdf_string function

 29 33  0  0  0  0  0  0  0  0999 V2000
   10.7215   -3.3326   17.6437 C   0  0  0  0  0  0  0  0  0  0  0  0
    9.9489   -3.4675   24.6487 N   0  0  0  0  0  0  0  0  0  0  0  0
   10.0172   -4.4740   17.4101 C   0  0  0  0  0  0  0  0  0  0  0  0
    6.9051   -7.9575   16.4222 C   0  0  0  0  0  0  0  0  0  0  0  0
    8.9969   -6.3552   17.9668 N   0  0  0  0  0  0  0  0  0  0  0  0
   10.6702   -3.9051   22.4070 C   0  0  0  0  0  0  0  0  0  0  0  0
   11.0625   -3.0028   18.8894 C   0  0  0  0  0  0  0  0  0  0  0  0
    5.6180   -7.9194   16.1754 O   0  0  0  0  0  0  0  0  0  0  0  0
    9.7259   -5.3080   18.4485 C   0  0  0  0  0  0  0  0  0  0  0  0
    9.4578   -5.0200   16.3036 N   0  0  0  0  0  0  0  0  0  0  0  0
    5.0287   -8.9365   16.8223 C   0  0  0  0  0  0  0  0  0  0  0  0
    8.7742   -6.1498   16.6764 C   0  0  0  0  0  0  0  0  0  0  0  0
   10.9418   -3.4032   21.2053 O   0  0  0  0  0  0  0  0  0  0  0  0
    1.4797   -8.6258   16.2950 C   0  0  0  0  0  0  0  0  0  0  0  0
    9.2861   -1.2743   25.3585 C   0  0  0  0  0  0  0  0  0  0  0  0
    1.8892  -10.3985   17.7511 N   0  0  0  0  0  0  0  0  0  0  0  0
    9.6210   -0.6952   24.0976 C   0  0  0  0  0  0  0  0  0  0  0  0
    7.0792   -9.0217   17.1429 C   0  0  0  0  0  0  0  0  0  0  0  0
    3.1713  -10.1816   17.6634 C   0  0  0  0  0  0  0  0  0  0  0  0
    2.7878   -8.3822   16.2137 C   0  0  0  0  0  0  0  0  0  0  0  0
    9.4601   -2.6590   25.6528 C   0  0  0  0  0  0  0  0  0  0  0  0
   10.1182   -1.5672   23.1165 C   0  0  0  0  0  0  0  0  0  0  0  0
    1.0552   -9.6360   17.0650 C   0  0  0  0  0  0  0  0  0  0  0  0
    3.6519   -9.1783   16.9039 C   0  0  0  0  0  0  0  0  0  0  0  0
    7.8675   -7.0096   15.9415 C   0  0  0  0  0  0  0  0  0  0  0  0
    5.9733   -9.6553   17.3832 N   0  0  0  0  0  0  0  0  0  0  0  0
   10.2411   -2.9363   23.4301 C   0  0  0  0  0  0  0  0  0  0  0  0
   10.7288   -3.8197   19.9525 C   0  0  0  0  0  0  0  0  0  0  0  0
   10.1189   -5.0054   19.6987 C   0  0  0  0  0  0  0  0  0  0  0  0
  1  3  4  0
  1  7  4  0
  2 21  4  0
  2 27  4  0
  3  9  4  0
  3 10  4  0
  4  8  4  0
  4 18  4  0
  4 25  1  0
  5  9  4  0
  5 12  4  0
  6 13  1  0
  6 27  1  0
  7 28  4  0
  8 11  4  0
  9 29  4  0
 10 12  4  0
 11 24  1  0
 11 26  4  0
 12 25  1  0
 13 28  1  0
 14 20  4  0
 14 23  4  0
 15 17  4  0
 15 21  4  0
 16 19  4  0
 16 23  4  0
 17 22  4  0
 18 26  4  0
 19 24  4  0
 20 24  4  0
 22 27  4  0
 28 29  4  0
M  END
$$$$

 Created by Python create_sdf_string function

 29 33  0  0  0  0  0  0  0  0999 V2000
   10.7215   -3.3326   17.6437 C   0  0  0  0  0  0  0  0  0  0  0  0
    9.9489   -3.4675   24.6487 N   0  0  0  0  0  0  0  0  0  0  0  0
   10.0172   -4.4740   17.4101 C   0  0  0  0  0  0  0  0  0  0  0  0
    6.9051   -7.9575   16.4222 C   0  0  0  0  0  0  0  0  0  0  0  0
    8.9969   -6.3552   17.9668 N   0  0  0  0  0  0  0  0  0  0  0  0
   10.6702   -3.9051   22.4070 C   0  0  0  0  0  0  0  0  0  0  0  0
   11.0625   -3.0028   18.8894 C   0  0  0  0  0  0  0  0  0  0  0  0
    5.6180   -7.9194   16.1754 O   0  0  0  0  0  0  0  0  0  0  0  0
    9.7259   -5.3080   18.4485 C   0  0  0  0  0  0  0  0  0  0  0  0
    9.4578   -5.0200   16.3036 N   0  0  0  0  0  0  0  0  0  0  0  0
    5.0287   -8.9365   16.8223 C   0  0  0  0  0  0  0  0  0  0  0  0
    8.7742   -6.1498   16.6764 C   0  0  0  0  0  0  0  0  0  0  0  0
   10.9418   -3.4032   21.2053 O   0  0  0  0  0  0  0  0  0  0  0  0
    1.4797   -8.6258   16.2950 C   0  0  0  0  0  0  0  0  0  0  0  0
    9.2861   -1.2743   25.3585 C   0  0  0  0  0  0  0  0  0  0  0  0
    1.8892  -10.3985   17.7511 N   0  0  0  0  0  0  0  0  0  0  0  0
    9.6210   -0.6952   24.0976 C   0  0  0  0  0  0  0  0  0  0  0  0
    7.0792   -9.0217   17.1429 C   0  0  0  0  0  0  0  0  0  0  0  0
    3.1713  -10.1816   17.6634 C   0  0  0  0  0  0  0  0  0  0  0  0
    2.7878   -8.3822   16.2137 C   0  0  0  0  0  0  0  0  0  0  0  0
    9.4601   -2.6590   25.6528 C   0  0  0  0  0  0  0  0  0  0  0  0
   10.1182   -1.5672   23.1165 C   0  0  0  0  0  0  0  0  0  0  0  0
    1.0552   -9.6360   17.0650 C   0  0  0  0  0  0  0  0  0  0  0  0
    3.6519   -9.1783   16.9039 C   0  0  0  0  0  0  0  0  0  0  0  0
    7.8675   -7.0096   15.9415 C   0  0  0  0  0  0  0  0  0  0  0  0
    5.9733   -9.6553   17.3832 N   0  0  0  0  0  0  0  0  0  0  0  0
   10.2411   -2.9363   23.4301 C   0  0  0  0  0  0  0  0  0  0  0  0
   10.7288   -3.8197   19.9525 C   0  0  0  0  0  0  0  0  0  0  0  0
   10.1189   -5.0054   19.6987 C   0  0  0  0  0  0  0  0  0  0  0  0
  1  3  4  0
  1  7  4  0
  2 21  4  0
  2 27  4  0
  3  9  4  0
  3 10  4  0
  4  8  4  0
  4 18  4  0
  4 25  1  0
  5  9  4  0
  5 12  4  0
  6 13  1  0
  6 27  1  0
  7 28  4  0
  8 11  4  0
  9 29  4  0
 10 12  4  0
 11 24  1  0
 11 26  4  0
 12 25  1  0
 13 28  1  0
 14 20  4  0
 14 23  4  0
 15 17  4  0
 15 21  4  0
 16 19  4  0
 16 23  4  0
 17 22  4  0
 18 26  4  0
 19 24  4  0
 20 24  4  0
 22 27  4  0
 28 29  4  0
M  END
$$$$

 Created by Python create_sdf_string function

 29 33  0  0  0  0  0  0  0  0999 V2000
   10.7215   -3.3326   17.6437 C   0  0  0  0  0  0  0  0  0  0  0  0
    9.9489   -3.4675   24.6487 N   0  0  0  0  0  0  0  0  0  0  0  0
   10.0172   -4.4740   17.4101 C   0  0  0  0  0  0  0  0  0  0  0  0
    6.9051   -7.9575   16.4222 C   0  0  0  0  0  0  0  0  0  0  0  0
    8.9969   -6.3552   17.9668 N   0  0  0  0  0  0  0  0  0  0  0  0
   10.6702   -3.9051   22.4070 C   0  0  0  0  0  0  0  0  0  0  0  0
   11.0625   -3.0028   18.8894 C   0  0  0  0  0  0  0  0  0  0  0  0
    5.6180   -7.9194   16.1754 O   0  0  0  0  0  0  0  0  0  0  0  0
    9.7259   -5.3080   18.4485 C   0  0  0  0  0  0  0  0  0  0  0  0
    9.4578   -5.0200   16.3036 N   0  0  0  0  0  0  0  0  0  0  0  0
    5.0287   -8.9365   16.8223 C   0  0  0  0  0  0  0  0  0  0  0  0
    8.7742   -6.1498   16.6764 C   0  0  0  0  0  0  0  0  0  0  0  0
   10.9418   -3.4032   21.2053 O   0  0  0  0  0  0  0  0  0  0  0  0
    1.4797   -8.6258   16.2950 C   0  0  0  0  0  0  0  0  0  0  0  0
    9.2861   -1.2743   25.3585 C   0  0  0  0  0  0  0  0  0  0  0  0
    1.8892  -10.3985   17.7511 N   0  0  0  0  0  0  0  0  0  0  0  0
    9.6210   -0.6952   24.0976 C   0  0  0  0  0  0  0  0  0  0  0  0
    7.0792   -9.0217   17.1429 C   0  0  0  0  0  0  0  0  0  0  0  0
    3.1713  -10.1816   17.6634 C   0  0  0  0  0  0  0  0  0  0  0  0
    2.7878   -8.3822   16.2137 C   0  0  0  0  0  0  0  0  0  0  0  0
    9.4601   -2.6590   25.6528 C   0  0  0  0  0  0  0  0  0  0  0  0
   10.1182   -1.5672   23.1165 C   0  0  0  0  0  0  0  0  0  0  0  0
    1.0552   -9.6360   17.0650 C   0  0  0  0  0  0  0  0  0  0  0  0
    3.6519   -9.1783   16.9039 C   0  0  0  0  0  0  0  0  0  0  0  0
    7.8675   -7.0096   15.9415 C   0  0  0  0  0  0  0  0  0  0  0  0
    5.9733   -9.6553   17.3832 N   0  0  0  0  0  0  0  0  0  0  0  0
   10.2411   -2.9363   23.4301 C   0  0  0  0  0  0  0  0  0  0  0  0
   10.7288   -3.8197   19.9525 C   0  0  0  0  0  0  0  0  0  0  0  0
   10.1189   -5.0054   19.6987 C   0  0  0  0  0  0  0  0  0  0  0  0
  1  3  4  0
  1  7  4  0
  2 21  4  0
  2 27  4  0
  3  9  4  0
  3 10  4  0
  4  8  4  0
  4 18  4  0
  4 25  1  0
  5  9  4  0
  5 12  4  0
  6 13  1  0
  6 27  1  0
  7 28  4  0
  8 11  4  0
  9 29  4  0
 10 12  4  0
 11 24  1  0
 11 26  4  0
 12 25  1  0
 13 28  1  0
 14 20  4  0
 14 23  4  0
 15 17  4  0
 15 21  4  0
 16 19  4  0
 16 23  4  0
 17 22  4  0
 18 26  4  0
 19 24  4  0
 20 24  4  0
 22 27  4  0
 28 29  4  0
M  END
$$$$

 Created by Python create_sdf_string function

 29 33  0  0  0  0  0  0  0  0999 V2000
   10.7215   -3.3326   17.6437 C   0  0  0  0  0  0  0  0  0  0  0  0
    9.9489   -3.4675   24.6487 N   0  0  0  0  0  0  0  0  0  0  0  0
   10.0172   -4.4740   17.4101 C   0  0  0  0  0  0  0  0  0  0  0  0
    6.9051   -7.9575   16.4222 C   0  0  0  0  0  0  0  0  0  0  0  0
    8.9969   -6.3552   17.9668 N   0  0  0  0  0  0  0  0  0  0  0  0
   10.6702   -3.9051   22.4070 C   0  0  0  0  0  0  0  0  0  0  0  0
   11.0625   -3.0028   18.8894 C   0  0  0  0  0  0  0  0  0  0  0  0
    5.6180   -7.9194   16.1754 O   0  0  0  0  0  0  0  0  0  0  0  0
    9.7259   -5.3080   18.4485 C   0  0  0  0  0  0  0  0  0  0  0  0
    9.4578   -5.0200   16.3036 N   0  0  0  0  0  0  0  0  0  0  0  0
    5.0287   -8.9365   16.8223 C   0  0  0  0  0  0  0  0  0  0  0  0
    8.7742   -6.1498   16.6764 C   0  0  0  0  0  0  0  0  0  0  0  0
   10.9418   -3.4032   21.2053 O   0  0  0  0  0  0  0  0  0  0  0  0
    1.4797   -8.6258   16.2950 C   0  0  0  0  0  0  0  0  0  0  0  0
    9.2861   -1.2743   25.3585 C   0  0  0  0  0  0  0  0  0  0  0  0
    1.8892  -10.3985   17.7511 N   0  0  0  0  0  0  0  0  0  0  0  0
    9.6210   -0.6952   24.0976 C   0  0  0  0  0  0  0  0  0  0  0  0
    7.0792   -9.0217   17.1429 C   0  0  0  0  0  0  0  0  0  0  0  0
    3.1713  -10.1816   17.6634 C   0  0  0  0  0  0  0  0  0  0  0  0
    2.7878   -8.3822   16.2137 C   0  0  0  0  0  0  0  0  0  0  0  0
    9.4601   -2.6590   25.6528 C   0  0  0  0  0  0  0  0  0  0  0  0
   10.1182   -1.5672   23.1165 C   0  0  0  0  0  0  0  0  0  0  0  0
    1.0552   -9.6360   17.0650 C   0  0  0  0  0  0  0  0  0  0  0  0
    3.6519   -9.1783   16.9039 C   0  0  0  0  0  0  0  0  0  0  0  0
    7.8675   -7.0096   15.9415 C   0  0  0  0  0  0  0  0  0  0  0  0
    5.9733   -9.6553   17.3832 N   0  0  0  0  0  0  0  0  0  0  0  0
   10.2411   -2.9363   23.4301 C   0  0  0  0  0  0  0  0  0  0  0  0
   10.7288   -3.8197   19.9525 C   0  0  0  0  0  0  0  0  0  0  0  0
   10.1189   -5.0054   19.6987 C   0  0  0  0  0  0  0  0  0  0  0  0
  1  3  4  0
  1  7  4  0
  2 21  4  0
  2 27  4  0
  3  9  4  0
  3 10  4  0
  4  8  4  0
  4 18  4  0
  4 25  1  0
  5  9  4  0
  5 12  4  0
  6 13  1  0
  6 27  1  0
  7 28  4  0
  8 11  4  0
  9 29  4  0
 10 12  4  0
 11 24  1  0
 11 26  4  0
 12 25  1  0
 13 28  1  0
 14 20  4  0
 14 23  4  0
 15 17  4  0
 15 21  4  0
 16 19  4  0
 16 23  4  0
 17 22  4  0
 18 26  4  0
 19 24  4  0
 20 24  4  0
 22 27  4  0
 28 29  4  0
M  END
$$$$

 Created by Python create_sdf_string function

 29 33  0  0  0  0  0  0  0  0999 V2000
   10.7215   -3.3326   17.6437 C   0  0  0  0  0  0  0  0  0  0  0  0
    9.9489   -3.4675   24.6487 N   0  0  0  0  0  0  0  0  0  0  0  0
   10.0172   -4.4740   17.4101 C   0  0  0  0  0  0  0  0  0  0  0  0
    6.9051   -7.9575   16.4222 C   0  0  0  0  0  0  0  0  0  0  0  0
    8.9969   -6.3552   17.9668 N   0  0  0  0  0  0  0  0  0  0  0  0
   10.6702   -3.9051   22.4070 C   0  0  0  0  0  0  0  0  0  0  0  0
   11.0625   -3.0028   18.8894 C   0  0  0  0  0  0  0  0  0  0  0  0
    5.6180   -7.9194   16.1754 O   0  0  0  0  0  0  0  0  0  0  0  0
    9.7259   -5.3080   18.4485 C   0  0  0  0  0  0  0  0  0  0  0  0
    9.4578   -5.0200   16.3036 N   0  0  0  0  0  0  0  0  0  0  0  0
    5.0287   -8.9365   16.8223 C   0  0  0  0  0  0  0  0  0  0  0  0
    8.7742   -6.1498   16.6764 C   0  0  0  0  0  0  0  0  0  0  0  0
   10.9418   -3.4032   21.2053 O   0  0  0  0  0  0  0  0  0  0  0  0
    1.4797   -8.6258   16.2950 C   0  0  0  0  0  0  0  0  0  0  0  0
    9.2861   -1.2743   25.3585 C   0  0  0  0  0  0  0  0  0  0  0  0
    1.8892  -10.3985   17.7511 N   0  0  0  0  0  0  0  0  0  0  0  0
    9.6210   -0.6952   24.0976 C   0  0  0  0  0  0  0  0  0  0  0  0
    7.0792   -9.0217   17.1429 C   0  0  0  0  0  0  0  0  0  0  0  0
    3.1713  -10.1816   17.6634 C   0  0  0  0  0  0  0  0  0  0  0  0
    2.7878   -8.3822   16.2137 C   0  0  0  0  0  0  0  0  0  0  0  0
    9.4601   -2.6590   25.6528 C   0  0  0  0  0  0  0  0  0  0  0  0
   10.1182   -1.5672   23.1165 C   0  0  0  0  0  0  0  0  0  0  0  0
    1.0552   -9.6360   17.0650 C   0  0  0  0  0  0  0  0  0  0  0  0
    3.6519   -9.1783   16.9039 C   0  0  0  0  0  0  0  0  0  0  0  0
    7.8675   -7.0096   15.9415 C   0  0  0  0  0  0  0  0  0  0  0  0
    5.9733   -9.6553   17.3832 N   0  0  0  0  0  0  0  0  0  0  0  0
   10.2411   -2.9363   23.4301 C   0  0  0  0  0  0  0  0  0  0  0  0
   10.7288   -3.8197   19.9525 C   0  0  0  0  0  0  0  0  0  0  0  0
   10.1189   -5.0054   19.6987 C   0  0  0  0  0  0  0  0  0  0  0  0
  1  3  4  0
  1  7  4  0
  2 21  4  0
  2 27  4  0
  3  9  4  0
  3 10  4  0
  4  8  4  0
  4 18  4  0
  4 25  1  0
  5  9  4  0
  5 12  4  0
  6 13  1  0
  6 27  1  0
  7 28  4  0
  8 11  4  0
  9 29  4  0
 10 12  4  0
 11 24  1  0
 11 26  4  0
 12 25  1  0
 13 28  1  0
 14 20  4  0
 14 23  4  0
 15 17  4  0
 15 21  4  0
 16 19  4  0
 16 23  4  0
 17 22  4  0
 18 26  4  0
 19 24  4  0
 20 24  4  0
 22 27  4  0
 28 29  4  0
M  END
$$$$

 Created by Python create_sdf_string function

 29 33  0  0  0  0  0  0  0  0999 V2000
   10.7215   -3.3326   17.6437 C   0  0  0  0  0  0  0  0  0  0  0  0
    9.9489   -3.4675   24.6487 N   0  0  0  0  0  0  0  0  0  0  0  0
   10.0172   -4.4740   17.4101 C   0  0  0  0  0  0  0  0  0  0  0  0
    6.9051   -7.9575   16.4222 C   0  0  0  0  0  0  0  0  0  0  0  0
    8.9969   -6.3552   17.9668 N   0  0  0  0  0  0  0  0  0  0  0  0
   10.6702   -3.9051   22.4070 C   0  0  0  0  0  0  0  0  0  0  0  0
   11.0625   -3.0028   18.8894 C   0  0  0  0  0  0  0  0  0  0  0  0
    5.6180   -7.9194   16.1754 O   0  0  0  0  0  0  0  0  0  0  0  0
    9.7259   -5.3080   18.4485 C   0  0  0  0  0  0  0  0  0  0  0  0
    9.4578   -5.0200   16.3036 N   0  0  0  0  0  0  0  0  0  0  0  0
    5.0287   -8.9365   16.8223 C   0  0  0  0  0  0  0  0  0  0  0  0
    8.7742   -6.1498   16.6764 C   0  0  0  0  0  0  0  0  0  0  0  0
   10.9418   -3.4032   21.2053 O   0  0  0  0  0  0  0  0  0  0  0  0
    1.4797   -8.6258   16.2950 C   0  0  0  0  0  0  0  0  0  0  0  0
    9.2861   -1.2743   25.3585 C   0  0  0  0  0  0  0  0  0  0  0  0
    1.8892  -10.3985   17.7511 N   0  0  0  0  0  0  0  0  0  0  0  0
    9.6210   -0.6952   24.0976 C   0  0  0  0  0  0  0  0  0  0  0  0
    7.0792   -9.0217   17.1429 C   0  0  0  0  0  0  0  0  0  0  0  0
    3.1713  -10.1816   17.6634 C   0  0  0  0  0  0  0  0  0  0  0  0
    2.7878   -8.3822   16.2137 C   0  0  0  0  0  0  0  0  0  0  0  0
    9.4601   -2.6590   25.6528 C   0  0  0  0  0  0  0  0  0  0  0  0
   10.1182   -1.5672   23.1165 C   0  0  0  0  0  0  0  0  0  0  0  0
    1.0552   -9.6360   17.0650 C   0  0  0  0  0  0  0  0  0  0  0  0
    3.6519   -9.1783   16.9039 C   0  0  0  0  0  0  0  0  0  0  0  0
    7.8675   -7.0096   15.9415 C   0  0  0  0  0  0  0  0  0  0  0  0
    5.9733   -9.6553   17.3832 N   0  0  0  0  0  0  0  0  0  0  0  0
   10.2411   -2.9363   23.4301 C   0  0  0  0  0  0  0  0  0  0  0  0
   10.7288   -3.8197   19.9525 C   0  0  0  0  0  0  0  0  0  0  0  0
   10.1189   -5.0054   19.6987 C   0  0  0  0  0  0  0  0  0  0  0  0
  1  3  4  0
  1  7  4  0
  2 21  4  0
  2 27  4  0
  3  9  4  0
  3 10  4  0
  4  8  4  0
  4 18  4  0
  4 25  1  0
  5  9  4  0
  5 12  4  0
  6 13  1  0
  6 27  1  0
  7 28  4  0
  8 11  4  0
  9 29  4  0
 10 12  4  0
 11 24  1  0
 11 26  4  0
 12 25  1  0
 13 28  1  0
 14 20  4  0
 14 23  4  0
 15 17  4  0
 15 21  4  0
 16 19  4  0
 16 23  4  0
 17 22  4  0
 18 26  4  0
 19 24  4  0
 20 24  4  0
 22 27  4  0
 28 29  4  0
M  END
$$$$

 Created by Python create_sdf_string function

 29 33  0  0  0  0  0  0  0  0999 V2000
   10.7215   -3.3326   17.6437 C   0  0  0  0  0  0  0  0  0  0  0  0
    9.9489   -3.4675   24.6487 N   0  0  0  0  0  0  0  0  0  0  0  0
   10.0172   -4.4740   17.4101 C   0  0  0  0  0  0  0  0  0  0  0  0
    6.9051   -7.9575   16.4222 C   0  0  0  0  0  0  0  0  0  0  0  0
    8.9969   -6.3552   17.9668 N   0  0  0  0  0  0  0  0  0  0  0  0
   10.6702   -3.9051   22.4070 C   0  0  0  0  0  0  0  0  0  0  0  0
   11.0625   -3.0028   18.8894 C   0  0  0  0  0  0  0  0  0  0  0  0
    5.6180   -7.9194   16.1754 O   0  0  0  0  0  0  0  0  0  0  0  0
    9.7259   -5.3080   18.4485 C   0  0  0  0  0  0  0  0  0  0  0  0
    9.4578   -5.0200   16.3036 N   0  0  0  0  0  0  0  0  0  0  0  0
    5.0287   -8.9365   16.8223 C   0  0  0  0  0  0  0  0  0  0  0  0
    8.7742   -6.1498   16.6764 C   0  0  0  0  0  0  0  0  0  0  0  0
   10.9418   -3.4032   21.2053 O   0  0  0  0  0  0  0  0  0  0  0  0
    1.4797   -8.6258   16.2950 C   0  0  0  0  0  0  0  0  0  0  0  0
    9.2861   -1.2743   25.3585 C   0  0  0  0  0  0  0  0  0  0  0  0
    1.8892  -10.3985   17.7511 N   0  0  0  0  0  0  0  0  0  0  0  0
    9.6210   -0.6952   24.0976 C   0  0  0  0  0  0  0  0  0  0  0  0
    7.0792   -9.0217   17.1429 C   0  0  0  0  0  0  0  0  0  0  0  0
    3.1713  -10.1816   17.6634 C   0  0  0  0  0  0  0  0  0  0  0  0
    2.7878   -8.3822   16.2137 C   0  0  0  0  0  0  0  0  0  0  0  0
    9.4601   -2.6590   25.6528 C   0  0  0  0  0  0  0  0  0  0  0  0
   10.1182   -1.5672   23.1165 C   0  0  0  0  0  0  0  0  0  0  0  0
    1.0552   -9.6360   17.0650 C   0  0  0  0  0  0  0  0  0  0  0  0
    3.6519   -9.1783   16.9039 C   0  0  0  0  0  0  0  0  0  0  0  0
    7.8675   -7.0096   15.9415 C   0  0  0  0  0  0  0  0  0  0  0  0
    5.9733   -9.6553   17.3832 N   0  0  0  0  0  0  0  0  0  0  0  0
   10.2411   -2.9363   23.4301 C   0  0  0  0  0  0  0  0  0  0  0  0
   10.7288   -3.8197   19.9525 C   0  0  0  0  0  0  0  0  0  0  0  0
   10.1189   -5.0054   19.6987 C   0  0  0  0  0  0  0  0  0  0  0  0
  1  3  4  0
  1  7  4  0
  2 21  4  0
  2 27  4  0
  3  9  4  0
  3 10  4  0
  4  8  4  0
  4 18  4  0
  4 25  1  0
  5  9  4  0
  5 12  4  0
  6 13  1  0
  6 27  1  0
  7 28  4  0
  8 11  4  0
  9 29  4  0
 10 12  4  0
 11 24  1  0
 11 26  4  0
 12 25  1  0
 13 28  1  0
 14 20  4  0
 14 23  4  0
 15 17  4  0
 15 21  4  0
 16 19  4  0
 16 23  4  0
 17 22  4  0
 18 26  4  0
 19 24  4  0
 20 24  4  0
 22 27  4  0
 28 29  4  0
M  END
$$$$

 Created by Python create_sdf_string function

 29 33  0  0  0  0  0  0  0  0999 V2000
   10.7215   -3.3326   17.6437 C   0  0  0  0  0  0  0  0  0  0  0  0
    9.9489   -3.4675   24.6487 N   0  0  0  0  0  0  0  0  0  0  0  0
   10.0172   -4.4740   17.4101 C   0  0  0  0  0  0  0  0  0  0  0  0
    6.9051   -7.9575   16.4222 C   0  0  0  0  0  0  0  0  0  0  0  0
    8.9969   -6.3552   17.9668 N   0  0  0  0  0  0  0  0  0  0  0  0
   10.6702   -3.9051   22.4070 C   0  0  0  0  0  0  0  0  0  0  0  0
   11.0625   -3.0028   18.8894 C   0  0  0  0  0  0  0  0  0  0  0  0
    5.6180   -7.9194   16.1754 O   0  0  0  0  0  0  0  0  0  0  0  0
    9.7259   -5.3080   18.4485 C   0  0  0  0  0  0  0  0  0  0  0  0
    9.4578   -5.0200   16.3036 N   0  0  0  0  0  0  0  0  0  0  0  0
    5.0287   -8.9365   16.8223 C   0  0  0  0  0  0  0  0  0  0  0  0
    8.7742   -6.1498   16.6764 C   0  0  0  0  0  0  0  0  0  0  0  0
   10.9418   -3.4032   21.2053 O   0  0  0  0  0  0  0  0  0  0  0  0
    1.4797   -8.6258   16.2950 C   0  0  0  0  0  0  0  0  0  0  0  0
    9.2861   -1.2743   25.3585 C   0  0  0  0  0  0  0  0  0  0  0  0
    1.8892  -10.3985   17.7511 N   0  0  0  0  0  0  0  0  0  0  0  0
    9.6210   -0.6952   24.0976 C   0  0  0  0  0  0  0  0  0  0  0  0
    7.0792   -9.0217   17.1429 C   0  0  0  0  0  0  0  0  0  0  0  0
    3.1713  -10.1816   17.6634 C   0  0  0  0  0  0  0  0  0  0  0  0
    2.7878   -8.3822   16.2137 C   0  0  0  0  0  0  0  0  0  0  0  0
    9.4601   -2.6590   25.6528 C   0  0  0  0  0  0  0  0  0  0  0  0
   10.1182   -1.5672   23.1165 C   0  0  0  0  0  0  0  0  0  0  0  0
    1.0552   -9.6360   17.0650 C   0  0  0  0  0  0  0  0  0  0  0  0
    3.6519   -9.1783   16.9039 C   0  0  0  0  0  0  0  0  0  0  0  0
    7.8675   -7.0096   15.9415 C   0  0  0  0  0  0  0  0  0  0  0  0
    5.9733   -9.6553   17.3832 N   0  0  0  0  0  0  0  0  0  0  0  0
   10.2411   -2.9363   23.4301 C   0  0  0  0  0  0  0  0  0  0  0  0
   10.7288   -3.8197   19.9525 C   0  0  0  0  0  0  0  0  0  0  0  0
   10.1189   -5.0054   19.6987 C   0  0  0  0  0  0  0  0  0  0  0  0
  1  3  4  0
  1  7  4  0
  2 21  4  0
  2 27  4  0
  3  9  4  0
  3 10  4  0
  4  8  4  0
  4 18  4  0
  4 25  1  0
  5  9  4  0
  5 12  4  0
  6 13  1  0
  6 27  1  0
  7 28  4  0
  8 11  4  0
  9 29  4  0
 10 12  4  0
 11 24  1  0
 11 26  4  0
 12 25  1  0
 13 28  1  0
 14 20  4  0
 14 23  4  0
 15 17  4  0
 15 21  4  0
 16 19  4  0
 16 23  4  0
 17 22  4  0
 18 26  4  0
 19 24  4  0
 20 24  4  0
 22 27  4  0
 28 29  4  0
M  END
$$$$

 Created by Python create_sdf_string function

 29 33  0  0  0  0  0  0  0  0999 V2000
   10.7215   -3.3326   17.6437 C   0  0  0  0  0  0  0  0  0  0  0  0
    9.9489   -3.4675   24.6487 N   0  0  0  0  0  0  0  0  0  0  0  0
   10.0172   -4.4740   17.4101 C   0  0  0  0  0  0  0  0  0  0  0  0
    6.9051   -7.9575   16.4222 C   0  0  0  0  0  0  0  0  0  0  0  0
    8.9969   -6.3552   17.9668 N   0  0  0  0  0  0  0  0  0  0  0  0
   10.6702   -3.9051   22.4070 C   0  0  0  0  0  0  0  0  0  0  0  0
   11.0625   -3.0028   18.8894 C   0  0  0  0  0  0  0  0  0  0  0  0
    5.6180   -7.9194   16.1754 O   0  0  0  0  0  0  0  0  0  0  0  0
    9.7259   -5.3080   18.4485 C   0  0  0  0  0  0  0  0  0  0  0  0
    9.4578   -5.0200   16.3036 N   0  0  0  0  0  0  0  0  0  0  0  0
    5.0287   -8.9365   16.8223 C   0  0  0  0  0  0  0  0  0  0  0  0
    8.7742   -6.1498   16.6764 C   0  0  0  0  0  0  0  0  0  0  0  0
   10.9418   -3.4032   21.2053 O   0  0  0  0  0  0  0  0  0  0  0  0
    1.4797   -8.6258   16.2950 C   0  0  0  0  0  0  0  0  0  0  0  0
    9.2861   -1.2743   25.3585 C   0  0  0  0  0  0  0  0  0  0  0  0
    1.8892  -10.3985   17.7511 N   0  0  0  0  0  0  0  0  0  0  0  0
    9.6210   -0.6952   24.0976 C   0  0  0  0  0  0  0  0  0  0  0  0
    7.0792   -9.0217   17.1429 C   0  0  0  0  0  0  0  0  0  0  0  0
    3.1713  -10.1816   17.6634 C   0  0  0  0  0  0  0  0  0  0  0  0
    2.7878   -8.3822   16.2137 C   0  0  0  0  0  0  0  0  0  0  0  0
    9.4601   -2.6590   25.6528 C   0  0  0  0  0  0  0  0  0  0  0  0
   10.1182   -1.5672   23.1165 C   0  0  0  0  0  0  0  0  0  0  0  0
    1.0552   -9.6360   17.0650 C   0  0  0  0  0  0  0  0  0  0  0  0
    3.6519   -9.1783   16.9039 C   0  0  0  0  0  0  0  0  0  0  0  0
    7.8675   -7.0096   15.9415 C   0  0  0  0  0  0  0  0  0  0  0  0
    5.9733   -9.6553   17.3832 N   0  0  0  0  0  0  0  0  0  0  0  0
   10.2411   -2.9363   23.4301 C   0  0  0  0  0  0  0  0  0  0  0  0
   10.7288   -3.8197   19.9525 C   0  0  0  0  0  0  0  0  0  0  0  0
   10.1189   -5.0054   19.6987 C   0  0  0  0  0  0  0  0  0  0  0  0
  1  3  4  0
  1  7  4  0
  2 21  4  0
  2 27  4  0
  3  9  4  0
  3 10  4  0
  4  8  4  0
  4 18  4  0
  4 25  1  0
  5  9  4  0
  5 12  4  0
  6 13  1  0
  6 27  1  0
  7 28  4  0
  8 11  4  0
  9 29  4  0
 10 12  4  0
 11 24  1  0
 11 26  4  0
 12 25  1  0
 13 28  1  0
 14 20  4  0
 14 23  4  0
 15 17  4  0
 15 21  4  0
 16 19  4  0
 16 23  4  0
 17 22  4  0
 18 26  4  0
 19 24  4  0
 20 24  4  0
 22 27  4  0
 28 29  4  0
M  END
$$$$

 Created by Python create_sdf_string function

 29 33  0  0  0  0  0  0  0  0999 V2000
   10.7215   -3.3326   17.6437 C   0  0  0  0  0  0  0  0  0  0  0  0
    9.9489   -3.4675   24.6487 N   0  0  0  0  0  0  0  0  0  0  0  0
   10.0172   -4.4740   17.4101 C   0  0  0  0  0  0  0  0  0  0  0  0
    6.9051   -7.9575   16.4222 C   0  0  0  0  0  0  0  0  0  0  0  0
    8.9969   -6.3552   17.9668 N   0  0  0  0  0  0  0  0  0  0  0  0
   10.6702   -3.9051   22.4070 C   0  0  0  0  0  0  0  0  0  0  0  0
   11.0625   -3.0028   18.8894 C   0  0  0  0  0  0  0  0  0  0  0  0
    5.6180   -7.9194   16.1754 O   0  0  0  0  0  0  0  0  0  0  0  0
    9.7259   -5.3080   18.4485 C   0  0  0  0  0  0  0  0  0  0  0  0
    9.4578   -5.0200   16.3036 N   0  0  0  0  0  0  0  0  0  0  0  0
    5.0287   -8.9365   16.8223 C   0  0  0  0  0  0  0  0  0  0  0  0
    8.7742   -6.1498   16.6764 C   0  0  0  0  0  0  0  0  0  0  0  0
   10.9418   -3.4032   21.2053 O   0  0  0  0  0  0  0  0  0  0  0  0
    1.4797   -8.6258   16.2950 C   0  0  0  0  0  0  0  0  0  0  0  0
    9.2861   -1.2743   25.3585 C   0  0  0  0  0  0  0  0  0  0  0  0
    1.8892  -10.3985   17.7511 N   0  0  0  0  0  0  0  0  0  0  0  0
    9.6210   -0.6952   24.0976 C   0  0  0  0  0  0  0  0  0  0  0  0
    7.0792   -9.0217   17.1429 C   0  0  0  0  0  0  0  0  0  0  0  0
    3.1713  -10.1816   17.6634 C   0  0  0  0  0  0  0  0  0  0  0  0
    2.7878   -8.3822   16.2137 C   0  0  0  0  0  0  0  0  0  0  0  0
    9.4601   -2.6590   25.6528 C   0  0  0  0  0  0  0  0  0  0  0  0
   10.1182   -1.5672   23.1165 C   0  0  0  0  0  0  0  0  0  0  0  0
    1.0552   -9.6360   17.0650 C   0  0  0  0  0  0  0  0  0  0  0  0
    3.6519   -9.1783   16.9039 C   0  0  0  0  0  0  0  0  0  0  0  0
    7.8675   -7.0096   15.9415 C   0  0  0  0  0  0  0  0  0  0  0  0
    5.9733   -9.6553   17.3832 N   0  0  0  0  0  0  0  0  0  0  0  0
   10.2411   -2.9363   23.4301 C   0  0  0  0  0  0  0  0  0  0  0  0
   10.7288   -3.8197   19.9525 C   0  0  0  0  0  0  0  0  0  0  0  0
   10.1189   -5.0054   19.6987 C   0  0  0  0  0  0  0  0  0  0  0  0
  1  3  4  0
  1  7  4  0
  2 21  4  0
  2 27  4  0
  3  9  4  0
  3 10  4  0
  4  8  4  0
  4 18  4  0
  4 25  1  0
  5  9  4  0
  5 12  4  0
  6 13  1  0
  6 27  1  0
  7 28  4  0
  8 11  4  0
  9 29  4  0
 10 12  4  0
 11 24  1  0
 11 26  4  0
 12 25  1  0
 13 28  1  0
 14 20  4  0
 14 23  4  0
 15 17  4  0
 15 21  4  0
 16 19  4  0
 16 23  4  0
 17 22  4  0
 18 26  4  0
 19 24  4  0
 20 24  4  0
 22 27  4  0
 28 29  4  0
M  END
$$$$

 Created by Python create_sdf_string function

 29 33  0  0  0  0  0  0  0  0999 V2000
   10.7215   -3.3326   17.6437 C   0  0  0  0  0  0  0  0  0  0  0  0
    9.9489   -3.4675   24.6487 N   0  0  0  0  0  0  0  0  0  0  0  0
   10.0172   -4.4740   17.4101 C   0  0  0  0  0  0  0  0  0  0  0  0
    6.9051   -7.9575   16.4222 C   0  0  0  0  0  0  0  0  0  0  0  0
    8.9969   -6.3552   17.9668 N   0  0  0  0  0  0  0  0  0  0  0  0
   10.6702   -3.9051   22.4070 C   0  0  0  0  0  0  0  0  0  0  0  0
   11.0625   -3.0028   18.8894 C   0  0  0  0  0  0  0  0  0  0  0  0
    5.6180   -7.9194   16.1754 O   0  0  0  0  0  0  0  0  0  0  0  0
    9.7259   -5.3080   18.4485 C   0  0  0  0  0  0  0  0  0  0  0  0
    9.4578   -5.0200   16.3036 N   0  0  0  0  0  0  0  0  0  0  0  0
    5.0287   -8.9365   16.8223 C   0  0  0  0  0  0  0  0  0  0  0  0
    8.7742   -6.1498   16.6764 C   0  0  0  0  0  0  0  0  0  0  0  0
   10.9418   -3.4032   21.2053 O   0  0  0  0  0  0  0  0  0  0  0  0
    1.4797   -8.6258   16.2950 C   0  0  0  0  0  0  0  0  0  0  0  0
    9.2861   -1.2743   25.3585 C   0  0  0  0  0  0  0  0  0  0  0  0
    1.8892  -10.3985   17.7511 N   0  0  0  0  0  0  0  0  0  0  0  0
    9.6210   -0.6952   24.0976 C   0  0  0  0  0  0  0  0  0  0  0  0
    7.0792   -9.0217   17.1429 C   0  0  0  0  0  0  0  0  0  0  0  0
    3.1713  -10.1816   17.6634 C   0  0  0  0  0  0  0  0  0  0  0  0
    2.7878   -8.3822   16.2137 C   0  0  0  0  0  0  0  0  0  0  0  0
    9.4601   -2.6590   25.6528 C   0  0  0  0  0  0  0  0  0  0  0  0
   10.1182   -1.5672   23.1165 C   0  0  0  0  0  0  0  0  0  0  0  0
    1.0552   -9.6360   17.0650 C   0  0  0  0  0  0  0  0  0  0  0  0
    3.6519   -9.1783   16.9039 C   0  0  0  0  0  0  0  0  0  0  0  0
    7.8675   -7.0096   15.9415 C   0  0  0  0  0  0  0  0  0  0  0  0
    5.9733   -9.6553   17.3832 N   0  0  0  0  0  0  0  0  0  0  0  0
   10.2411   -2.9363   23.4301 C   0  0  0  0  0  0  0  0  0  0  0  0
   10.7288   -3.8197   19.9525 C   0  0  0  0  0  0  0  0  0  0  0  0
   10.1189   -5.0054   19.6987 C   0  0  0  0  0  0  0  0  0  0  0  0
  1  3  4  0
  1  7  4  0
  2 21  4  0
  2 27  4  0
  3  9  4  0
  3 10  4  0
  4  8  4  0
  4 18  4  0
  4 25  1  0
  5  9  4  0
  5 12  4  0
  6 13  1  0
  6 27  1  0
  7 28  4  0
  8 11  4  0
  9 29  4  0
 10 12  4  0
 11 24  1  0
 11 26  4  0
 12 25  1  0
 13 28  1  0
 14 20  4  0
 14 23  4  0
 15 17  4  0
 15 21  4  0
 16 19  4  0
 16 23  4  0
 17 22  4  0
 18 26  4  0
 19 24  4  0
 20 24  4  0
 22 27  4  0
 28 29  4  0
M  END
$$$$

 Created by Python create_sdf_string function

 29 33  0  0  0  0  0  0  0  0999 V2000
   10.7215   -3.3326   17.6437 C   0  0  0  0  0  0  0  0  0  0  0  0
    9.9489   -3.4675   24.6487 N   0  0  0  0  0  0  0  0  0  0  0  0
   10.0172   -4.4740   17.4101 C   0  0  0  0  0  0  0  0  0  0  0  0
    6.9051   -7.9575   16.4222 C   0  0  0  0  0  0  0  0  0  0  0  0
    8.9969   -6.3552   17.9668 N   0  0  0  0  0  0  0  0  0  0  0  0
   10.6702   -3.9051   22.4070 C   0  0  0  0  0  0  0  0  0  0  0  0
   11.0625   -3.0028   18.8894 C   0  0  0  0  0  0  0  0  0  0  0  0
    5.6180   -7.9194   16.1754 O   0  0  0  0  0  0  0  0  0  0  0  0
    9.7259   -5.3080   18.4485 C   0  0  0  0  0  0  0  0  0  0  0  0
    9.4578   -5.0200   16.3036 N   0  0  0  0  0  0  0  0  0  0  0  0
    5.0287   -8.9365   16.8223 C   0  0  0  0  0  0  0  0  0  0  0  0
    8.7742   -6.1498   16.6764 C   0  0  0  0  0  0  0  0  0  0  0  0
   10.9418   -3.4032   21.2053 O   0  0  0  0  0  0  0  0  0  0  0  0
    1.4797   -8.6258   16.2950 C   0  0  0  0  0  0  0  0  0  0  0  0
    9.2861   -1.2743   25.3585 C   0  0  0  0  0  0  0  0  0  0  0  0
    1.8892  -10.3985   17.7511 N   0  0  0  0  0  0  0  0  0  0  0  0
    9.6210   -0.6952   24.0976 C   0  0  0  0  0  0  0  0  0  0  0  0
    7.0792   -9.0217   17.1429 C   0  0  0  0  0  0  0  0  0  0  0  0
    3.1713  -10.1816   17.6634 C   0  0  0  0  0  0  0  0  0  0  0  0
    2.7878   -8.3822   16.2137 C   0  0  0  0  0  0  0  0  0  0  0  0
    9.4601   -2.6590   25.6528 C   0  0  0  0  0  0  0  0  0  0  0  0
   10.1182   -1.5672   23.1165 C   0  0  0  0  0  0  0  0  0  0  0  0
    1.0552   -9.6360   17.0650 C   0  0  0  0  0  0  0  0  0  0  0  0
    3.6519   -9.1783   16.9039 C   0  0  0  0  0  0  0  0  0  0  0  0
    7.8675   -7.0096   15.9415 C   0  0  0  0  0  0  0  0  0  0  0  0
    5.9733   -9.6553   17.3832 N   0  0  0  0  0  0  0  0  0  0  0  0
   10.2411   -2.9363   23.4301 C   0  0  0  0  0  0  0  0  0  0  0  0
   10.7288   -3.8197   19.9525 C   0  0  0  0  0  0  0  0  0  0  0  0
   10.1189   -5.0054   19.6987 C   0  0  0  0  0  0  0  0  0  0  0  0
  1  3  4  0
  1  7  4  0
  2 21  4  0
  2 27  4  0
  3  9  4  0
  3 10  4  0
  4  8  4  0
  4 18  4  0
  4 25  1  0
  5  9  4  0
  5 12  4  0
  6 13  1  0
  6 27  1  0
  7 28  4  0
  8 11  4  0
  9 29  4  0
 10 12  4  0
 11 24  1  0
 11 26  4  0
 12 25  1  0
 13 28  1  0
 14 20  4  0
 14 23  4  0
 15 17  4  0
 15 21  4  0
 16 19  4  0
 16 23  4  0
 17 22  4  0
 18 26  4  0
 19 24  4  0
 20 24  4  0
 22 27  4  0
 28 29  4  0
M  END
$$$$

 Created by Python create_sdf_string function

 29 33  0  0  0  0  0  0  0  0999 V2000
   10.7215   -3.3326   17.6437 C   0  0  0  0  0  0  0  0  0  0  0  0
    9.9489   -3.4675   24.6487 N   0  0  0  0  0  0  0  0  0  0  0  0
   10.0172   -4.4740   17.4101 C   0  0  0  0  0  0  0  0  0  0  0  0
    6.9051   -7.9575   16.4222 C   0  0  0  0  0  0  0  0  0  0  0  0
    8.9969   -6.3552   17.9668 N   0  0  0  0  0  0  0  0  0  0  0  0
   10.6702   -3.9051   22.4070 C   0  0  0  0  0  0  0  0  0  0  0  0
   11.0625   -3.0028   18.8894 C   0  0  0  0  0  0  0  0  0  0  0  0
    5.6180   -7.9194   16.1754 O   0  0  0  0  0  0  0  0  0  0  0  0
    9.7259   -5.3080   18.4485 C   0  0  0  0  0  0  0  0  0  0  0  0
    9.4578   -5.0200   16.3036 N   0  0  0  0  0  0  0  0  0  0  0  0
    5.0287   -8.9365   16.8223 C   0  0  0  0  0  0  0  0  0  0  0  0
    8.7742   -6.1498   16.6764 C   0  0  0  0  0  0  0  0  0  0  0  0
   10.9418   -3.4032   21.2053 O   0  0  0  0  0  0  0  0  0  0  0  0
    1.4797   -8.6258   16.2950 C   0  0  0  0  0  0  0  0  0  0  0  0
    9.2861   -1.2743   25.3585 C   0  0  0  0  0  0  0  0  0  0  0  0
    1.8892  -10.3985   17.7511 N   0  0  0  0  0  0  0  0  0  0  0  0
    9.6210   -0.6952   24.0976 C   0  0  0  0  0  0  0  0  0  0  0  0
    7.0792   -9.0217   17.1429 C   0  0  0  0  0  0  0  0  0  0  0  0
    3.1713  -10.1816   17.6634 C   0  0  0  0  0  0  0  0  0  0  0  0
    2.7878   -8.3822   16.2137 C   0  0  0  0  0  0  0  0  0  0  0  0
    9.4601   -2.6590   25.6528 C   0  0  0  0  0  0  0  0  0  0  0  0
   10.1182   -1.5672   23.1165 C   0  0  0  0  0  0  0  0  0  0  0  0
    1.0552   -9.6360   17.0650 C   0  0  0  0  0  0  0  0  0  0  0  0
    3.6519   -9.1783   16.9039 C   0  0  0  0  0  0  0  0  0  0  0  0
    7.8675   -7.0096   15.9415 C   0  0  0  0  0  0  0  0  0  0  0  0
    5.9733   -9.6553   17.3832 N   0  0  0  0  0  0  0  0  0  0  0  0
   10.2411   -2.9363   23.4301 C   0  0  0  0  0  0  0  0  0  0  0  0
   10.7288   -3.8197   19.9525 C   0  0  0  0  0  0  0  0  0  0  0  0
   10.1189   -5.0054   19.6987 C   0  0  0  0  0  0  0  0  0  0  0  0
  1  3  4  0
  1  7  4  0
  2 21  4  0
  2 27  4  0
  3  9  4  0
  3 10  4  0
  4  8  4  0
  4 18  4  0
  4 25  1  0
  5  9  4  0
  5 12  4  0
  6 13  1  0
  6 27  1  0
  7 28  4  0
  8 11  4  0
  9 29  4  0
 10 12  4  0
 11 24  1  0
 11 26  4  0
 12 25  1  0
 13 28  1  0
 14 20  4  0
 14 23  4  0
 15 17  4  0
 15 21  4  0
 16 19  4  0
 16 23  4  0
 17 22  4  0
 18 26  4  0
 19 24  4  0
 20 24  4  0
 22 27  4  0
 28 29  4  0
M  END
$$$$

 Created by Python create_sdf_string function

 29 33  0  0  0  0  0  0  0  0999 V2000
   10.7215   -3.3326   17.6437 C   0  0  0  0  0  0  0  0  0  0  0  0
    9.9489   -3.4675   24.6487 N   0  0  0  0  0  0  0  0  0  0  0  0
   10.0172   -4.4740   17.4101 C   0  0  0  0  0  0  0  0  0  0  0  0
    6.9051   -7.9575   16.4222 C   0  0  0  0  0  0  0  0  0  0  0  0
    8.9969   -6.3552   17.9668 N   0  0  0  0  0  0  0  0  0  0  0  0
   10.6702   -3.9051   22.4070 C   0  0  0  0  0  0  0  0  0  0  0  0
   11.0625   -3.0028   18.8894 C   0  0  0  0  0  0  0  0  0  0  0  0
    5.6180   -7.9194   16.1754 O   0  0  0  0  0  0  0  0  0  0  0  0
    9.7259   -5.3080   18.4485 C   0  0  0  0  0  0  0  0  0  0  0  0
    9.4578   -5.0200   16.3036 N   0  0  0  0  0  0  0  0  0  0  0  0
    5.0287   -8.9365   16.8223 C   0  0  0  0  0  0  0  0  0  0  0  0
    8.7742   -6.1498   16.6764 C   0  0  0  0  0  0  0  0  0  0  0  0
   10.9418   -3.4032   21.2053 O   0  0  0  0  0  0  0  0  0  0  0  0
    1.4797   -8.6258   16.2950 C   0  0  0  0  0  0  0  0  0  0  0  0
    9.2861   -1.2743   25.3585 C   0  0  0  0  0  0  0  0  0  0  0  0
    1.8892  -10.3985   17.7511 N   0  0  0  0  0  0  0  0  0  0  0  0
    9.6210   -0.6952   24.0976 C   0  0  0  0  0  0  0  0  0  0  0  0
    7.0792   -9.0217   17.1429 C   0  0  0  0  0  0  0  0  0  0  0  0
    3.1713  -10.1816   17.6634 C   0  0  0  0  0  0  0  0  0  0  0  0
    2.7878   -8.3822   16.2137 C   0  0  0  0  0  0  0  0  0  0  0  0
    9.4601   -2.6590   25.6528 C   0  0  0  0  0  0  0  0  0  0  0  0
   10.1182   -1.5672   23.1165 C   0  0  0  0  0  0  0  0  0  0  0  0
    1.0552   -9.6360   17.0650 C   0  0  0  0  0  0  0  0  0  0  0  0
    3.6519   -9.1783   16.9039 C   0  0  0  0  0  0  0  0  0  0  0  0
    7.8675   -7.0096   15.9415 C   0  0  0  0  0  0  0  0  0  0  0  0
    5.9733   -9.6553   17.3832 N   0  0  0  0  0  0  0  0  0  0  0  0
   10.2411   -2.9363   23.4301 C   0  0  0  0  0  0  0  0  0  0  0  0
   10.7288   -3.8197   19.9525 C   0  0  0  0  0  0  0  0  0  0  0  0
   10.1189   -5.0054   19.6987 C   0  0  0  0  0  0  0  0  0  0  0  0
  1  3  4  0
  1  7  4  0
  2 21  4  0
  2 27  4  0
  3  9  4  0
  3 10  4  0
  4  8  4  0
  4 18  4  0
  4 25  1  0
  5  9  4  0
  5 12  4  0
  6 13  1  0
  6 27  1  0
  7 28  4  0
  8 11  4  0
  9 29  4  0
 10 12  4  0
 11 24  1  0
 11 26  4  0
 12 25  1  0
 13 28  1  0
 14 20  4  0
 14 23  4  0
 15 17  4  0
 15 21  4  0
 16 19  4  0
 16 23  4  0
 17 22  4  0
 18 26  4  0
 19 24  4  0
 20 24  4  0
 22 27  4  0
 28 29  4  0
M  END
$$$$

 Created by Python create_sdf_string function

 29 33  0  0  0  0  0  0  0  0999 V2000
   10.7215   -3.3326   17.6437 C   0  0  0  0  0  0  0  0  0  0  0  0
    9.9489   -3.4675   24.6487 N   0  0  0  0  0  0  0  0  0  0  0  0
   10.0172   -4.4740   17.4101 C   0  0  0  0  0  0  0  0  0  0  0  0
    6.9051   -7.9575   16.4222 C   0  0  0  0  0  0  0  0  0  0  0  0
    8.9969   -6.3552   17.9668 N   0  0  0  0  0  0  0  0  0  0  0  0
   10.6702   -3.9051   22.4070 C   0  0  0  0  0  0  0  0  0  0  0  0
   11.0625   -3.0028   18.8894 C   0  0  0  0  0  0  0  0  0  0  0  0
    5.6180   -7.9194   16.1754 O   0  0  0  0  0  0  0  0  0  0  0  0
    9.7259   -5.3080   18.4485 C   0  0  0  0  0  0  0  0  0  0  0  0
    9.4578   -5.0200   16.3036 N   0  0  0  0  0  0  0  0  0  0  0  0
    5.0287   -8.9365   16.8223 C   0  0  0  0  0  0  0  0  0  0  0  0
    8.7742   -6.1498   16.6764 C   0  0  0  0  0  0  0  0  0  0  0  0
   10.9418   -3.4032   21.2053 O   0  0  0  0  0  0  0  0  0  0  0  0
    1.4797   -8.6258   16.2950 C   0  0  0  0  0  0  0  0  0  0  0  0
    9.2861   -1.2743   25.3585 C   0  0  0  0  0  0  0  0  0  0  0  0
    1.8892  -10.3985   17.7511 N   0  0  0  0  0  0  0  0  0  0  0  0
    9.6210   -0.6952   24.0976 C   0  0  0  0  0  0  0  0  0  0  0  0
    7.0792   -9.0217   17.1429 C   0  0  0  0  0  0  0  0  0  0  0  0
    3.1713  -10.1816   17.6634 C   0  0  0  0  0  0  0  0  0  0  0  0
    2.7878   -8.3822   16.2137 C   0  0  0  0  0  0  0  0  0  0  0  0
    9.4601   -2.6590   25.6528 C   0  0  0  0  0  0  0  0  0  0  0  0
   10.1182   -1.5672   23.1165 C   0  0  0  0  0  0  0  0  0  0  0  0
    1.0552   -9.6360   17.0650 C   0  0  0  0  0  0  0  0  0  0  0  0
    3.6519   -9.1783   16.9039 C   0  0  0  0  0  0  0  0  0  0  0  0
    7.8675   -7.0096   15.9415 C   0  0  0  0  0  0  0  0  0  0  0  0
    5.9733   -9.6553   17.3832 N   0  0  0  0  0  0  0  0  0  0  0  0
   10.2411   -2.9363   23.4301 C   0  0  0  0  0  0  0  0  0  0  0  0
   10.7288   -3.8197   19.9525 C   0  0  0  0  0  0  0  0  0  0  0  0
   10.1189   -5.0054   19.6987 C   0  0  0  0  0  0  0  0  0  0  0  0
  1  3  4  0
  1  7  4  0
  2 21  4  0
  2 27  4  0
  3  9  4  0
  3 10  4  0
  4  8  4  0
  4 18  4  0
  4 25  1  0
  5  9  4  0
  5 12  4  0
  6 13  1  0
  6 27  1  0
  7 28  4  0
  8 11  4  0
  9 29  4  0
 10 12  4  0
 11 24  1  0
 11 26  4  0
 12 25  1  0
 13 28  1  0
 14 20  4  0
 14 23  4  0
 15 17  4  0
 15 21  4  0
 16 19  4  0
 16 23  4  0
 17 22  4  0
 18 26  4  0
 19 24  4  0
 20 24  4  0
 22 27  4  0
 28 29  4  0
M  END
$$$$

 Created by Python create_sdf_string function

 29 33  0  0  0  0  0  0  0  0999 V2000
   10.7215   -3.3326   17.6437 C   0  0  0  0  0  0  0  0  0  0  0  0
    9.9489   -3.4675   24.6487 N   0  0  0  0  0  0  0  0  0  0  0  0
   10.0172   -4.4740   17.4101 C   0  0  0  0  0  0  0  0  0  0  0  0
    6.9051   -7.9575   16.4222 C   0  0  0  0  0  0  0  0  0  0  0  0
    8.9969   -6.3552   17.9668 N   0  0  0  0  0  0  0  0  0  0  0  0
   10.6702   -3.9051   22.4070 C   0  0  0  0  0  0  0  0  0  0  0  0
   11.0625   -3.0028   18.8894 C   0  0  0  0  0  0  0  0  0  0  0  0
    5.6180   -7.9194   16.1754 O   0  0  0  0  0  0  0  0  0  0  0  0
    9.7259   -5.3080   18.4485 C   0  0  0  0  0  0  0  0  0  0  0  0
    9.4578   -5.0200   16.3036 N   0  0  0  0  0  0  0  0  0  0  0  0
    5.0287   -8.9365   16.8223 C   0  0  0  0  0  0  0  0  0  0  0  0
    8.7742   -6.1498   16.6764 C   0  0  0  0  0  0  0  0  0  0  0  0
   10.9418   -3.4032   21.2053 O   0  0  0  0  0  0  0  0  0  0  0  0
    1.4797   -8.6258   16.2950 C   0  0  0  0  0  0  0  0  0  0  0  0
    9.2861   -1.2743   25.3585 C   0  0  0  0  0  0  0  0  0  0  0  0
    1.8892  -10.3985   17.7511 N   0  0  0  0  0  0  0  0  0  0  0  0
    9.6210   -0.6952   24.0976 C   0  0  0  0  0  0  0  0  0  0  0  0
    7.0792   -9.0217   17.1429 C   0  0  0  0  0  0  0  0  0  0  0  0
    3.1713  -10.1816   17.6634 C   0  0  0  0  0  0  0  0  0  0  0  0
    2.7878   -8.3822   16.2137 C   0  0  0  0  0  0  0  0  0  0  0  0
    9.4601   -2.6590   25.6528 C   0  0  0  0  0  0  0  0  0  0  0  0
   10.1182   -1.5672   23.1165 C   0  0  0  0  0  0  0  0  0  0  0  0
    1.0552   -9.6360   17.0650 C   0  0  0  0  0  0  0  0  0  0  0  0
    3.6519   -9.1783   16.9039 C   0  0  0  0  0  0  0  0  0  0  0  0
    7.8675   -7.0096   15.9415 C   0  0  0  0  0  0  0  0  0  0  0  0
    5.9733   -9.6553   17.3832 N   0  0  0  0  0  0  0  0  0  0  0  0
   10.2411   -2.9363   23.4301 C   0  0  0  0  0  0  0  0  0  0  0  0
   10.7288   -3.8197   19.9525 C   0  0  0  0  0  0  0  0  0  0  0  0
   10.1189   -5.0054   19.6987 C   0  0  0  0  0  0  0  0  0  0  0  0
  1  3  4  0
  1  7  4  0
  2 21  4  0
  2 27  4  0
  3  9  4  0
  3 10  4  0
  4  8  4  0
  4 18  4  0
  4 25  1  0
  5  9  4  0
  5 12  4  0
  6 13  1  0
  6 27  1  0
  7 28  4  0
  8 11  4  0
  9 29  4  0
 10 12  4  0
 11 24  1  0
 11 26  4  0
 12 25  1  0
 13 28  1  0
 14 20  4  0
 14 23  4  0
 15 17  4  0
 15 21  4  0
 16 19  4  0
 16 23  4  0
 17 22  4  0
 18 26  4  0
 19 24  4  0
 20 24  4  0
 22 27  4  0
 28 29  4  0
M  END
$$$$

 Created by Python create_sdf_string function

 29 33  0  0  0  0  0  0  0  0999 V2000
   10.7215   -3.3326   17.6437 C   0  0  0  0  0  0  0  0  0  0  0  0
    9.9489   -3.4675   24.6487 N   0  0  0  0  0  0  0  0  0  0  0  0
   10.0172   -4.4740   17.4101 C   0  0  0  0  0  0  0  0  0  0  0  0
    6.9051   -7.9575   16.4222 C   0  0  0  0  0  0  0  0  0  0  0  0
    8.9969   -6.3552   17.9668 N   0  0  0  0  0  0  0  0  0  0  0  0
   10.6702   -3.9051   22.4070 C   0  0  0  0  0  0  0  0  0  0  0  0
   11.0625   -3.0028   18.8894 C   0  0  0  0  0  0  0  0  0  0  0  0
    5.6180   -7.9194   16.1754 O   0  0  0  0  0  0  0  0  0  0  0  0
    9.7259   -5.3080   18.4485 C   0  0  0  0  0  0  0  0  0  0  0  0
    9.4578   -5.0200   16.3036 N   0  0  0  0  0  0  0  0  0  0  0  0
    5.0287   -8.9365   16.8223 C   0  0  0  0  0  0  0  0  0  0  0  0
    8.7742   -6.1498   16.6764 C   0  0  0  0  0  0  0  0  0  0  0  0
   10.9418   -3.4032   21.2053 O   0  0  0  0  0  0  0  0  0  0  0  0
    1.4797   -8.6258   16.2950 C   0  0  0  0  0  0  0  0  0  0  0  0
    9.2861   -1.2743   25.3585 C   0  0  0  0  0  0  0  0  0  0  0  0
    1.8892  -10.3985   17.7511 N   0  0  0  0  0  0  0  0  0  0  0  0
    9.6210   -0.6952   24.0976 C   0  0  0  0  0  0  0  0  0  0  0  0
    7.0792   -9.0217   17.1429 C   0  0  0  0  0  0  0  0  0  0  0  0
    3.1713  -10.1816   17.6634 C   0  0  0  0  0  0  0  0  0  0  0  0
    2.7878   -8.3822   16.2137 C   0  0  0  0  0  0  0  0  0  0  0  0
    9.4601   -2.6590   25.6528 C   0  0  0  0  0  0  0  0  0  0  0  0
   10.1182   -1.5672   23.1165 C   0  0  0  0  0  0  0  0  0  0  0  0
    1.0552   -9.6360   17.0650 C   0  0  0  0  0  0  0  0  0  0  0  0
    3.6519   -9.1783   16.9039 C   0  0  0  0  0  0  0  0  0  0  0  0
    7.8675   -7.0096   15.9415 C   0  0  0  0  0  0  0  0  0  0  0  0
    5.9733   -9.6553   17.3832 N   0  0  0  0  0  0  0  0  0  0  0  0
   10.2411   -2.9363   23.4301 C   0  0  0  0  0  0  0  0  0  0  0  0
   10.7288   -3.8197   19.9525 C   0  0  0  0  0  0  0  0  0  0  0  0
   10.1189   -5.0054   19.6987 C   0  0  0  0  0  0  0  0  0  0  0  0
  1  3  4  0
  1  7  4  0
  2 21  4  0
  2 27  4  0
  3  9  4  0
  3 10  4  0
  4  8  4  0
  4 18  4  0
  4 25  1  0
  5  9  4  0
  5 12  4  0
  6 13  1  0
  6 27  1  0
  7 28  4  0
  8 11  4  0
  9 29  4  0
 10 12  4  0
 11 24  1  0
 11 26  4  0
 12 25  1  0
 13 28  1  0
 14 20  4  0
 14 23  4  0
 15 17  4  0
 15 21  4  0
 16 19  4  0
 16 23  4  0
 17 22  4  0
 18 26  4  0
 19 24  4  0
 20 24  4  0
 22 27  4  0
 28 29  4  0
M  END
$$$$

 Created by Python create_sdf_string function

 29 33  0  0  0  0  0  0  0  0999 V2000
   10.7215   -3.3326   17.6437 C   0  0  0  0  0  0  0  0  0  0  0  0
    9.9489   -3.4675   24.6487 N   0  0  0  0  0  0  0  0  0  0  0  0
   10.0172   -4.4740   17.4101 C   0  0  0  0  0  0  0  0  0  0  0  0
    6.9051   -7.9575   16.4222 C   0  0  0  0  0  0  0  0  0  0  0  0
    8.9969   -6.3552   17.9668 N   0  0  0  0  0  0  0  0  0  0  0  0
   10.6702   -3.9051   22.4070 C   0  0  0  0  0  0  0  0  0  0  0  0
   11.0625   -3.0028   18.8894 C   0  0  0  0  0  0  0  0  0  0  0  0
    5.6180   -7.9194   16.1754 O   0  0  0  0  0  0  0  0  0  0  0  0
    9.7259   -5.3080   18.4485 C   0  0  0  0  0  0  0  0  0  0  0  0
    9.4578   -5.0200   16.3036 N   0  0  0  0  0  0  0  0  0  0  0  0
    5.0287   -8.9365   16.8223 C   0  0  0  0  0  0  0  0  0  0  0  0
    8.7742   -6.1498   16.6764 C   0  0  0  0  0  0  0  0  0  0  0  0
   10.9418   -3.4032   21.2053 O   0  0  0  0  0  0  0  0  0  0  0  0
    1.4797   -8.6258   16.2950 C   0  0  0  0  0  0  0  0  0  0  0  0
    9.2861   -1.2743   25.3585 C   0  0  0  0  0  0  0  0  0  0  0  0
    1.8892  -10.3985   17.7511 N   0  0  0  0  0  0  0  0  0  0  0  0
    9.6210   -0.6952   24.0976 C   0  0  0  0  0  0  0  0  0  0  0  0
    7.0792   -9.0217   17.1429 C   0  0  0  0  0  0  0  0  0  0  0  0
    3.1713  -10.1816   17.6634 C   0  0  0  0  0  0  0  0  0  0  0  0
    2.7878   -8.3822   16.2137 C   0  0  0  0  0  0  0  0  0  0  0  0
    9.4601   -2.6590   25.6528 C   0  0  0  0  0  0  0  0  0  0  0  0
   10.1182   -1.5672   23.1165 C   0  0  0  0  0  0  0  0  0  0  0  0
    1.0552   -9.6360   17.0650 C   0  0  0  0  0  0  0  0  0  0  0  0
    3.6519   -9.1783   16.9039 C   0  0  0  0  0  0  0  0  0  0  0  0
    7.8675   -7.0096   15.9415 C   0  0  0  0  0  0  0  0  0  0  0  0
    5.9733   -9.6553   17.3832 N   0  0  0  0  0  0  0  0  0  0  0  0
   10.2411   -2.9363   23.4301 C   0  0  0  0  0  0  0  0  0  0  0  0
   10.7288   -3.8197   19.9525 C   0  0  0  0  0  0  0  0  0  0  0  0
   10.1189   -5.0054   19.6987 C   0  0  0  0  0  0  0  0  0  0  0  0
  1  3  4  0
  1  7  4  0
  2 21  4  0
  2 27  4  0
  3  9  4  0
  3 10  4  0
  4  8  4  0
  4 18  4  0
  4 25  1  0
  5  9  4  0
  5 12  4  0
  6 13  1  0
  6 27  1  0
  7 28  4  0
  8 11  4  0
  9 29  4  0
 10 12  4  0
 11 24  1  0
 11 26  4  0
 12 25  1  0
 13 28  1  0
 14 20  4  0
 14 23  4  0
 15 17  4  0
 15 21  4  0
 16 19  4  0
 16 23  4  0
 17 22  4  0
 18 26  4  0
 19 24  4  0
 20 24  4  0
 22 27  4  0
 28 29  4  0
M  END
$$$$

 Created by Python create_sdf_string function

 29 33  0  0  0  0  0  0  0  0999 V2000
   10.7215   -3.3326   17.6437 C   0  0  0  0  0  0  0  0  0  0  0  0
    9.9489   -3.4675   24.6487 N   0  0  0  0  0  0  0  0  0  0  0  0
   10.0172   -4.4740   17.4101 C   0  0  0  0  0  0  0  0  0  0  0  0
    6.9051   -7.9575   16.4222 C   0  0  0  0  0  0  0  0  0  0  0  0
    8.9969   -6.3552   17.9668 N   0  0  0  0  0  0  0  0  0  0  0  0
   10.6702   -3.9051   22.4070 C   0  0  0  0  0  0  0  0  0  0  0  0
   11.0625   -3.0028   18.8894 C   0  0  0  0  0  0  0  0  0  0  0  0
    5.6180   -7.9194   16.1754 O   0  0  0  0  0  0  0  0  0  0  0  0
    9.7259   -5.3080   18.4485 C   0  0  0  0  0  0  0  0  0  0  0  0
    9.4578   -5.0200   16.3036 N   0  0  0  0  0  0  0  0  0  0  0  0
    5.0287   -8.9365   16.8223 C   0  0  0  0  0  0  0  0  0  0  0  0
    8.7742   -6.1498   16.6764 C   0  0  0  0  0  0  0  0  0  0  0  0
   10.9418   -3.4032   21.2053 O   0  0  0  0  0  0  0  0  0  0  0  0
    1.4797   -8.6258   16.2950 C   0  0  0  0  0  0  0  0  0  0  0  0
    9.2861   -1.2743   25.3585 C   0  0  0  0  0  0  0  0  0  0  0  0
    1.8892  -10.3985   17.7511 N   0  0  0  0  0  0  0  0  0  0  0  0
    9.6210   -0.6952   24.0976 C   0  0  0  0  0  0  0  0  0  0  0  0
    7.0792   -9.0217   17.1429 C   0  0  0  0  0  0  0  0  0  0  0  0
    3.1713  -10.1816   17.6634 C   0  0  0  0  0  0  0  0  0  0  0  0
    2.7878   -8.3822   16.2137 C   0  0  0  0  0  0  0  0  0  0  0  0
    9.4601   -2.6590   25.6528 C   0  0  0  0  0  0  0  0  0  0  0  0
   10.1182   -1.5672   23.1165 C   0  0  0  0  0  0  0  0  0  0  0  0
    1.0552   -9.6360   17.0650 C   0  0  0  0  0  0  0  0  0  0  0  0
    3.6519   -9.1783   16.9039 C   0  0  0  0  0  0  0  0  0  0  0  0
    7.8675   -7.0096   15.9415 C   0  0  0  0  0  0  0  0  0  0  0  0
    5.9733   -9.6553   17.3832 N   0  0  0  0  0  0  0  0  0  0  0  0
   10.2411   -2.9363   23.4301 C   0  0  0  0  0  0  0  0  0  0  0  0
   10.7288   -3.8197   19.9525 C   0  0  0  0  0  0  0  0  0  0  0  0
   10.1189   -5.0054   19.6987 C   0  0  0  0  0  0  0  0  0  0  0  0
  1  3  4  0
  1  7  4  0
  2 21  4  0
  2 27  4  0
  3  9  4  0
  3 10  4  0
  4  8  4  0
  4 18  4  0
  4 25  1  0
  5  9  4  0
  5 12  4  0
  6 13  1  0
  6 27  1  0
  7 28  4  0
  8 11  4  0
  9 29  4  0
 10 12  4  0
 11 24  1  0
 11 26  4  0
 12 25  1  0
 13 28  1  0
 14 20  4  0
 14 23  4  0
 15 17  4  0
 15 21  4  0
 16 19  4  0
 16 23  4  0
 17 22  4  0
 18 26  4  0
 19 24  4  0
 20 24  4  0
 22 27  4  0
 28 29  4  0
M  END
$$$$

 Created by Python create_sdf_string function

 29 33  0  0  0  0  0  0  0  0999 V2000
   10.7215   -3.3326   17.6437 C   0  0  0  0  0  0  0  0  0  0  0  0
    9.9489   -3.4675   24.6487 N   0  0  0  0  0  0  0  0  0  0  0  0
   10.0172   -4.4740   17.4101 C   0  0  0  0  0  0  0  0  0  0  0  0
    6.9051   -7.9575   16.4222 C   0  0  0  0  0  0  0  0  0  0  0  0
    8.9969   -6.3552   17.9668 N   0  0  0  0  0  0  0  0  0  0  0  0
   10.6702   -3.9051   22.4070 C   0  0  0  0  0  0  0  0  0  0  0  0
   11.0625   -3.0028   18.8894 C   0  0  0  0  0  0  0  0  0  0  0  0
    5.6180   -7.9194   16.1754 O   0  0  0  0  0  0  0  0  0  0  0  0
    9.7259   -5.3080   18.4485 C   0  0  0  0  0  0  0  0  0  0  0  0
    9.4578   -5.0200   16.3036 N   0  0  0  0  0  0  0  0  0  0  0  0
    5.0287   -8.9365   16.8223 C   0  0  0  0  0  0  0  0  0  0  0  0
    8.7742   -6.1498   16.6764 C   0  0  0  0  0  0  0  0  0  0  0  0
   10.9418   -3.4032   21.2053 O   0  0  0  0  0  0  0  0  0  0  0  0
    1.4797   -8.6258   16.2950 C   0  0  0  0  0  0  0  0  0  0  0  0
    9.2861   -1.2743   25.3585 C   0  0  0  0  0  0  0  0  0  0  0  0
    1.8892  -10.3985   17.7511 N   0  0  0  0  0  0  0  0  0  0  0  0
    9.6210   -0.6952   24.0976 C   0  0  0  0  0  0  0  0  0  0  0  0
    7.0792   -9.0217   17.1429 C   0  0  0  0  0  0  0  0  0  0  0  0
    3.1713  -10.1816   17.6634 C   0  0  0  0  0  0  0  0  0  0  0  0
    2.7878   -8.3822   16.2137 C   0  0  0  0  0  0  0  0  0  0  0  0
    9.4601   -2.6590   25.6528 C   0  0  0  0  0  0  0  0  0  0  0  0
   10.1182   -1.5672   23.1165 C   0  0  0  0  0  0  0  0  0  0  0  0
    1.0552   -9.6360   17.0650 C   0  0  0  0  0  0  0  0  0  0  0  0
    3.6519   -9.1783   16.9039 C   0  0  0  0  0  0  0  0  0  0  0  0
    7.8675   -7.0096   15.9415 C   0  0  0  0  0  0  0  0  0  0  0  0
    5.9733   -9.6553   17.3832 N   0  0  0  0  0  0  0  0  0  0  0  0
   10.2411   -2.9363   23.4301 C   0  0  0  0  0  0  0  0  0  0  0  0
   10.7288   -3.8197   19.9525 C   0  0  0  0  0  0  0  0  0  0  0  0
   10.1189   -5.0054   19.6987 C   0  0  0  0  0  0  0  0  0  0  0  0
  1  3  4  0
  1  7  4  0
  2 21  4  0
  2 27  4  0
  3  9  4  0
  3 10  4  0
  4  8  4  0
  4 18  4  0
  4 25  1  0
  5  9  4  0
  5 12  4  0
  6 13  1  0
  6 27  1  0
  7 28  4  0
  8 11  4  0
  9 29  4  0
 10 12  4  0
 11 24  1  0
 11 26  4  0
 12 25  1  0
 13 28  1  0
 14 20  4  0
 14 23  4  0
 15 17  4  0
 15 21  4  0
 16 19  4  0
 16 23  4  0
 17 22  4  0
 18 26  4  0
 19 24  4  0
 20 24  4  0
 22 27  4  0
 28 29  4  0
M  END
$$$$

 Created by Python create_sdf_string function

 29 33  0  0  0  0  0  0  0  0999 V2000
   10.7215   -3.3326   17.6437 C   0  0  0  0  0  0  0  0  0  0  0  0
    9.9489   -3.4675   24.6487 N   0  0  0  0  0  0  0  0  0  0  0  0
   10.0172   -4.4740   17.4101 C   0  0  0  0  0  0  0  0  0  0  0  0
    6.9051   -7.9575   16.4222 C   0  0  0  0  0  0  0  0  0  0  0  0
    8.9969   -6.3552   17.9668 N   0  0  0  0  0  0  0  0  0  0  0  0
   10.6702   -3.9051   22.4070 C   0  0  0  0  0  0  0  0  0  0  0  0
   11.0625   -3.0028   18.8894 C   0  0  0  0  0  0  0  0  0  0  0  0
    5.6180   -7.9194   16.1754 O   0  0  0  0  0  0  0  0  0  0  0  0
    9.7259   -5.3080   18.4485 C   0  0  0  0  0  0  0  0  0  0  0  0
    9.4578   -5.0200   16.3036 N   0  0  0  0  0  0  0  0  0  0  0  0
    5.0287   -8.9365   16.8223 C   0  0  0  0  0  0  0  0  0  0  0  0
    8.7742   -6.1498   16.6764 C   0  0  0  0  0  0  0  0  0  0  0  0
   10.9418   -3.4032   21.2053 O   0  0  0  0  0  0  0  0  0  0  0  0
    1.4797   -8.6258   16.2950 C   0  0  0  0  0  0  0  0  0  0  0  0
    9.2861   -1.2743   25.3585 C   0  0  0  0  0  0  0  0  0  0  0  0
    1.8892  -10.3985   17.7511 N   0  0  0  0  0  0  0  0  0  0  0  0
    9.6210   -0.6952   24.0976 C   0  0  0  0  0  0  0  0  0  0  0  0
    7.0792   -9.0217   17.1429 C   0  0  0  0  0  0  0  0  0  0  0  0
    3.1713  -10.1816   17.6634 C   0  0  0  0  0  0  0  0  0  0  0  0
    2.7878   -8.3822   16.2137 C   0  0  0  0  0  0  0  0  0  0  0  0
    9.4601   -2.6590   25.6528 C   0  0  0  0  0  0  0  0  0  0  0  0
   10.1182   -1.5672   23.1165 C   0  0  0  0  0  0  0  0  0  0  0  0
    1.0552   -9.6360   17.0650 C   0  0  0  0  0  0  0  0  0  0  0  0
    3.6519   -9.1783   16.9039 C   0  0  0  0  0  0  0  0  0  0  0  0
    7.8675   -7.0096   15.9415 C   0  0  0  0  0  0  0  0  0  0  0  0
    5.9733   -9.6553   17.3832 N   0  0  0  0  0  0  0  0  0  0  0  0
   10.2411   -2.9363   23.4301 C   0  0  0  0  0  0  0  0  0  0  0  0
   10.7288   -3.8197   19.9525 C   0  0  0  0  0  0  0  0  0  0  0  0
   10.1189   -5.0054   19.6987 C   0  0  0  0  0  0  0  0  0  0  0  0
  1  3  4  0
  1  7  4  0
  2 21  4  0
  2 27  4  0
  3  9  4  0
  3 10  4  0
  4  8  4  0
  4 18  4  0
  4 25  1  0
  5  9  4  0
  5 12  4  0
  6 13  1  0
  6 27  1  0
  7 28  4  0
  8 11  4  0
  9 29  4  0
 10 12  4  0
 11 24  1  0
 11 26  4  0
 12 25  1  0
 13 28  1  0
 14 20  4  0
 14 23  4  0
 15 17  4  0
 15 21  4  0
 16 19  4  0
 16 23  4  0
 17 22  4  0
 18 26  4  0
 19 24  4  0
 20 24  4  0
 22 27  4  0
 28 29  4  0
M  END
$$$$

 Created by Python create_sdf_string function

 29 33  0  0  0  0  0  0  0  0999 V2000
   10.7215   -3.3326   17.6437 C   0  0  0  0  0  0  0  0  0  0  0  0
    9.9489   -3.4675   24.6487 N   0  0  0  0  0  0  0  0  0  0  0  0
   10.0172   -4.4740   17.4101 C   0  0  0  0  0  0  0  0  0  0  0  0
    6.9051   -7.9575   16.4222 C   0  0  0  0  0  0  0  0  0  0  0  0
    8.9969   -6.3552   17.9668 N   0  0  0  0  0  0  0  0  0  0  0  0
   10.6702   -3.9051   22.4070 C   0  0  0  0  0  0  0  0  0  0  0  0
   11.0625   -3.0028   18.8894 C   0  0  0  0  0  0  0  0  0  0  0  0
    5.6180   -7.9194   16.1754 O   0  0  0  0  0  0  0  0  0  0  0  0
    9.7259   -5.3080   18.4485 C   0  0  0  0  0  0  0  0  0  0  0  0
    9.4578   -5.0200   16.3036 N   0  0  0  0  0  0  0  0  0  0  0  0
    5.0287   -8.9365   16.8223 C   0  0  0  0  0  0  0  0  0  0  0  0
    8.7742   -6.1498   16.6764 C   0  0  0  0  0  0  0  0  0  0  0  0
   10.9418   -3.4032   21.2053 O   0  0  0  0  0  0  0  0  0  0  0  0
    1.4797   -8.6258   16.2950 C   0  0  0  0  0  0  0  0  0  0  0  0
    9.2861   -1.2743   25.3585 C   0  0  0  0  0  0  0  0  0  0  0  0
    1.8892  -10.3985   17.7511 N   0  0  0  0  0  0  0  0  0  0  0  0
    9.6210   -0.6952   24.0976 C   0  0  0  0  0  0  0  0  0  0  0  0
    7.0792   -9.0217   17.1429 C   0  0  0  0  0  0  0  0  0  0  0  0
    3.1713  -10.1816   17.6634 C   0  0  0  0  0  0  0  0  0  0  0  0
    2.7878   -8.3822   16.2137 C   0  0  0  0  0  0  0  0  0  0  0  0
    9.4601   -2.6590   25.6528 C   0  0  0  0  0  0  0  0  0  0  0  0
   10.1182   -1.5672   23.1165 C   0  0  0  0  0  0  0  0  0  0  0  0
    1.0552   -9.6360   17.0650 C   0  0  0  0  0  0  0  0  0  0  0  0
    3.6519   -9.1783   16.9039 C   0  0  0  0  0  0  0  0  0  0  0  0
    7.8675   -7.0096   15.9415 C   0  0  0  0  0  0  0  0  0  0  0  0
    5.9733   -9.6553   17.3832 N   0  0  0  0  0  0  0  0  0  0  0  0
   10.2411   -2.9363   23.4301 C   0  0  0  0  0  0  0  0  0  0  0  0
   10.7288   -3.8197   19.9525 C   0  0  0  0  0  0  0  0  0  0  0  0
   10.1189   -5.0054   19.6987 C   0  0  0  0  0  0  0  0  0  0  0  0
  1  3  4  0
  1  7  4  0
  2 21  4  0
  2 27  4  0
  3  9  4  0
  3 10  4  0
  4  8  4  0
  4 18  4  0
  4 25  1  0
  5  9  4  0
  5 12  4  0
  6 13  1  0
  6 27  1  0
  7 28  4  0
  8 11  4  0
  9 29  4  0
 10 12  4  0
 11 24  1  0
 11 26  4  0
 12 25  1  0
 13 28  1  0
 14 20  4  0
 14 23  4  0
 15 17  4  0
 15 21  4  0
 16 19  4  0
 16 23  4  0
 17 22  4  0
 18 26  4  0
 19 24  4  0
 20 24  4  0
 22 27  4  0
 28 29  4  0
M  END
$$$$

 Created by Python create_sdf_string function

 29 33  0  0  0  0  0  0  0  0999 V2000
   10.7215   -3.3326   17.6437 C   0  0  0  0  0  0  0  0  0  0  0  0
    9.9489   -3.4675   24.6487 N   0  0  0  0  0  0  0  0  0  0  0  0
   10.0172   -4.4740   17.4101 C   0  0  0  0  0  0  0  0  0  0  0  0
    6.9051   -7.9575   16.4222 C   0  0  0  0  0  0  0  0  0  0  0  0
    8.9969   -6.3552   17.9668 N   0  0  0  0  0  0  0  0  0  0  0  0
   10.6702   -3.9051   22.4070 C   0  0  0  0  0  0  0  0  0  0  0  0
   11.0625   -3.0028   18.8894 C   0  0  0  0  0  0  0  0  0  0  0  0
    5.6180   -7.9194   16.1754 O   0  0  0  0  0  0  0  0  0  0  0  0
    9.7259   -5.3080   18.4485 C   0  0  0  0  0  0  0  0  0  0  0  0
    9.4578   -5.0200   16.3036 N   0  0  0  0  0  0  0  0  0  0  0  0
    5.0287   -8.9365   16.8223 C   0  0  0  0  0  0  0  0  0  0  0  0
    8.7742   -6.1498   16.6764 C   0  0  0  0  0  0  0  0  0  0  0  0
   10.9418   -3.4032   21.2053 O   0  0  0  0  0  0  0  0  0  0  0  0
    1.4797   -8.6258   16.2950 C   0  0  0  0  0  0  0  0  0  0  0  0
    9.2861   -1.2743   25.3585 C   0  0  0  0  0  0  0  0  0  0  0  0
    1.8892  -10.3985   17.7511 N   0  0  0  0  0  0  0  0  0  0  0  0
    9.6210   -0.6952   24.0976 C   0  0  0  0  0  0  0  0  0  0  0  0
    7.0792   -9.0217   17.1429 C   0  0  0  0  0  0  0  0  0  0  0  0
    3.1713  -10.1816   17.6634 C   0  0  0  0  0  0  0  0  0  0  0  0
    2.7878   -8.3822   16.2137 C   0  0  0  0  0  0  0  0  0  0  0  0
    9.4601   -2.6590   25.6528 C   0  0  0  0  0  0  0  0  0  0  0  0
   10.1182   -1.5672   23.1165 C   0  0  0  0  0  0  0  0  0  0  0  0
    1.0552   -9.6360   17.0650 C   0  0  0  0  0  0  0  0  0  0  0  0
    3.6519   -9.1783   16.9039 C   0  0  0  0  0  0  0  0  0  0  0  0
    7.8675   -7.0096   15.9415 C   0  0  0  0  0  0  0  0  0  0  0  0
    5.9733   -9.6553   17.3832 N   0  0  0  0  0  0  0  0  0  0  0  0
   10.2411   -2.9363   23.4301 C   0  0  0  0  0  0  0  0  0  0  0  0
   10.7288   -3.8197   19.9525 C   0  0  0  0  0  0  0  0  0  0  0  0
   10.1189   -5.0054   19.6987 C   0  0  0  0  0  0  0  0  0  0  0  0
  1  3  4  0
  1  7  4  0
  2 21  4  0
  2 27  4  0
  3  9  4  0
  3 10  4  0
  4  8  4  0
  4 18  4  0
  4 25  1  0
  5  9  4  0
  5 12  4  0
  6 13  1  0
  6 27  1  0
  7 28  4  0
  8 11  4  0
  9 29  4  0
 10 12  4  0
 11 24  1  0
 11 26  4  0
 12 25  1  0
 13 28  1  0
 14 20  4  0
 14 23  4  0
 15 17  4  0
 15 21  4  0
 16 19  4  0
 16 23  4  0
 17 22  4  0
 18 26  4  0
 19 24  4  0
 20 24  4  0
 22 27  4  0
 28 29  4  0
M  END
$$$$

 Created by Python create_sdf_string function

 29 33  0  0  0  0  0  0  0  0999 V2000
   10.7215   -3.3326   17.6437 C   0  0  0  0  0  0  0  0  0  0  0  0
    9.9489   -3.4675   24.6487 N   0  0  0  0  0  0  0  0  0  0  0  0
   10.0172   -4.4740   17.4101 C   0  0  0  0  0  0  0  0  0  0  0  0
    6.9051   -7.9575   16.4222 C   0  0  0  0  0  0  0  0  0  0  0  0
    8.9969   -6.3552   17.9668 N   0  0  0  0  0  0  0  0  0  0  0  0
   10.6702   -3.9051   22.4070 C   0  0  0  0  0  0  0  0  0  0  0  0
   11.0625   -3.0028   18.8894 C   0  0  0  0  0  0  0  0  0  0  0  0
    5.6180   -7.9194   16.1754 O   0  0  0  0  0  0  0  0  0  0  0  0
    9.7259   -5.3080   18.4485 C   0  0  0  0  0  0  0  0  0  0  0  0
    9.4578   -5.0200   16.3036 N   0  0  0  0  0  0  0  0  0  0  0  0
    5.0287   -8.9365   16.8223 C   0  0  0  0  0  0  0  0  0  0  0  0
    8.7742   -6.1498   16.6764 C   0  0  0  0  0  0  0  0  0  0  0  0
   10.9418   -3.4032   21.2053 O   0  0  0  0  0  0  0  0  0  0  0  0
    1.4797   -8.6258   16.2950 C   0  0  0  0  0  0  0  0  0  0  0  0
    9.2861   -1.2743   25.3585 C   0  0  0  0  0  0  0  0  0  0  0  0
    1.8892  -10.3985   17.7511 N   0  0  0  0  0  0  0  0  0  0  0  0
    9.6210   -0.6952   24.0976 C   0  0  0  0  0  0  0  0  0  0  0  0
    7.0792   -9.0217   17.1429 C   0  0  0  0  0  0  0  0  0  0  0  0
    3.1713  -10.1816   17.6634 C   0  0  0  0  0  0  0  0  0  0  0  0
    2.7878   -8.3822   16.2137 C   0  0  0  0  0  0  0  0  0  0  0  0
    9.4601   -2.6590   25.6528 C   0  0  0  0  0  0  0  0  0  0  0  0
   10.1182   -1.5672   23.1165 C   0  0  0  0  0  0  0  0  0  0  0  0
    1.0552   -9.6360   17.0650 C   0  0  0  0  0  0  0  0  0  0  0  0
    3.6519   -9.1783   16.9039 C   0  0  0  0  0  0  0  0  0  0  0  0
    7.8675   -7.0096   15.9415 C   0  0  0  0  0  0  0  0  0  0  0  0
    5.9733   -9.6553   17.3832 N   0  0  0  0  0  0  0  0  0  0  0  0
   10.2411   -2.9363   23.4301 C   0  0  0  0  0  0  0  0  0  0  0  0
   10.7288   -3.8197   19.9525 C   0  0  0  0  0  0  0  0  0  0  0  0
   10.1189   -5.0054   19.6987 C   0  0  0  0  0  0  0  0  0  0  0  0
  1  3  4  0
  1  7  4  0
  2 21  4  0
  2 27  4  0
  3  9  4  0
  3 10  4  0
  4  8  4  0
  4 18  4  0
  4 25  1  0
  5  9  4  0
  5 12  4  0
  6 13  1  0
  6 27  1  0
  7 28  4  0
  8 11  4  0
  9 29  4  0
 10 12  4  0
 11 24  1  0
 11 26  4  0
 12 25  1  0
 13 28  1  0
 14 20  4  0
 14 23  4  0
 15 17  4  0
 15 21  4  0
 16 19  4  0
 16 23  4  0
 17 22  4  0
 18 26  4  0
 19 24  4  0
 20 24  4  0
 22 27  4  0
 28 29  4  0
M  END
$$$$

 Created by Python create_sdf_string function

 29 33  0  0  0  0  0  0  0  0999 V2000
   10.7215   -3.3326   17.6437 C   0  0  0  0  0  0  0  0  0  0  0  0
    9.9489   -3.4675   24.6487 N   0  0  0  0  0  0  0  0  0  0  0  0
   10.0172   -4.4740   17.4101 C   0  0  0  0  0  0  0  0  0  0  0  0
    6.9051   -7.9575   16.4222 C   0  0  0  0  0  0  0  0  0  0  0  0
    8.9969   -6.3552   17.9668 N   0  0  0  0  0  0  0  0  0  0  0  0
   10.6702   -3.9051   22.4070 C   0  0  0  0  0  0  0  0  0  0  0  0
   11.0625   -3.0028   18.8894 C   0  0  0  0  0  0  0  0  0  0  0  0
    5.6180   -7.9194   16.1754 O   0  0  0  0  0  0  0  0  0  0  0  0
    9.7259   -5.3080   18.4485 C   0  0  0  0  0  0  0  0  0  0  0  0
    9.4578   -5.0200   16.3036 N   0  0  0  0  0  0  0  0  0  0  0  0
    5.0287   -8.9365   16.8223 C   0  0  0  0  0  0  0  0  0  0  0  0
    8.7742   -6.1498   16.6764 C   0  0  0  0  0  0  0  0  0  0  0  0
   10.9418   -3.4032   21.2053 O   0  0  0  0  0  0  0  0  0  0  0  0
    1.4797   -8.6258   16.2950 C   0  0  0  0  0  0  0  0  0  0  0  0
    9.2861   -1.2743   25.3585 C   0  0  0  0  0  0  0  0  0  0  0  0
    1.8892  -10.3985   17.7511 N   0  0  0  0  0  0  0  0  0  0  0  0
    9.6210   -0.6952   24.0976 C   0  0  0  0  0  0  0  0  0  0  0  0
    7.0792   -9.0217   17.1429 C   0  0  0  0  0  0  0  0  0  0  0  0
    3.1713  -10.1816   17.6634 C   0  0  0  0  0  0  0  0  0  0  0  0
    2.7878   -8.3822   16.2137 C   0  0  0  0  0  0  0  0  0  0  0  0
    9.4601   -2.6590   25.6528 C   0  0  0  0  0  0  0  0  0  0  0  0
   10.1182   -1.5672   23.1165 C   0  0  0  0  0  0  0  0  0  0  0  0
    1.0552   -9.6360   17.0650 C   0  0  0  0  0  0  0  0  0  0  0  0
    3.6519   -9.1783   16.9039 C   0  0  0  0  0  0  0  0  0  0  0  0
    7.8675   -7.0096   15.9415 C   0  0  0  0  0  0  0  0  0  0  0  0
    5.9733   -9.6553   17.3832 N   0  0  0  0  0  0  0  0  0  0  0  0
   10.2411   -2.9363   23.4301 C   0  0  0  0  0  0  0  0  0  0  0  0
   10.7288   -3.8197   19.9525 C   0  0  0  0  0  0  0  0  0  0  0  0
   10.1189   -5.0054   19.6987 C   0  0  0  0  0  0  0  0  0  0  0  0
  1  3  4  0
  1  7  4  0
  2 21  4  0
  2 27  4  0
  3  9  4  0
  3 10  4  0
  4  8  4  0
  4 18  4  0
  4 25  1  0
  5  9  4  0
  5 12  4  0
  6 13  1  0
  6 27  1  0
  7 28  4  0
  8 11  4  0
  9 29  4  0
 10 12  4  0
 11 24  1  0
 11 26  4  0
 12 25  1  0
 13 28  1  0
 14 20  4  0
 14 23  4  0
 15 17  4  0
 15 21  4  0
 16 19  4  0
 16 23  4  0
 17 22  4  0
 18 26  4  0
 19 24  4  0
 20 24  4  0
 22 27  4  0
 28 29  4  0
M  END
$$$$

 Created by Python create_sdf_string function

 29 33  0  0  0  0  0  0  0  0999 V2000
   10.7215   -3.3326   17.6437 C   0  0  0  0  0  0  0  0  0  0  0  0
    9.9489   -3.4675   24.6487 N   0  0  0  0  0  0  0  0  0  0  0  0
   10.0172   -4.4740   17.4101 C   0  0  0  0  0  0  0  0  0  0  0  0
    6.9051   -7.9575   16.4222 C   0  0  0  0  0  0  0  0  0  0  0  0
    8.9969   -6.3552   17.9668 N   0  0  0  0  0  0  0  0  0  0  0  0
   10.6702   -3.9051   22.4070 C   0  0  0  0  0  0  0  0  0  0  0  0
   11.0625   -3.0028   18.8894 C   0  0  0  0  0  0  0  0  0  0  0  0
    5.6180   -7.9194   16.1754 O   0  0  0  0  0  0  0  0  0  0  0  0
    9.7259   -5.3080   18.4485 C   0  0  0  0  0  0  0  0  0  0  0  0
    9.4578   -5.0200   16.3036 N   0  0  0  0  0  0  0  0  0  0  0  0
    5.0287   -8.9365   16.8223 C   0  0  0  0  0  0  0  0  0  0  0  0
    8.7742   -6.1498   16.6764 C   0  0  0  0  0  0  0  0  0  0  0  0
   10.9418   -3.4032   21.2053 O   0  0  0  0  0  0  0  0  0  0  0  0
    1.4797   -8.6258   16.2950 C   0  0  0  0  0  0  0  0  0  0  0  0
    9.2861   -1.2743   25.3585 C   0  0  0  0  0  0  0  0  0  0  0  0
    1.8892  -10.3985   17.7511 N   0  0  0  0  0  0  0  0  0  0  0  0
    9.6210   -0.6952   24.0976 C   0  0  0  0  0  0  0  0  0  0  0  0
    7.0792   -9.0217   17.1429 C   0  0  0  0  0  0  0  0  0  0  0  0
    3.1713  -10.1816   17.6634 C   0  0  0  0  0  0  0  0  0  0  0  0
    2.7878   -8.3822   16.2137 C   0  0  0  0  0  0  0  0  0  0  0  0
    9.4601   -2.6590   25.6528 C   0  0  0  0  0  0  0  0  0  0  0  0
   10.1182   -1.5672   23.1165 C   0  0  0  0  0  0  0  0  0  0  0  0
    1.0552   -9.6360   17.0650 C   0  0  0  0  0  0  0  0  0  0  0  0
    3.6519   -9.1783   16.9039 C   0  0  0  0  0  0  0  0  0  0  0  0
    7.8675   -7.0096   15.9415 C   0  0  0  0  0  0  0  0  0  0  0  0
    5.9733   -9.6553   17.3832 N   0  0  0  0  0  0  0  0  0  0  0  0
   10.2411   -2.9363   23.4301 C   0  0  0  0  0  0  0  0  0  0  0  0
   10.7288   -3.8197   19.9525 C   0  0  0  0  0  0  0  0  0  0  0  0
   10.1189   -5.0054   19.6987 C   0  0  0  0  0  0  0  0  0  0  0  0
  1  3  4  0
  1  7  4  0
  2 21  4  0
  2 27  4  0
  3  9  4  0
  3 10  4  0
  4  8  4  0
  4 18  4  0
  4 25  1  0
  5  9  4  0
  5 12  4  0
  6 13  1  0
  6 27  1  0
  7 28  4  0
  8 11  4  0
  9 29  4  0
 10 12  4  0
 11 24  1  0
 11 26  4  0
 12 25  1  0
 13 28  1  0
 14 20  4  0
 14 23  4  0
 15 17  4  0
 15 21  4  0
 16 19  4  0
 16 23  4  0
 17 22  4  0
 18 26  4  0
 19 24  4  0
 20 24  4  0
 22 27  4  0
 28 29  4  0
M  END
$$$$

 Created by Python create_sdf_string function

 29 33  0  0  0  0  0  0  0  0999 V2000
   10.7215   -3.3326   17.6437 C   0  0  0  0  0  0  0  0  0  0  0  0
    9.9489   -3.4675   24.6487 N   0  0  0  0  0  0  0  0  0  0  0  0
   10.0172   -4.4740   17.4101 C   0  0  0  0  0  0  0  0  0  0  0  0
    6.9051   -7.9575   16.4222 C   0  0  0  0  0  0  0  0  0  0  0  0
    8.9969   -6.3552   17.9668 N   0  0  0  0  0  0  0  0  0  0  0  0
   10.6702   -3.9051   22.4070 C   0  0  0  0  0  0  0  0  0  0  0  0
   11.0625   -3.0028   18.8894 C   0  0  0  0  0  0  0  0  0  0  0  0
    5.6180   -7.9194   16.1754 O   0  0  0  0  0  0  0  0  0  0  0  0
    9.7259   -5.3080   18.4485 C   0  0  0  0  0  0  0  0  0  0  0  0
    9.4578   -5.0200   16.3036 N   0  0  0  0  0  0  0  0  0  0  0  0
    5.0287   -8.9365   16.8223 C   0  0  0  0  0  0  0  0  0  0  0  0
    8.7742   -6.1498   16.6764 C   0  0  0  0  0  0  0  0  0  0  0  0
   10.9418   -3.4032   21.2053 O   0  0  0  0  0  0  0  0  0  0  0  0
    1.4797   -8.6258   16.2950 C   0  0  0  0  0  0  0  0  0  0  0  0
    9.2861   -1.2743   25.3585 C   0  0  0  0  0  0  0  0  0  0  0  0
    1.8892  -10.3985   17.7511 N   0  0  0  0  0  0  0  0  0  0  0  0
    9.6210   -0.6952   24.0976 C   0  0  0  0  0  0  0  0  0  0  0  0
    7.0792   -9.0217   17.1429 C   0  0  0  0  0  0  0  0  0  0  0  0
    3.1713  -10.1816   17.6634 C   0  0  0  0  0  0  0  0  0  0  0  0
    2.7878   -8.3822   16.2137 C   0  0  0  0  0  0  0  0  0  0  0  0
    9.4601   -2.6590   25.6528 C   0  0  0  0  0  0  0  0  0  0  0  0
   10.1182   -1.5672   23.1165 C   0  0  0  0  0  0  0  0  0  0  0  0
    1.0552   -9.6360   17.0650 C   0  0  0  0  0  0  0  0  0  0  0  0
    3.6519   -9.1783   16.9039 C   0  0  0  0  0  0  0  0  0  0  0  0
    7.8675   -7.0096   15.9415 C   0  0  0  0  0  0  0  0  0  0  0  0
    5.9733   -9.6553   17.3832 N   0  0  0  0  0  0  0  0  0  0  0  0
   10.2411   -2.9363   23.4301 C   0  0  0  0  0  0  0  0  0  0  0  0
   10.7288   -3.8197   19.9525 C   0  0  0  0  0  0  0  0  0  0  0  0
   10.1189   -5.0054   19.6987 C   0  0  0  0  0  0  0  0  0  0  0  0
  1  3  4  0
  1  7  4  0
  2 21  4  0
  2 27  4  0
  3  9  4  0
  3 10  4  0
  4  8  4  0
  4 18  4  0
  4 25  1  0
  5  9  4  0
  5 12  4  0
  6 13  1  0
  6 27  1  0
  7 28  4  0
  8 11  4  0
  9 29  4  0
 10 12  4  0
 11 24  1  0
 11 26  4  0
 12 25  1  0
 13 28  1  0
 14 20  4  0
 14 23  4  0
 15 17  4  0
 15 21  4  0
 16 19  4  0
 16 23  4  0
 17 22  4  0
 18 26  4  0
 19 24  4  0
 20 24  4  0
 22 27  4  0
 28 29  4  0
M  END
$$$$

 Created by Python create_sdf_string function

 29 33  0  0  0  0  0  0  0  0999 V2000
   10.7215   -3.3326   17.6437 C   0  0  0  0  0  0  0  0  0  0  0  0
    9.9489   -3.4675   24.6487 N   0  0  0  0  0  0  0  0  0  0  0  0
   10.0172   -4.4740   17.4101 C   0  0  0  0  0  0  0  0  0  0  0  0
    6.9051   -7.9575   16.4222 C   0  0  0  0  0  0  0  0  0  0  0  0
    8.9969   -6.3552   17.9668 N   0  0  0  0  0  0  0  0  0  0  0  0
   10.6702   -3.9051   22.4070 C   0  0  0  0  0  0  0  0  0  0  0  0
   11.0625   -3.0028   18.8894 C   0  0  0  0  0  0  0  0  0  0  0  0
    5.6180   -7.9194   16.1754 O   0  0  0  0  0  0  0  0  0  0  0  0
    9.7259   -5.3080   18.4485 C   0  0  0  0  0  0  0  0  0  0  0  0
    9.4578   -5.0200   16.3036 N   0  0  0  0  0  0  0  0  0  0  0  0
    5.0287   -8.9365   16.8223 C   0  0  0  0  0  0  0  0  0  0  0  0
    8.7742   -6.1498   16.6764 C   0  0  0  0  0  0  0  0  0  0  0  0
   10.9418   -3.4032   21.2053 O   0  0  0  0  0  0  0  0  0  0  0  0
    1.4797   -8.6258   16.2950 C   0  0  0  0  0  0  0  0  0  0  0  0
    9.2861   -1.2743   25.3585 C   0  0  0  0  0  0  0  0  0  0  0  0
    1.8892  -10.3985   17.7511 N   0  0  0  0  0  0  0  0  0  0  0  0
    9.6210   -0.6952   24.0976 C   0  0  0  0  0  0  0  0  0  0  0  0
    7.0792   -9.0217   17.1429 C   0  0  0  0  0  0  0  0  0  0  0  0
    3.1713  -10.1816   17.6634 C   0  0  0  0  0  0  0  0  0  0  0  0
    2.7878   -8.3822   16.2137 C   0  0  0  0  0  0  0  0  0  0  0  0
    9.4601   -2.6590   25.6528 C   0  0  0  0  0  0  0  0  0  0  0  0
   10.1182   -1.5672   23.1165 C   0  0  0  0  0  0  0  0  0  0  0  0
    1.0552   -9.6360   17.0650 C   0  0  0  0  0  0  0  0  0  0  0  0
    3.6519   -9.1783   16.9039 C   0  0  0  0  0  0  0  0  0  0  0  0
    7.8675   -7.0096   15.9415 C   0  0  0  0  0  0  0  0  0  0  0  0
    5.9733   -9.6553   17.3832 N   0  0  0  0  0  0  0  0  0  0  0  0
   10.2411   -2.9363   23.4301 C   0  0  0  0  0  0  0  0  0  0  0  0
   10.7288   -3.8197   19.9525 C   0  0  0  0  0  0  0  0  0  0  0  0
   10.1189   -5.0054   19.6987 C   0  0  0  0  0  0  0  0  0  0  0  0
  1  3  4  0
  1  7  4  0
  2 21  4  0
  2 27  4  0
  3  9  4  0
  3 10  4  0
  4  8  4  0
  4 18  4  0
  4 25  1  0
  5  9  4  0
  5 12  4  0
  6 13  1  0
  6 27  1  0
  7 28  4  0
  8 11  4  0
  9 29  4  0
 10 12  4  0
 11 24  1  0
 11 26  4  0
 12 25  1  0
 13 28  1  0
 14 20  4  0
 14 23  4  0
 15 17  4  0
 15 21  4  0
 16 19  4  0
 16 23  4  0
 17 22  4  0
 18 26  4  0
 19 24  4  0
 20 24  4  0
 22 27  4  0
 28 29  4  0
M  END
$$$$

 Created by Python create_sdf_string function

 29 33  0  0  0  0  0  0  0  0999 V2000
   10.7215   -3.3326   17.6437 C   0  0  0  0  0  0  0  0  0  0  0  0
    9.9489   -3.4675   24.6487 N   0  0  0  0  0  0  0  0  0  0  0  0
   10.0172   -4.4740   17.4101 C   0  0  0  0  0  0  0  0  0  0  0  0
    6.9051   -7.9575   16.4222 C   0  0  0  0  0  0  0  0  0  0  0  0
    8.9969   -6.3552   17.9668 N   0  0  0  0  0  0  0  0  0  0  0  0
   10.6702   -3.9051   22.4070 C   0  0  0  0  0  0  0  0  0  0  0  0
   11.0625   -3.0028   18.8894 C   0  0  0  0  0  0  0  0  0  0  0  0
    5.6180   -7.9194   16.1754 O   0  0  0  0  0  0  0  0  0  0  0  0
    9.7259   -5.3080   18.4485 C   0  0  0  0  0  0  0  0  0  0  0  0
    9.4578   -5.0200   16.3036 N   0  0  0  0  0  0  0  0  0  0  0  0
    5.0287   -8.9365   16.8223 C   0  0  0  0  0  0  0  0  0  0  0  0
    8.7742   -6.1498   16.6764 C   0  0  0  0  0  0  0  0  0  0  0  0
   10.9418   -3.4032   21.2053 O   0  0  0  0  0  0  0  0  0  0  0  0
    1.4797   -8.6258   16.2950 C   0  0  0  0  0  0  0  0  0  0  0  0
    9.2861   -1.2743   25.3585 C   0  0  0  0  0  0  0  0  0  0  0  0
    1.8892  -10.3985   17.7511 N   0  0  0  0  0  0  0  0  0  0  0  0
    9.6210   -0.6952   24.0976 C   0  0  0  0  0  0  0  0  0  0  0  0
    7.0792   -9.0217   17.1429 C   0  0  0  0  0  0  0  0  0  0  0  0
    3.1713  -10.1816   17.6634 C   0  0  0  0  0  0  0  0  0  0  0  0
    2.7878   -8.3822   16.2137 C   0  0  0  0  0  0  0  0  0  0  0  0
    9.4601   -2.6590   25.6528 C   0  0  0  0  0  0  0  0  0  0  0  0
   10.1182   -1.5672   23.1165 C   0  0  0  0  0  0  0  0  0  0  0  0
    1.0552   -9.6360   17.0650 C   0  0  0  0  0  0  0  0  0  0  0  0
    3.6519   -9.1783   16.9039 C   0  0  0  0  0  0  0  0  0  0  0  0
    7.8675   -7.0096   15.9415 C   0  0  0  0  0  0  0  0  0  0  0  0
    5.9733   -9.6553   17.3832 N   0  0  0  0  0  0  0  0  0  0  0  0
   10.2411   -2.9363   23.4301 C   0  0  0  0  0  0  0  0  0  0  0  0
   10.7288   -3.8197   19.9525 C   0  0  0  0  0  0  0  0  0  0  0  0
   10.1189   -5.0054   19.6987 C   0  0  0  0  0  0  0  0  0  0  0  0
  1  3  4  0
  1  7  4  0
  2 21  4  0
  2 27  4  0
  3  9  4  0
  3 10  4  0
  4  8  4  0
  4 18  4  0
  4 25  1  0
  5  9  4  0
  5 12  4  0
  6 13  1  0
  6 27  1  0
  7 28  4  0
  8 11  4  0
  9 29  4  0
 10 12  4  0
 11 24  1  0
 11 26  4  0
 12 25  1  0
 13 28  1  0
 14 20  4  0
 14 23  4  0
 15 17  4  0
 15 21  4  0
 16 19  4  0
 16 23  4  0
 17 22  4  0
 18 26  4  0
 19 24  4  0
 20 24  4  0
 22 27  4  0
 28 29  4  0
M  END
$$$$

 Created by Python create_sdf_string function

 29 33  0  0  0  0  0  0  0  0999 V2000
   10.7215   -3.3326   17.6437 C   0  0  0  0  0  0  0  0  0  0  0  0
    9.9489   -3.4675   24.6487 N   0  0  0  0  0  0  0  0  0  0  0  0
   10.0172   -4.4740   17.4101 C   0  0  0  0  0  0  0  0  0  0  0  0
    6.9051   -7.9575   16.4222 C   0  0  0  0  0  0  0  0  0  0  0  0
    8.9969   -6.3552   17.9668 N   0  0  0  0  0  0  0  0  0  0  0  0
   10.6702   -3.9051   22.4070 C   0  0  0  0  0  0  0  0  0  0  0  0
   11.0625   -3.0028   18.8894 C   0  0  0  0  0  0  0  0  0  0  0  0
    5.6180   -7.9194   16.1754 O   0  0  0  0  0  0  0  0  0  0  0  0
    9.7259   -5.3080   18.4485 C   0  0  0  0  0  0  0  0  0  0  0  0
    9.4578   -5.0200   16.3036 N   0  0  0  0  0  0  0  0  0  0  0  0
    5.0287   -8.9365   16.8223 C   0  0  0  0  0  0  0  0  0  0  0  0
    8.7742   -6.1498   16.6764 C   0  0  0  0  0  0  0  0  0  0  0  0
   10.9418   -3.4032   21.2053 O   0  0  0  0  0  0  0  0  0  0  0  0
    1.4797   -8.6258   16.2950 C   0  0  0  0  0  0  0  0  0  0  0  0
    9.2861   -1.2743   25.3585 C   0  0  0  0  0  0  0  0  0  0  0  0
    1.8892  -10.3985   17.7511 N   0  0  0  0  0  0  0  0  0  0  0  0
    9.6210   -0.6952   24.0976 C   0  0  0  0  0  0  0  0  0  0  0  0
    7.0792   -9.0217   17.1429 C   0  0  0  0  0  0  0  0  0  0  0  0
    3.1713  -10.1816   17.6634 C   0  0  0  0  0  0  0  0  0  0  0  0
    2.7878   -8.3822   16.2137 C   0  0  0  0  0  0  0  0  0  0  0  0
    9.4601   -2.6590   25.6528 C   0  0  0  0  0  0  0  0  0  0  0  0
   10.1182   -1.5672   23.1165 C   0  0  0  0  0  0  0  0  0  0  0  0
    1.0552   -9.6360   17.0650 C   0  0  0  0  0  0  0  0  0  0  0  0
    3.6519   -9.1783   16.9039 C   0  0  0  0  0  0  0  0  0  0  0  0
    7.8675   -7.0096   15.9415 C   0  0  0  0  0  0  0  0  0  0  0  0
    5.9733   -9.6553   17.3832 N   0  0  0  0  0  0  0  0  0  0  0  0
   10.2411   -2.9363   23.4301 C   0  0  0  0  0  0  0  0  0  0  0  0
   10.7288   -3.8197   19.9525 C   0  0  0  0  0  0  0  0  0  0  0  0
   10.1189   -5.0054   19.6987 C   0  0  0  0  0  0  0  0  0  0  0  0
  1  3  4  0
  1  7  4  0
  2 21  4  0
  2 27  4  0
  3  9  4  0
  3 10  4  0
  4  8  4  0
  4 18  4  0
  4 25  1  0
  5  9  4  0
  5 12  4  0
  6 13  1  0
  6 27  1  0
  7 28  4  0
  8 11  4  0
  9 29  4  0
 10 12  4  0
 11 24  1  0
 11 26  4  0
 12 25  1  0
 13 28  1  0
 14 20  4  0
 14 23  4  0
 15 17  4  0
 15 21  4  0
 16 19  4  0
 16 23  4  0
 17 22  4  0
 18 26  4  0
 19 24  4  0
 20 24  4  0
 22 27  4  0
 28 29  4  0
M  END
$$$$

 Created by Python create_sdf_string function

 29 33  0  0  0  0  0  0  0  0999 V2000
   10.7215   -3.3326   17.6437 C   0  0  0  0  0  0  0  0  0  0  0  0
    9.9489   -3.4675   24.6487 N   0  0  0  0  0  0  0  0  0  0  0  0
   10.0172   -4.4740   17.4101 C   0  0  0  0  0  0  0  0  0  0  0  0
    6.9051   -7.9575   16.4222 C   0  0  0  0  0  0  0  0  0  0  0  0
    8.9969   -6.3552   17.9668 N   0  0  0  0  0  0  0  0  0  0  0  0
   10.6702   -3.9051   22.4070 C   0  0  0  0  0  0  0  0  0  0  0  0
   11.0625   -3.0028   18.8894 C   0  0  0  0  0  0  0  0  0  0  0  0
    5.6180   -7.9194   16.1754 O   0  0  0  0  0  0  0  0  0  0  0  0
    9.7259   -5.3080   18.4485 C   0  0  0  0  0  0  0  0  0  0  0  0
    9.4578   -5.0200   16.3036 N   0  0  0  0  0  0  0  0  0  0  0  0
    5.0287   -8.9365   16.8223 C   0  0  0  0  0  0  0  0  0  0  0  0
    8.7742   -6.1498   16.6764 C   0  0  0  0  0  0  0  0  0  0  0  0
   10.9418   -3.4032   21.2053 O   0  0  0  0  0  0  0  0  0  0  0  0
    1.4797   -8.6258   16.2950 C   0  0  0  0  0  0  0  0  0  0  0  0
    9.2861   -1.2743   25.3585 C   0  0  0  0  0  0  0  0  0  0  0  0
    1.8892  -10.3985   17.7511 N   0  0  0  0  0  0  0  0  0  0  0  0
    9.6210   -0.6952   24.0976 C   0  0  0  0  0  0  0  0  0  0  0  0
    7.0792   -9.0217   17.1429 C   0  0  0  0  0  0  0  0  0  0  0  0
    3.1713  -10.1816   17.6634 C   0  0  0  0  0  0  0  0  0  0  0  0
    2.7878   -8.3822   16.2137 C   0  0  0  0  0  0  0  0  0  0  0  0
    9.4601   -2.6590   25.6528 C   0  0  0  0  0  0  0  0  0  0  0  0
   10.1182   -1.5672   23.1165 C   0  0  0  0  0  0  0  0  0  0  0  0
    1.0552   -9.6360   17.0650 C   0  0  0  0  0  0  0  0  0  0  0  0
    3.6519   -9.1783   16.9039 C   0  0  0  0  0  0  0  0  0  0  0  0
    7.8675   -7.0096   15.9415 C   0  0  0  0  0  0  0  0  0  0  0  0
    5.9733   -9.6553   17.3832 N   0  0  0  0  0  0  0  0  0  0  0  0
   10.2411   -2.9363   23.4301 C   0  0  0  0  0  0  0  0  0  0  0  0
   10.7288   -3.8197   19.9525 C   0  0  0  0  0  0  0  0  0  0  0  0
   10.1189   -5.0054   19.6987 C   0  0  0  0  0  0  0  0  0  0  0  0
  1  3  4  0
  1  7  4  0
  2 21  4  0
  2 27  4  0
  3  9  4  0
  3 10  4  0
  4  8  4  0
  4 18  4  0
  4 25  1  0
  5  9  4  0
  5 12  4  0
  6 13  1  0
  6 27  1  0
  7 28  4  0
  8 11  4  0
  9 29  4  0
 10 12  4  0
 11 24  1  0
 11 26  4  0
 12 25  1  0
 13 28  1  0
 14 20  4  0
 14 23  4  0
 15 17  4  0
 15 21  4  0
 16 19  4  0
 16 23  4  0
 17 22  4  0
 18 26  4  0
 19 24  4  0
 20 24  4  0
 22 27  4  0
 28 29  4  0
M  END
$$$$

 Created by Python create_sdf_string function

 29 33  0  0  0  0  0  0  0  0999 V2000
   10.7215   -3.3326   17.6437 C   0  0  0  0  0  0  0  0  0  0  0  0
    9.9489   -3.4675   24.6487 N   0  0  0  0  0  0  0  0  0  0  0  0
   10.0172   -4.4740   17.4101 C   0  0  0  0  0  0  0  0  0  0  0  0
    6.9051   -7.9575   16.4222 C   0  0  0  0  0  0  0  0  0  0  0  0
    8.9969   -6.3552   17.9668 N   0  0  0  0  0  0  0  0  0  0  0  0
   10.6702   -3.9051   22.4070 C   0  0  0  0  0  0  0  0  0  0  0  0
   11.0625   -3.0028   18.8894 C   0  0  0  0  0  0  0  0  0  0  0  0
    5.6180   -7.9194   16.1754 O   0  0  0  0  0  0  0  0  0  0  0  0
    9.7259   -5.3080   18.4485 C   0  0  0  0  0  0  0  0  0  0  0  0
    9.4578   -5.0200   16.3036 N   0  0  0  0  0  0  0  0  0  0  0  0
    5.0287   -8.9365   16.8223 C   0  0  0  0  0  0  0  0  0  0  0  0
    8.7742   -6.1498   16.6764 C   0  0  0  0  0  0  0  0  0  0  0  0
   10.9418   -3.4032   21.2053 O   0  0  0  0  0  0  0  0  0  0  0  0
    1.4797   -8.6258   16.2950 C   0  0  0  0  0  0  0  0  0  0  0  0
    9.2861   -1.2743   25.3585 C   0  0  0  0  0  0  0  0  0  0  0  0
    1.8892  -10.3985   17.7511 N   0  0  0  0  0  0  0  0  0  0  0  0
    9.6210   -0.6952   24.0976 C   0  0  0  0  0  0  0  0  0  0  0  0
    7.0792   -9.0217   17.1429 C   0  0  0  0  0  0  0  0  0  0  0  0
    3.1713  -10.1816   17.6634 C   0  0  0  0  0  0  0  0  0  0  0  0
    2.7878   -8.3822   16.2137 C   0  0  0  0  0  0  0  0  0  0  0  0
    9.4601   -2.6590   25.6528 C   0  0  0  0  0  0  0  0  0  0  0  0
   10.1182   -1.5672   23.1165 C   0  0  0  0  0  0  0  0  0  0  0  0
    1.0552   -9.6360   17.0650 C   0  0  0  0  0  0  0  0  0  0  0  0
    3.6519   -9.1783   16.9039 C   0  0  0  0  0  0  0  0  0  0  0  0
    7.8675   -7.0096   15.9415 C   0  0  0  0  0  0  0  0  0  0  0  0
    5.9733   -9.6553   17.3832 N   0  0  0  0  0  0  0  0  0  0  0  0
   10.2411   -2.9363   23.4301 C   0  0  0  0  0  0  0  0  0  0  0  0
   10.7288   -3.8197   19.9525 C   0  0  0  0  0  0  0  0  0  0  0  0
   10.1189   -5.0054   19.6987 C   0  0  0  0  0  0  0  0  0  0  0  0
  1  3  4  0
  1  7  4  0
  2 21  4  0
  2 27  4  0
  3  9  4  0
  3 10  4  0
  4  8  4  0
  4 18  4  0
  4 25  1  0
  5  9  4  0
  5 12  4  0
  6 13  1  0
  6 27  1  0
  7 28  4  0
  8 11  4  0
  9 29  4  0
 10 12  4  0
 11 24  1  0
 11 26  4  0
 12 25  1  0
 13 28  1  0
 14 20  4  0
 14 23  4  0
 15 17  4  0
 15 21  4  0
 16 19  4  0
 16 23  4  0
 17 22  4  0
 18 26  4  0
 19 24  4  0
 20 24  4  0
 22 27  4  0
 28 29  4  0
M  END
$$$$

 Created by Python create_sdf_string function

 29 33  0  0  0  0  0  0  0  0999 V2000
   10.7215   -3.3326   17.6437 C   0  0  0  0  0  0  0  0  0  0  0  0
    9.9489   -3.4675   24.6487 N   0  0  0  0  0  0  0  0  0  0  0  0
   10.0172   -4.4740   17.4101 C   0  0  0  0  0  0  0  0  0  0  0  0
    6.9051   -7.9575   16.4222 C   0  0  0  0  0  0  0  0  0  0  0  0
    8.9969   -6.3552   17.9668 N   0  0  0  0  0  0  0  0  0  0  0  0
   10.6702   -3.9051   22.4070 C   0  0  0  0  0  0  0  0  0  0  0  0
   11.0625   -3.0028   18.8894 C   0  0  0  0  0  0  0  0  0  0  0  0
    5.6180   -7.9194   16.1754 O   0  0  0  0  0  0  0  0  0  0  0  0
    9.7259   -5.3080   18.4485 C   0  0  0  0  0  0  0  0  0  0  0  0
    9.4578   -5.0200   16.3036 N   0  0  0  0  0  0  0  0  0  0  0  0
    5.0287   -8.9365   16.8223 C   0  0  0  0  0  0  0  0  0  0  0  0
    8.7742   -6.1498   16.6764 C   0  0  0  0  0  0  0  0  0  0  0  0
   10.9418   -3.4032   21.2053 O   0  0  0  0  0  0  0  0  0  0  0  0
    1.4797   -8.6258   16.2950 C   0  0  0  0  0  0  0  0  0  0  0  0
    9.2861   -1.2743   25.3585 C   0  0  0  0  0  0  0  0  0  0  0  0
    1.8892  -10.3985   17.7511 N   0  0  0  0  0  0  0  0  0  0  0  0
    9.6210   -0.6952   24.0976 C   0  0  0  0  0  0  0  0  0  0  0  0
    7.0792   -9.0217   17.1429 C   0  0  0  0  0  0  0  0  0  0  0  0
    3.1713  -10.1816   17.6634 C   0  0  0  0  0  0  0  0  0  0  0  0
    2.7878   -8.3822   16.2137 C   0  0  0  0  0  0  0  0  0  0  0  0
    9.4601   -2.6590   25.6528 C   0  0  0  0  0  0  0  0  0  0  0  0
   10.1182   -1.5672   23.1165 C   0  0  0  0  0  0  0  0  0  0  0  0
    1.0552   -9.6360   17.0650 C   0  0  0  0  0  0  0  0  0  0  0  0
    3.6519   -9.1783   16.9039 C   0  0  0  0  0  0  0  0  0  0  0  0
    7.8675   -7.0096   15.9415 C   0  0  0  0  0  0  0  0  0  0  0  0
    5.9733   -9.6553   17.3832 N   0  0  0  0  0  0  0  0  0  0  0  0
   10.2411   -2.9363   23.4301 C   0  0  0  0  0  0  0  0  0  0  0  0
   10.7288   -3.8197   19.9525 C   0  0  0  0  0  0  0  0  0  0  0  0
   10.1189   -5.0054   19.6987 C   0  0  0  0  0  0  0  0  0  0  0  0
  1  3  4  0
  1  7  4  0
  2 21  4  0
  2 27  4  0
  3  9  4  0
  3 10  4  0
  4  8  4  0
  4 18  4  0
  4 25  1  0
  5  9  4  0
  5 12  4  0
  6 13  1  0
  6 27  1  0
  7 28  4  0
  8 11  4  0
  9 29  4  0
 10 12  4  0
 11 24  1  0
 11 26  4  0
 12 25  1  0
 13 28  1  0
 14 20  4  0
 14 23  4  0
 15 17  4  0
 15 21  4  0
 16 19  4  0
 16 23  4  0
 17 22  4  0
 18 26  4  0
 19 24  4  0
 20 24  4  0
 22 27  4  0
 28 29  4  0
M  END
$$$$

 Created by Python create_sdf_string function

 29 33  0  0  0  0  0  0  0  0999 V2000
   10.7215   -3.3326   17.6437 C   0  0  0  0  0  0  0  0  0  0  0  0
    9.9489   -3.4675   24.6487 N   0  0  0  0  0  0  0  0  0  0  0  0
   10.0172   -4.4740   17.4101 C   0  0  0  0  0  0  0  0  0  0  0  0
    6.9051   -7.9575   16.4222 C   0  0  0  0  0  0  0  0  0  0  0  0
    8.9969   -6.3552   17.9668 N   0  0  0  0  0  0  0  0  0  0  0  0
   10.6702   -3.9051   22.4070 C   0  0  0  0  0  0  0  0  0  0  0  0
   11.0625   -3.0028   18.8894 C   0  0  0  0  0  0  0  0  0  0  0  0
    5.6180   -7.9194   16.1754 O   0  0  0  0  0  0  0  0  0  0  0  0
    9.7259   -5.3080   18.4485 C   0  0  0  0  0  0  0  0  0  0  0  0
    9.4578   -5.0200   16.3036 N   0  0  0  0  0  0  0  0  0  0  0  0
    5.0287   -8.9365   16.8223 C   0  0  0  0  0  0  0  0  0  0  0  0
    8.7742   -6.1498   16.6764 C   0  0  0  0  0  0  0  0  0  0  0  0
   10.9418   -3.4032   21.2053 O   0  0  0  0  0  0  0  0  0  0  0  0
    1.4797   -8.6258   16.2950 C   0  0  0  0  0  0  0  0  0  0  0  0
    9.2861   -1.2743   25.3585 C   0  0  0  0  0  0  0  0  0  0  0  0
    1.8892  -10.3985   17.7511 N   0  0  0  0  0  0  0  0  0  0  0  0
    9.6210   -0.6952   24.0976 C   0  0  0  0  0  0  0  0  0  0  0  0
    7.0792   -9.0217   17.1429 C   0  0  0  0  0  0  0  0  0  0  0  0
    3.1713  -10.1816   17.6634 C   0  0  0  0  0  0  0  0  0  0  0  0
    2.7878   -8.3822   16.2137 C   0  0  0  0  0  0  0  0  0  0  0  0
    9.4601   -2.6590   25.6528 C   0  0  0  0  0  0  0  0  0  0  0  0
   10.1182   -1.5672   23.1165 C   0  0  0  0  0  0  0  0  0  0  0  0
    1.0552   -9.6360   17.0650 C   0  0  0  0  0  0  0  0  0  0  0  0
    3.6519   -9.1783   16.9039 C   0  0  0  0  0  0  0  0  0  0  0  0
    7.8675   -7.0096   15.9415 C   0  0  0  0  0  0  0  0  0  0  0  0
    5.9733   -9.6553   17.3832 N   0  0  0  0  0  0  0  0  0  0  0  0
   10.2411   -2.9363   23.4301 C   0  0  0  0  0  0  0  0  0  0  0  0
   10.7288   -3.8197   19.9525 C   0  0  0  0  0  0  0  0  0  0  0  0
   10.1189   -5.0054   19.6987 C   0  0  0  0  0  0  0  0  0  0  0  0
  1  3  4  0
  1  7  4  0
  2 21  4  0
  2 27  4  0
  3  9  4  0
  3 10  4  0
  4  8  4  0
  4 18  4  0
  4 25  1  0
  5  9  4  0
  5 12  4  0
  6 13  1  0
  6 27  1  0
  7 28  4  0
  8 11  4  0
  9 29  4  0
 10 12  4  0
 11 24  1  0
 11 26  4  0
 12 25  1  0
 13 28  1  0
 14 20  4  0
 14 23  4  0
 15 17  4  0
 15 21  4  0
 16 19  4  0
 16 23  4  0
 17 22  4  0
 18 26  4  0
 19 24  4  0
 20 24  4  0
 22 27  4  0
 28 29  4  0
M  END
$$$$

 Created by Python create_sdf_string function

 29 33  0  0  0  0  0  0  0  0999 V2000
   10.7215   -3.3326   17.6437 C   0  0  0  0  0  0  0  0  0  0  0  0
    9.9489   -3.4675   24.6487 N   0  0  0  0  0  0  0  0  0  0  0  0
   10.0172   -4.4740   17.4101 C   0  0  0  0  0  0  0  0  0  0  0  0
    6.9051   -7.9575   16.4222 C   0  0  0  0  0  0  0  0  0  0  0  0
    8.9969   -6.3552   17.9668 N   0  0  0  0  0  0  0  0  0  0  0  0
   10.6702   -3.9051   22.4070 C   0  0  0  0  0  0  0  0  0  0  0  0
   11.0625   -3.0028   18.8894 C   0  0  0  0  0  0  0  0  0  0  0  0
    5.6180   -7.9194   16.1754 O   0  0  0  0  0  0  0  0  0  0  0  0
    9.7259   -5.3080   18.4485 C   0  0  0  0  0  0  0  0  0  0  0  0
    9.4578   -5.0200   16.3036 N   0  0  0  0  0  0  0  0  0  0  0  0
    5.0287   -8.9365   16.8223 C   0  0  0  0  0  0  0  0  0  0  0  0
    8.7742   -6.1498   16.6764 C   0  0  0  0  0  0  0  0  0  0  0  0
   10.9418   -3.4032   21.2053 O   0  0  0  0  0  0  0  0  0  0  0  0
    1.4797   -8.6258   16.2950 C   0  0  0  0  0  0  0  0  0  0  0  0
    9.2861   -1.2743   25.3585 C   0  0  0  0  0  0  0  0  0  0  0  0
    1.8892  -10.3985   17.7511 N   0  0  0  0  0  0  0  0  0  0  0  0
    9.6210   -0.6952   24.0976 C   0  0  0  0  0  0  0  0  0  0  0  0
    7.0792   -9.0217   17.1429 C   0  0  0  0  0  0  0  0  0  0  0  0
    3.1713  -10.1816   17.6634 C   0  0  0  0  0  0  0  0  0  0  0  0
    2.7878   -8.3822   16.2137 C   0  0  0  0  0  0  0  0  0  0  0  0
    9.4601   -2.6590   25.6528 C   0  0  0  0  0  0  0  0  0  0  0  0
   10.1182   -1.5672   23.1165 C   0  0  0  0  0  0  0  0  0  0  0  0
    1.0552   -9.6360   17.0650 C   0  0  0  0  0  0  0  0  0  0  0  0
    3.6519   -9.1783   16.9039 C   0  0  0  0  0  0  0  0  0  0  0  0
    7.8675   -7.0096   15.9415 C   0  0  0  0  0  0  0  0  0  0  0  0
    5.9733   -9.6553   17.3832 N   0  0  0  0  0  0  0  0  0  0  0  0
   10.2411   -2.9363   23.4301 C   0  0  0  0  0  0  0  0  0  0  0  0
   10.7288   -3.8197   19.9525 C   0  0  0  0  0  0  0  0  0  0  0  0
   10.1189   -5.0054   19.6987 C   0  0  0  0  0  0  0  0  0  0  0  0
  1  3  4  0
  1  7  4  0
  2 21  4  0
  2 27  4  0
  3  9  4  0
  3 10  4  0
  4  8  4  0
  4 18  4  0
  4 25  1  0
  5  9  4  0
  5 12  4  0
  6 13  1  0
  6 27  1  0
  7 28  4  0
  8 11  4  0
  9 29  4  0
 10 12  4  0
 11 24  1  0
 11 26  4  0
 12 25  1  0
 13 28  1  0
 14 20  4  0
 14 23  4  0
 15 17  4  0
 15 21  4  0
 16 19  4  0
 16 23  4  0
 17 22  4  0
 18 26  4  0
 19 24  4  0
 20 24  4  0
 22 27  4  0
 28 29  4  0
M  END
$$$$

 Created by Python create_sdf_string function

 29 33  0  0  0  0  0  0  0  0999 V2000
   10.7215   -3.3326   17.6437 C   0  0  0  0  0  0  0  0  0  0  0  0
    9.9489   -3.4675   24.6487 N   0  0  0  0  0  0  0  0  0  0  0  0
   10.0172   -4.4740   17.4101 C   0  0  0  0  0  0  0  0  0  0  0  0
    6.9051   -7.9575   16.4222 C   0  0  0  0  0  0  0  0  0  0  0  0
    8.9969   -6.3552   17.9668 N   0  0  0  0  0  0  0  0  0  0  0  0
   10.6702   -3.9051   22.4070 C   0  0  0  0  0  0  0  0  0  0  0  0
   11.0625   -3.0028   18.8894 C   0  0  0  0  0  0  0  0  0  0  0  0
    5.6180   -7.9194   16.1754 O   0  0  0  0  0  0  0  0  0  0  0  0
    9.7259   -5.3080   18.4485 C   0  0  0  0  0  0  0  0  0  0  0  0
    9.4578   -5.0200   16.3036 N   0  0  0  0  0  0  0  0  0  0  0  0
    5.0287   -8.9365   16.8223 C   0  0  0  0  0  0  0  0  0  0  0  0
    8.7742   -6.1498   16.6764 C   0  0  0  0  0  0  0  0  0  0  0  0
   10.9418   -3.4032   21.2053 O   0  0  0  0  0  0  0  0  0  0  0  0
    1.4797   -8.6258   16.2950 C   0  0  0  0  0  0  0  0  0  0  0  0
    9.2861   -1.2743   25.3585 C   0  0  0  0  0  0  0  0  0  0  0  0
    1.8892  -10.3985   17.7511 N   0  0  0  0  0  0  0  0  0  0  0  0
    9.6210   -0.6952   24.0976 C   0  0  0  0  0  0  0  0  0  0  0  0
    7.0792   -9.0217   17.1429 C   0  0  0  0  0  0  0  0  0  0  0  0
    3.1713  -10.1816   17.6634 C   0  0  0  0  0  0  0  0  0  0  0  0
    2.7878   -8.3822   16.2137 C   0  0  0  0  0  0  0  0  0  0  0  0
    9.4601   -2.6590   25.6528 C   0  0  0  0  0  0  0  0  0  0  0  0
   10.1182   -1.5672   23.1165 C   0  0  0  0  0  0  0  0  0  0  0  0
    1.0552   -9.6360   17.0650 C   0  0  0  0  0  0  0  0  0  0  0  0
    3.6519   -9.1783   16.9039 C   0  0  0  0  0  0  0  0  0  0  0  0
    7.8675   -7.0096   15.9415 C   0  0  0  0  0  0  0  0  0  0  0  0
    5.9733   -9.6553   17.3832 N   0  0  0  0  0  0  0  0  0  0  0  0
   10.2411   -2.9363   23.4301 C   0  0  0  0  0  0  0  0  0  0  0  0
   10.7288   -3.8197   19.9525 C   0  0  0  0  0  0  0  0  0  0  0  0
   10.1189   -5.0054   19.6987 C   0  0  0  0  0  0  0  0  0  0  0  0
  1  3  4  0
  1  7  4  0
  2 21  4  0
  2 27  4  0
  3  9  4  0
  3 10  4  0
  4  8  4  0
  4 18  4  0
  4 25  1  0
  5  9  4  0
  5 12  4  0
  6 13  1  0
  6 27  1  0
  7 28  4  0
  8 11  4  0
  9 29  4  0
 10 12  4  0
 11 24  1  0
 11 26  4  0
 12 25  1  0
 13 28  1  0
 14 20  4  0
 14 23  4  0
 15 17  4  0
 15 21  4  0
 16 19  4  0
 16 23  4  0
 17 22  4  0
 18 26  4  0
 19 24  4  0
 20 24  4  0
 22 27  4  0
 28 29  4  0
M  END
$$$$

 Created by Python create_sdf_string function

 29 33  0  0  0  0  0  0  0  0999 V2000
   10.7215   -3.3326   17.6437 C   0  0  0  0  0  0  0  0  0  0  0  0
    9.9489   -3.4675   24.6487 N   0  0  0  0  0  0  0  0  0  0  0  0
   10.0172   -4.4740   17.4101 C   0  0  0  0  0  0  0  0  0  0  0  0
    6.9051   -7.9575   16.4222 C   0  0  0  0  0  0  0  0  0  0  0  0
    8.9969   -6.3552   17.9668 N   0  0  0  0  0  0  0  0  0  0  0  0
   10.6702   -3.9051   22.4070 C   0  0  0  0  0  0  0  0  0  0  0  0
   11.0625   -3.0028   18.8894 C   0  0  0  0  0  0  0  0  0  0  0  0
    5.6180   -7.9194   16.1754 O   0  0  0  0  0  0  0  0  0  0  0  0
    9.7259   -5.3080   18.4485 C   0  0  0  0  0  0  0  0  0  0  0  0
    9.4578   -5.0200   16.3036 N   0  0  0  0  0  0  0  0  0  0  0  0
    5.0287   -8.9365   16.8223 C   0  0  0  0  0  0  0  0  0  0  0  0
    8.7742   -6.1498   16.6764 C   0  0  0  0  0  0  0  0  0  0  0  0
   10.9418   -3.4032   21.2053 O   0  0  0  0  0  0  0  0  0  0  0  0
    1.4797   -8.6258   16.2950 C   0  0  0  0  0  0  0  0  0  0  0  0
    9.2861   -1.2743   25.3585 C   0  0  0  0  0  0  0  0  0  0  0  0
    1.8892  -10.3985   17.7511 N   0  0  0  0  0  0  0  0  0  0  0  0
    9.6210   -0.6952   24.0976 C   0  0  0  0  0  0  0  0  0  0  0  0
    7.0792   -9.0217   17.1429 C   0  0  0  0  0  0  0  0  0  0  0  0
    3.1713  -10.1816   17.6634 C   0  0  0  0  0  0  0  0  0  0  0  0
    2.7878   -8.3822   16.2137 C   0  0  0  0  0  0  0  0  0  0  0  0
    9.4601   -2.6590   25.6528 C   0  0  0  0  0  0  0  0  0  0  0  0
   10.1182   -1.5672   23.1165 C   0  0  0  0  0  0  0  0  0  0  0  0
    1.0552   -9.6360   17.0650 C   0  0  0  0  0  0  0  0  0  0  0  0
    3.6519   -9.1783   16.9039 C   0  0  0  0  0  0  0  0  0  0  0  0
    7.8675   -7.0096   15.9415 C   0  0  0  0  0  0  0  0  0  0  0  0
    5.9733   -9.6553   17.3832 N   0  0  0  0  0  0  0  0  0  0  0  0
   10.2411   -2.9363   23.4301 C   0  0  0  0  0  0  0  0  0  0  0  0
   10.7288   -3.8197   19.9525 C   0  0  0  0  0  0  0  0  0  0  0  0
   10.1189   -5.0054   19.6987 C   0  0  0  0  0  0  0  0  0  0  0  0
  1  3  4  0
  1  7  4  0
  2 21  4  0
  2 27  4  0
  3  9  4  0
  3 10  4  0
  4  8  4  0
  4 18  4  0
  4 25  1  0
  5  9  4  0
  5 12  4  0
  6 13  1  0
  6 27  1  0
  7 28  4  0
  8 11  4  0
  9 29  4  0
 10 12  4  0
 11 24  1  0
 11 26  4  0
 12 25  1  0
 13 28  1  0
 14 20  4  0
 14 23  4  0
 15 17  4  0
 15 21  4  0
 16 19  4  0
 16 23  4  0
 17 22  4  0
 18 26  4  0
 19 24  4  0
 20 24  4  0
 22 27  4  0
 28 29  4  0
M  END
$$$$

 Created by Python create_sdf_string function

 29 33  0  0  0  0  0  0  0  0999 V2000
   10.7215   -3.3326   17.6437 C   0  0  0  0  0  0  0  0  0  0  0  0
    9.9489   -3.4675   24.6487 N   0  0  0  0  0  0  0  0  0  0  0  0
   10.0172   -4.4740   17.4101 C   0  0  0  0  0  0  0  0  0  0  0  0
    6.9051   -7.9575   16.4222 C   0  0  0  0  0  0  0  0  0  0  0  0
    8.9969   -6.3552   17.9668 N   0  0  0  0  0  0  0  0  0  0  0  0
   10.6702   -3.9051   22.4070 C   0  0  0  0  0  0  0  0  0  0  0  0
   11.0625   -3.0028   18.8894 C   0  0  0  0  0  0  0  0  0  0  0  0
    5.6180   -7.9194   16.1754 O   0  0  0  0  0  0  0  0  0  0  0  0
    9.7259   -5.3080   18.4485 C   0  0  0  0  0  0  0  0  0  0  0  0
    9.4578   -5.0200   16.3036 N   0  0  0  0  0  0  0  0  0  0  0  0
    5.0287   -8.9365   16.8223 C   0  0  0  0  0  0  0  0  0  0  0  0
    8.7742   -6.1498   16.6764 C   0  0  0  0  0  0  0  0  0  0  0  0
   10.9418   -3.4032   21.2053 O   0  0  0  0  0  0  0  0  0  0  0  0
    1.4797   -8.6258   16.2950 C   0  0  0  0  0  0  0  0  0  0  0  0
    9.2861   -1.2743   25.3585 C   0  0  0  0  0  0  0  0  0  0  0  0
    1.8892  -10.3985   17.7511 N   0  0  0  0  0  0  0  0  0  0  0  0
    9.6210   -0.6952   24.0976 C   0  0  0  0  0  0  0  0  0  0  0  0
    7.0792   -9.0217   17.1429 C   0  0  0  0  0  0  0  0  0  0  0  0
    3.1713  -10.1816   17.6634 C   0  0  0  0  0  0  0  0  0  0  0  0
    2.7878   -8.3822   16.2137 C   0  0  0  0  0  0  0  0  0  0  0  0
    9.4601   -2.6590   25.6528 C   0  0  0  0  0  0  0  0  0  0  0  0
   10.1182   -1.5672   23.1165 C   0  0  0  0  0  0  0  0  0  0  0  0
    1.0552   -9.6360   17.0650 C   0  0  0  0  0  0  0  0  0  0  0  0
    3.6519   -9.1783   16.9039 C   0  0  0  0  0  0  0  0  0  0  0  0
    7.8675   -7.0096   15.9415 C   0  0  0  0  0  0  0  0  0  0  0  0
    5.9733   -9.6553   17.3832 N   0  0  0  0  0  0  0  0  0  0  0  0
   10.2411   -2.9363   23.4301 C   0  0  0  0  0  0  0  0  0  0  0  0
   10.7288   -3.8197   19.9525 C   0  0  0  0  0  0  0  0  0  0  0  0
   10.1189   -5.0054   19.6987 C   0  0  0  0  0  0  0  0  0  0  0  0
  1  3  4  0
  1  7  4  0
  2 21  4  0
  2 27  4  0
  3  9  4  0
  3 10  4  0
  4  8  4  0
  4 18  4  0
  4 25  1  0
  5  9  4  0
  5 12  4  0
  6 13  1  0
  6 27  1  0
  7 28  4  0
  8 11  4  0
  9 29  4  0
 10 12  4  0
 11 24  1  0
 11 26  4  0
 12 25  1  0
 13 28  1  0
 14 20  4  0
 14 23  4  0
 15 17  4  0
 15 21  4  0
 16 19  4  0
 16 23  4  0
 17 22  4  0
 18 26  4  0
 19 24  4  0
 20 24  4  0
 22 27  4  0
 28 29  4  0
M  END
$$$$

 Created by Python create_sdf_string function

 29 33  0  0  0  0  0  0  0  0999 V2000
   10.7215   -3.3326   17.6437 C   0  0  0  0  0  0  0  0  0  0  0  0
    9.9489   -3.4675   24.6487 N   0  0  0  0  0  0  0  0  0  0  0  0
   10.0172   -4.4740   17.4101 C   0  0  0  0  0  0  0  0  0  0  0  0
    6.9051   -7.9575   16.4222 C   0  0  0  0  0  0  0  0  0  0  0  0
    8.9969   -6.3552   17.9668 N   0  0  0  0  0  0  0  0  0  0  0  0
   10.6702   -3.9051   22.4070 C   0  0  0  0  0  0  0  0  0  0  0  0
   11.0625   -3.0028   18.8894 C   0  0  0  0  0  0  0  0  0  0  0  0
    5.6180   -7.9194   16.1754 O   0  0  0  0  0  0  0  0  0  0  0  0
    9.7259   -5.3080   18.4485 C   0  0  0  0  0  0  0  0  0  0  0  0
    9.4578   -5.0200   16.3036 N   0  0  0  0  0  0  0  0  0  0  0  0
    5.0287   -8.9365   16.8223 C   0  0  0  0  0  0  0  0  0  0  0  0
    8.7742   -6.1498   16.6764 C   0  0  0  0  0  0  0  0  0  0  0  0
   10.9418   -3.4032   21.2053 O   0  0  0  0  0  0  0  0  0  0  0  0
    1.4797   -8.6258   16.2950 C   0  0  0  0  0  0  0  0  0  0  0  0
    9.2861   -1.2743   25.3585 C   0  0  0  0  0  0  0  0  0  0  0  0
    1.8892  -10.3985   17.7511 N   0  0  0  0  0  0  0  0  0  0  0  0
    9.6210   -0.6952   24.0976 C   0  0  0  0  0  0  0  0  0  0  0  0
    7.0792   -9.0217   17.1429 C   0  0  0  0  0  0  0  0  0  0  0  0
    3.1713  -10.1816   17.6634 C   0  0  0  0  0  0  0  0  0  0  0  0
    2.7878   -8.3822   16.2137 C   0  0  0  0  0  0  0  0  0  0  0  0
    9.4601   -2.6590   25.6528 C   0  0  0  0  0  0  0  0  0  0  0  0
   10.1182   -1.5672   23.1165 C   0  0  0  0  0  0  0  0  0  0  0  0
    1.0552   -9.6360   17.0650 C   0  0  0  0  0  0  0  0  0  0  0  0
    3.6519   -9.1783   16.9039 C   0  0  0  0  0  0  0  0  0  0  0  0
    7.8675   -7.0096   15.9415 C   0  0  0  0  0  0  0  0  0  0  0  0
    5.9733   -9.6553   17.3832 N   0  0  0  0  0  0  0  0  0  0  0  0
   10.2411   -2.9363   23.4301 C   0  0  0  0  0  0  0  0  0  0  0  0
   10.7288   -3.8197   19.9525 C   0  0  0  0  0  0  0  0  0  0  0  0
   10.1189   -5.0054   19.6987 C   0  0  0  0  0  0  0  0  0  0  0  0
  1  3  4  0
  1  7  4  0
  2 21  4  0
  2 27  4  0
  3  9  4  0
  3 10  4  0
  4  8  4  0
  4 18  4  0
  4 25  1  0
  5  9  4  0
  5 12  4  0
  6 13  1  0
  6 27  1  0
  7 28  4  0
  8 11  4  0
  9 29  4  0
 10 12  4  0
 11 24  1  0
 11 26  4  0
 12 25  1  0
 13 28  1  0
 14 20  4  0
 14 23  4  0
 15 17  4  0
 15 21  4  0
 16 19  4  0
 16 23  4  0
 17 22  4  0
 18 26  4  0
 19 24  4  0
 20 24  4  0
 22 27  4  0
 28 29  4  0
M  END
$$$$

 Created by Python create_sdf_string function

 29 33  0  0  0  0  0  0  0  0999 V2000
   10.7215   -3.3326   17.6437 C   0  0  0  0  0  0  0  0  0  0  0  0
    9.9489   -3.4675   24.6487 N   0  0  0  0  0  0  0  0  0  0  0  0
   10.0172   -4.4740   17.4101 C   0  0  0  0  0  0  0  0  0  0  0  0
    6.9051   -7.9575   16.4222 C   0  0  0  0  0  0  0  0  0  0  0  0
    8.9969   -6.3552   17.9668 N   0  0  0  0  0  0  0  0  0  0  0  0
   10.6702   -3.9051   22.4070 C   0  0  0  0  0  0  0  0  0  0  0  0
   11.0625   -3.0028   18.8894 C   0  0  0  0  0  0  0  0  0  0  0  0
    5.6180   -7.9194   16.1754 O   0  0  0  0  0  0  0  0  0  0  0  0
    9.7259   -5.3080   18.4485 C   0  0  0  0  0  0  0  0  0  0  0  0
    9.4578   -5.0200   16.3036 N   0  0  0  0  0  0  0  0  0  0  0  0
    5.0287   -8.9365   16.8223 C   0  0  0  0  0  0  0  0  0  0  0  0
    8.7742   -6.1498   16.6764 C   0  0  0  0  0  0  0  0  0  0  0  0
   10.9418   -3.4032   21.2053 O   0  0  0  0  0  0  0  0  0  0  0  0
    1.4797   -8.6258   16.2950 C   0  0  0  0  0  0  0  0  0  0  0  0
    9.2861   -1.2743   25.3585 C   0  0  0  0  0  0  0  0  0  0  0  0
    1.8892  -10.3985   17.7511 N   0  0  0  0  0  0  0  0  0  0  0  0
    9.6210   -0.6952   24.0976 C   0  0  0  0  0  0  0  0  0  0  0  0
    7.0792   -9.0217   17.1429 C   0  0  0  0  0  0  0  0  0  0  0  0
    3.1713  -10.1816   17.6634 C   0  0  0  0  0  0  0  0  0  0  0  0
    2.7878   -8.3822   16.2137 C   0  0  0  0  0  0  0  0  0  0  0  0
    9.4601   -2.6590   25.6528 C   0  0  0  0  0  0  0  0  0  0  0  0
   10.1182   -1.5672   23.1165 C   0  0  0  0  0  0  0  0  0  0  0  0
    1.0552   -9.6360   17.0650 C   0  0  0  0  0  0  0  0  0  0  0  0
    3.6519   -9.1783   16.9039 C   0  0  0  0  0  0  0  0  0  0  0  0
    7.8675   -7.0096   15.9415 C   0  0  0  0  0  0  0  0  0  0  0  0
    5.9733   -9.6553   17.3832 N   0  0  0  0  0  0  0  0  0  0  0  0
   10.2411   -2.9363   23.4301 C   0  0  0  0  0  0  0  0  0  0  0  0
   10.7288   -3.8197   19.9525 C   0  0  0  0  0  0  0  0  0  0  0  0
   10.1189   -5.0054   19.6987 C   0  0  0  0  0  0  0  0  0  0  0  0
  1  3  4  0
  1  7  4  0
  2 21  4  0
  2 27  4  0
  3  9  4  0
  3 10  4  0
  4  8  4  0
  4 18  4  0
  4 25  1  0
  5  9  4  0
  5 12  4  0
  6 13  1  0
  6 27  1  0
  7 28  4  0
  8 11  4  0
  9 29  4  0
 10 12  4  0
 11 24  1  0
 11 26  4  0
 12 25  1  0
 13 28  1  0
 14 20  4  0
 14 23  4  0
 15 17  4  0
 15 21  4  0
 16 19  4  0
 16 23  4  0
 17 22  4  0
 18 26  4  0
 19 24  4  0
 20 24  4  0
 22 27  4  0
 28 29  4  0
M  END
$$$$

 Created by Python create_sdf_string function

 29 33  0  0  0  0  0  0  0  0999 V2000
   10.7215   -3.3326   17.6437 C   0  0  0  0  0  0  0  0  0  0  0  0
    9.9489   -3.4675   24.6487 N   0  0  0  0  0  0  0  0  0  0  0  0
   10.0172   -4.4740   17.4101 C   0  0  0  0  0  0  0  0  0  0  0  0
    6.9051   -7.9575   16.4222 C   0  0  0  0  0  0  0  0  0  0  0  0
    8.9969   -6.3552   17.9668 N   0  0  0  0  0  0  0  0  0  0  0  0
   10.6702   -3.9051   22.4070 C   0  0  0  0  0  0  0  0  0  0  0  0
   11.0625   -3.0028   18.8894 C   0  0  0  0  0  0  0  0  0  0  0  0
    5.6180   -7.9194   16.1754 O   0  0  0  0  0  0  0  0  0  0  0  0
    9.7259   -5.3080   18.4485 C   0  0  0  0  0  0  0  0  0  0  0  0
    9.4578   -5.0200   16.3036 N   0  0  0  0  0  0  0  0  0  0  0  0
    5.0287   -8.9365   16.8223 C   0  0  0  0  0  0  0  0  0  0  0  0
    8.7742   -6.1498   16.6764 C   0  0  0  0  0  0  0  0  0  0  0  0
   10.9418   -3.4032   21.2053 O   0  0  0  0  0  0  0  0  0  0  0  0
    1.4797   -8.6258   16.2950 C   0  0  0  0  0  0  0  0  0  0  0  0
    9.2861   -1.2743   25.3585 C   0  0  0  0  0  0  0  0  0  0  0  0
    1.8892  -10.3985   17.7511 N   0  0  0  0  0  0  0  0  0  0  0  0
    9.6210   -0.6952   24.0976 C   0  0  0  0  0  0  0  0  0  0  0  0
    7.0792   -9.0217   17.1429 C   0  0  0  0  0  0  0  0  0  0  0  0
    3.1713  -10.1816   17.6634 C   0  0  0  0  0  0  0  0  0  0  0  0
    2.7878   -8.3822   16.2137 C   0  0  0  0  0  0  0  0  0  0  0  0
    9.4601   -2.6590   25.6528 C   0  0  0  0  0  0  0  0  0  0  0  0
   10.1182   -1.5672   23.1165 C   0  0  0  0  0  0  0  0  0  0  0  0
    1.0552   -9.6360   17.0650 C   0  0  0  0  0  0  0  0  0  0  0  0
    3.6519   -9.1783   16.9039 C   0  0  0  0  0  0  0  0  0  0  0  0
    7.8675   -7.0096   15.9415 C   0  0  0  0  0  0  0  0  0  0  0  0
    5.9733   -9.6553   17.3832 N   0  0  0  0  0  0  0  0  0  0  0  0
   10.2411   -2.9363   23.4301 C   0  0  0  0  0  0  0  0  0  0  0  0
   10.7288   -3.8197   19.9525 C   0  0  0  0  0  0  0  0  0  0  0  0
   10.1189   -5.0054   19.6987 C   0  0  0  0  0  0  0  0  0  0  0  0
  1  3  4  0
  1  7  4  0
  2 21  4  0
  2 27  4  0
  3  9  4  0
  3 10  4  0
  4  8  4  0
  4 18  4  0
  4 25  1  0
  5  9  4  0
  5 12  4  0
  6 13  1  0
  6 27  1  0
  7 28  4  0
  8 11  4  0
  9 29  4  0
 10 12  4  0
 11 24  1  0
 11 26  4  0
 12 25  1  0
 13 28  1  0
 14 20  4  0
 14 23  4  0
 15 17  4  0
 15 21  4  0
 16 19  4  0
 16 23  4  0
 17 22  4  0
 18 26  4  0
 19 24  4  0
 20 24  4  0
 22 27  4  0
 28 29  4  0
M  END
$$$$

 Created by Python create_sdf_string function

 29 33  0  0  0  0  0  0  0  0999 V2000
   10.7215   -3.3326   17.6437 C   0  0  0  0  0  0  0  0  0  0  0  0
    9.9489   -3.4675   24.6487 N   0  0  0  0  0  0  0  0  0  0  0  0
   10.0172   -4.4740   17.4101 C   0  0  0  0  0  0  0  0  0  0  0  0
    6.9051   -7.9575   16.4222 C   0  0  0  0  0  0  0  0  0  0  0  0
    8.9969   -6.3552   17.9668 N   0  0  0  0  0  0  0  0  0  0  0  0
   10.6702   -3.9051   22.4070 C   0  0  0  0  0  0  0  0  0  0  0  0
   11.0625   -3.0028   18.8894 C   0  0  0  0  0  0  0  0  0  0  0  0
    5.6180   -7.9194   16.1754 O   0  0  0  0  0  0  0  0  0  0  0  0
    9.7259   -5.3080   18.4485 C   0  0  0  0  0  0  0  0  0  0  0  0
    9.4578   -5.0200   16.3036 N   0  0  0  0  0  0  0  0  0  0  0  0
    5.0287   -8.9365   16.8223 C   0  0  0  0  0  0  0  0  0  0  0  0
    8.7742   -6.1498   16.6764 C   0  0  0  0  0  0  0  0  0  0  0  0
   10.9418   -3.4032   21.2053 O   0  0  0  0  0  0  0  0  0  0  0  0
    1.4797   -8.6258   16.2950 C   0  0  0  0  0  0  0  0  0  0  0  0
    9.2861   -1.2743   25.3585 C   0  0  0  0  0  0  0  0  0  0  0  0
    1.8892  -10.3985   17.7511 N   0  0  0  0  0  0  0  0  0  0  0  0
    9.6210   -0.6952   24.0976 C   0  0  0  0  0  0  0  0  0  0  0  0
    7.0792   -9.0217   17.1429 C   0  0  0  0  0  0  0  0  0  0  0  0
    3.1713  -10.1816   17.6634 C   0  0  0  0  0  0  0  0  0  0  0  0
    2.7878   -8.3822   16.2137 C   0  0  0  0  0  0  0  0  0  0  0  0
    9.4601   -2.6590   25.6528 C   0  0  0  0  0  0  0  0  0  0  0  0
   10.1182   -1.5672   23.1165 C   0  0  0  0  0  0  0  0  0  0  0  0
    1.0552   -9.6360   17.0650 C   0  0  0  0  0  0  0  0  0  0  0  0
    3.6519   -9.1783   16.9039 C   0  0  0  0  0  0  0  0  0  0  0  0
    7.8675   -7.0096   15.9415 C   0  0  0  0  0  0  0  0  0  0  0  0
    5.9733   -9.6553   17.3832 N   0  0  0  0  0  0  0  0  0  0  0  0
   10.2411   -2.9363   23.4301 C   0  0  0  0  0  0  0  0  0  0  0  0
   10.7288   -3.8197   19.9525 C   0  0  0  0  0  0  0  0  0  0  0  0
   10.1189   -5.0054   19.6987 C   0  0  0  0  0  0  0  0  0  0  0  0
  1  3  4  0
  1  7  4  0
  2 21  4  0
  2 27  4  0
  3  9  4  0
  3 10  4  0
  4  8  4  0
  4 18  4  0
  4 25  1  0
  5  9  4  0
  5 12  4  0
  6 13  1  0
  6 27  1  0
  7 28  4  0
  8 11  4  0
  9 29  4  0
 10 12  4  0
 11 24  1  0
 11 26  4  0
 12 25  1  0
 13 28  1  0
 14 20  4  0
 14 23  4  0
 15 17  4  0
 15 21  4  0
 16 19  4  0
 16 23  4  0
 17 22  4  0
 18 26  4  0
 19 24  4  0
 20 24  4  0
 22 27  4  0
 28 29  4  0
M  END
$$$$

 Created by Python create_sdf_string function

 29 33  0  0  0  0  0  0  0  0999 V2000
   10.7215   -3.3326   17.6437 C   0  0  0  0  0  0  0  0  0  0  0  0
    9.9489   -3.4675   24.6487 N   0  0  0  0  0  0  0  0  0  0  0  0
   10.0172   -4.4740   17.4101 C   0  0  0  0  0  0  0  0  0  0  0  0
    6.9051   -7.9575   16.4222 C   0  0  0  0  0  0  0  0  0  0  0  0
    8.9969   -6.3552   17.9668 N   0  0  0  0  0  0  0  0  0  0  0  0
   10.6702   -3.9051   22.4070 C   0  0  0  0  0  0  0  0  0  0  0  0
   11.0625   -3.0028   18.8894 C   0  0  0  0  0  0  0  0  0  0  0  0
    5.6180   -7.9194   16.1754 O   0  0  0  0  0  0  0  0  0  0  0  0
    9.7259   -5.3080   18.4485 C   0  0  0  0  0  0  0  0  0  0  0  0
    9.4578   -5.0200   16.3036 N   0  0  0  0  0  0  0  0  0  0  0  0
    5.0287   -8.9365   16.8223 C   0  0  0  0  0  0  0  0  0  0  0  0
    8.7742   -6.1498   16.6764 C   0  0  0  0  0  0  0  0  0  0  0  0
   10.9418   -3.4032   21.2053 O   0  0  0  0  0  0  0  0  0  0  0  0
    1.4797   -8.6258   16.2950 C   0  0  0  0  0  0  0  0  0  0  0  0
    9.2861   -1.2743   25.3585 C   0  0  0  0  0  0  0  0  0  0  0  0
    1.8892  -10.3985   17.7511 N   0  0  0  0  0  0  0  0  0  0  0  0
    9.6210   -0.6952   24.0976 C   0  0  0  0  0  0  0  0  0  0  0  0
    7.0792   -9.0217   17.1429 C   0  0  0  0  0  0  0  0  0  0  0  0
    3.1713  -10.1816   17.6634 C   0  0  0  0  0  0  0  0  0  0  0  0
    2.7878   -8.3822   16.2137 C   0  0  0  0  0  0  0  0  0  0  0  0
    9.4601   -2.6590   25.6528 C   0  0  0  0  0  0  0  0  0  0  0  0
   10.1182   -1.5672   23.1165 C   0  0  0  0  0  0  0  0  0  0  0  0
    1.0552   -9.6360   17.0650 C   0  0  0  0  0  0  0  0  0  0  0  0
    3.6519   -9.1783   16.9039 C   0  0  0  0  0  0  0  0  0  0  0  0
    7.8675   -7.0096   15.9415 C   0  0  0  0  0  0  0  0  0  0  0  0
    5.9733   -9.6553   17.3832 N   0  0  0  0  0  0  0  0  0  0  0  0
   10.2411   -2.9363   23.4301 C   0  0  0  0  0  0  0  0  0  0  0  0
   10.7288   -3.8197   19.9525 C   0  0  0  0  0  0  0  0  0  0  0  0
   10.1189   -5.0054   19.6987 C   0  0  0  0  0  0  0  0  0  0  0  0
  1  3  4  0
  1  7  4  0
  2 21  4  0
  2 27  4  0
  3  9  4  0
  3 10  4  0
  4  8  4  0
  4 18  4  0
  4 25  1  0
  5  9  4  0
  5 12  4  0
  6 13  1  0
  6 27  1  0
  7 28  4  0
  8 11  4  0
  9 29  4  0
 10 12  4  0
 11 24  1  0
 11 26  4  0
 12 25  1  0
 13 28  1  0
 14 20  4  0
 14 23  4  0
 15 17  4  0
 15 21  4  0
 16 19  4  0
 16 23  4  0
 17 22  4  0
 18 26  4  0
 19 24  4  0
 20 24  4  0
 22 27  4  0
 28 29  4  0
M  END
$$$$

 Created by Python create_sdf_string function

 29 33  0  0  0  0  0  0  0  0999 V2000
   10.7215   -3.3326   17.6437 C   0  0  0  0  0  0  0  0  0  0  0  0
    9.9489   -3.4675   24.6487 N   0  0  0  0  0  0  0  0  0  0  0  0
   10.0172   -4.4740   17.4101 C   0  0  0  0  0  0  0  0  0  0  0  0
    6.9051   -7.9575   16.4222 C   0  0  0  0  0  0  0  0  0  0  0  0
    8.9969   -6.3552   17.9668 N   0  0  0  0  0  0  0  0  0  0  0  0
   10.6702   -3.9051   22.4070 C   0  0  0  0  0  0  0  0  0  0  0  0
   11.0625   -3.0028   18.8894 C   0  0  0  0  0  0  0  0  0  0  0  0
    5.6180   -7.9194   16.1754 O   0  0  0  0  0  0  0  0  0  0  0  0
    9.7259   -5.3080   18.4485 C   0  0  0  0  0  0  0  0  0  0  0  0
    9.4578   -5.0200   16.3036 N   0  0  0  0  0  0  0  0  0  0  0  0
    5.0287   -8.9365   16.8223 C   0  0  0  0  0  0  0  0  0  0  0  0
    8.7742   -6.1498   16.6764 C   0  0  0  0  0  0  0  0  0  0  0  0
   10.9418   -3.4032   21.2053 O   0  0  0  0  0  0  0  0  0  0  0  0
    1.4797   -8.6258   16.2950 C   0  0  0  0  0  0  0  0  0  0  0  0
    9.2861   -1.2743   25.3585 C   0  0  0  0  0  0  0  0  0  0  0  0
    1.8892  -10.3985   17.7511 N   0  0  0  0  0  0  0  0  0  0  0  0
    9.6210   -0.6952   24.0976 C   0  0  0  0  0  0  0  0  0  0  0  0
    7.0792   -9.0217   17.1429 C   0  0  0  0  0  0  0  0  0  0  0  0
    3.1713  -10.1816   17.6634 C   0  0  0  0  0  0  0  0  0  0  0  0
    2.7878   -8.3822   16.2137 C   0  0  0  0  0  0  0  0  0  0  0  0
    9.4601   -2.6590   25.6528 C   0  0  0  0  0  0  0  0  0  0  0  0
   10.1182   -1.5672   23.1165 C   0  0  0  0  0  0  0  0  0  0  0  0
    1.0552   -9.6360   17.0650 C   0  0  0  0  0  0  0  0  0  0  0  0
    3.6519   -9.1783   16.9039 C   0  0  0  0  0  0  0  0  0  0  0  0
    7.8675   -7.0096   15.9415 C   0  0  0  0  0  0  0  0  0  0  0  0
    5.9733   -9.6553   17.3832 N   0  0  0  0  0  0  0  0  0  0  0  0
   10.2411   -2.9363   23.4301 C   0  0  0  0  0  0  0  0  0  0  0  0
   10.7288   -3.8197   19.9525 C   0  0  0  0  0  0  0  0  0  0  0  0
   10.1189   -5.0054   19.6987 C   0  0  0  0  0  0  0  0  0  0  0  0
  1  3  4  0
  1  7  4  0
  2 21  4  0
  2 27  4  0
  3  9  4  0
  3 10  4  0
  4  8  4  0
  4 18  4  0
  4 25  1  0
  5  9  4  0
  5 12  4  0
  6 13  1  0
  6 27  1  0
  7 28  4  0
  8 11  4  0
  9 29  4  0
 10 12  4  0
 11 24  1  0
 11 26  4  0
 12 25  1  0
 13 28  1  0
 14 20  4  0
 14 23  4  0
 15 17  4  0
 15 21  4  0
 16 19  4  0
 16 23  4  0
 17 22  4  0
 18 26  4  0
 19 24  4  0
 20 24  4  0
 22 27  4  0
 28 29  4  0
M  END
$$$$

 Created by Python create_sdf_string function

 29 33  0  0  0  0  0  0  0  0999 V2000
   10.7215   -3.3326   17.6437 C   0  0  0  0  0  0  0  0  0  0  0  0
    9.9489   -3.4675   24.6487 N   0  0  0  0  0  0  0  0  0  0  0  0
   10.0172   -4.4740   17.4101 C   0  0  0  0  0  0  0  0  0  0  0  0
    6.9051   -7.9575   16.4222 C   0  0  0  0  0  0  0  0  0  0  0  0
    8.9969   -6.3552   17.9668 N   0  0  0  0  0  0  0  0  0  0  0  0
   10.6702   -3.9051   22.4070 C   0  0  0  0  0  0  0  0  0  0  0  0
   11.0625   -3.0028   18.8894 C   0  0  0  0  0  0  0  0  0  0  0  0
    5.6180   -7.9194   16.1754 O   0  0  0  0  0  0  0  0  0  0  0  0
    9.7259   -5.3080   18.4485 C   0  0  0  0  0  0  0  0  0  0  0  0
    9.4578   -5.0200   16.3036 N   0  0  0  0  0  0  0  0  0  0  0  0
    5.0287   -8.9365   16.8223 C   0  0  0  0  0  0  0  0  0  0  0  0
    8.7742   -6.1498   16.6764 C   0  0  0  0  0  0  0  0  0  0  0  0
   10.9418   -3.4032   21.2053 O   0  0  0  0  0  0  0  0  0  0  0  0
    1.4797   -8.6258   16.2950 C   0  0  0  0  0  0  0  0  0  0  0  0
    9.2861   -1.2743   25.3585 C   0  0  0  0  0  0  0  0  0  0  0  0
    1.8892  -10.3985   17.7511 N   0  0  0  0  0  0  0  0  0  0  0  0
    9.6210   -0.6952   24.0976 C   0  0  0  0  0  0  0  0  0  0  0  0
    7.0792   -9.0217   17.1429 C   0  0  0  0  0  0  0  0  0  0  0  0
    3.1713  -10.1816   17.6634 C   0  0  0  0  0  0  0  0  0  0  0  0
    2.7878   -8.3822   16.2137 C   0  0  0  0  0  0  0  0  0  0  0  0
    9.4601   -2.6590   25.6528 C   0  0  0  0  0  0  0  0  0  0  0  0
   10.1182   -1.5672   23.1165 C   0  0  0  0  0  0  0  0  0  0  0  0
    1.0552   -9.6360   17.0650 C   0  0  0  0  0  0  0  0  0  0  0  0
    3.6519   -9.1783   16.9039 C   0  0  0  0  0  0  0  0  0  0  0  0
    7.8675   -7.0096   15.9415 C   0  0  0  0  0  0  0  0  0  0  0  0
    5.9733   -9.6553   17.3832 N   0  0  0  0  0  0  0  0  0  0  0  0
   10.2411   -2.9363   23.4301 C   0  0  0  0  0  0  0  0  0  0  0  0
   10.7288   -3.8197   19.9525 C   0  0  0  0  0  0  0  0  0  0  0  0
   10.1189   -5.0054   19.6987 C   0  0  0  0  0  0  0  0  0  0  0  0
  1  3  4  0
  1  7  4  0
  2 21  4  0
  2 27  4  0
  3  9  4  0
  3 10  4  0
  4  8  4  0
  4 18  4  0
  4 25  1  0
  5  9  4  0
  5 12  4  0
  6 13  1  0
  6 27  1  0
  7 28  4  0
  8 11  4  0
  9 29  4  0
 10 12  4  0
 11 24  1  0
 11 26  4  0
 12 25  1  0
 13 28  1  0
 14 20  4  0
 14 23  4  0
 15 17  4  0
 15 21  4  0
 16 19  4  0
 16 23  4  0
 17 22  4  0
 18 26  4  0
 19 24  4  0
 20 24  4  0
 22 27  4  0
 28 29  4  0
M  END
$$$$

 Created by Python create_sdf_string function

 29 33  0  0  0  0  0  0  0  0999 V2000
   10.7215   -3.3326   17.6437 C   0  0  0  0  0  0  0  0  0  0  0  0
    9.9489   -3.4675   24.6487 N   0  0  0  0  0  0  0  0  0  0  0  0
   10.0172   -4.4740   17.4101 C   0  0  0  0  0  0  0  0  0  0  0  0
    6.9051   -7.9575   16.4222 C   0  0  0  0  0  0  0  0  0  0  0  0
    8.9969   -6.3552   17.9668 N   0  0  0  0  0  0  0  0  0  0  0  0
   10.6702   -3.9051   22.4070 C   0  0  0  0  0  0  0  0  0  0  0  0
   11.0625   -3.0028   18.8894 C   0  0  0  0  0  0  0  0  0  0  0  0
    5.6180   -7.9194   16.1754 O   0  0  0  0  0  0  0  0  0  0  0  0
    9.7259   -5.3080   18.4485 C   0  0  0  0  0  0  0  0  0  0  0  0
    9.4578   -5.0200   16.3036 N   0  0  0  0  0  0  0  0  0  0  0  0
    5.0287   -8.9365   16.8223 C   0  0  0  0  0  0  0  0  0  0  0  0
    8.7742   -6.1498   16.6764 C   0  0  0  0  0  0  0  0  0  0  0  0
   10.9418   -3.4032   21.2053 O   0  0  0  0  0  0  0  0  0  0  0  0
    1.4797   -8.6258   16.2950 C   0  0  0  0  0  0  0  0  0  0  0  0
    9.2861   -1.2743   25.3585 C   0  0  0  0  0  0  0  0  0  0  0  0
    1.8892  -10.3985   17.7511 N   0  0  0  0  0  0  0  0  0  0  0  0
    9.6210   -0.6952   24.0976 C   0  0  0  0  0  0  0  0  0  0  0  0
    7.0792   -9.0217   17.1429 C   0  0  0  0  0  0  0  0  0  0  0  0
    3.1713  -10.1816   17.6634 C   0  0  0  0  0  0  0  0  0  0  0  0
    2.7878   -8.3822   16.2137 C   0  0  0  0  0  0  0  0  0  0  0  0
    9.4601   -2.6590   25.6528 C   0  0  0  0  0  0  0  0  0  0  0  0
   10.1182   -1.5672   23.1165 C   0  0  0  0  0  0  0  0  0  0  0  0
    1.0552   -9.6360   17.0650 C   0  0  0  0  0  0  0  0  0  0  0  0
    3.6519   -9.1783   16.9039 C   0  0  0  0  0  0  0  0  0  0  0  0
    7.8675   -7.0096   15.9415 C   0  0  0  0  0  0  0  0  0  0  0  0
    5.9733   -9.6553   17.3832 N   0  0  0  0  0  0  0  0  0  0  0  0
   10.2411   -2.9363   23.4301 C   0  0  0  0  0  0  0  0  0  0  0  0
   10.7288   -3.8197   19.9525 C   0  0  0  0  0  0  0  0  0  0  0  0
   10.1189   -5.0054   19.6987 C   0  0  0  0  0  0  0  0  0  0  0  0
  1  3  4  0
  1  7  4  0
  2 21  4  0
  2 27  4  0
  3  9  4  0
  3 10  4  0
  4  8  4  0
  4 18  4  0
  4 25  1  0
  5  9  4  0
  5 12  4  0
  6 13  1  0
  6 27  1  0
  7 28  4  0
  8 11  4  0
  9 29  4  0
 10 12  4  0
 11 24  1  0
 11 26  4  0
 12 25  1  0
 13 28  1  0
 14 20  4  0
 14 23  4  0
 15 17  4  0
 15 21  4  0
 16 19  4  0
 16 23  4  0
 17 22  4  0
 18 26  4  0
 19 24  4  0
 20 24  4  0
 22 27  4  0
 28 29  4  0
M  END
$$$$

 Created by Python create_sdf_string function

 29 33  0  0  0  0  0  0  0  0999 V2000
   10.7215   -3.3326   17.6437 C   0  0  0  0  0  0  0  0  0  0  0  0
    9.9489   -3.4675   24.6487 N   0  0  0  0  0  0  0  0  0  0  0  0
   10.0172   -4.4740   17.4101 C   0  0  0  0  0  0  0  0  0  0  0  0
    6.9051   -7.9575   16.4222 C   0  0  0  0  0  0  0  0  0  0  0  0
    8.9969   -6.3552   17.9668 N   0  0  0  0  0  0  0  0  0  0  0  0
   10.6702   -3.9051   22.4070 C   0  0  0  0  0  0  0  0  0  0  0  0
   11.0625   -3.0028   18.8894 C   0  0  0  0  0  0  0  0  0  0  0  0
    5.6180   -7.9194   16.1754 O   0  0  0  0  0  0  0  0  0  0  0  0
    9.7259   -5.3080   18.4485 C   0  0  0  0  0  0  0  0  0  0  0  0
    9.4578   -5.0200   16.3036 N   0  0  0  0  0  0  0  0  0  0  0  0
    5.0287   -8.9365   16.8223 C   0  0  0  0  0  0  0  0  0  0  0  0
    8.7742   -6.1498   16.6764 C   0  0  0  0  0  0  0  0  0  0  0  0
   10.9418   -3.4032   21.2053 O   0  0  0  0  0  0  0  0  0  0  0  0
    1.4797   -8.6258   16.2950 C   0  0  0  0  0  0  0  0  0  0  0  0
    9.2861   -1.2743   25.3585 C   0  0  0  0  0  0  0  0  0  0  0  0
    1.8892  -10.3985   17.7511 N   0  0  0  0  0  0  0  0  0  0  0  0
    9.6210   -0.6952   24.0976 C   0  0  0  0  0  0  0  0  0  0  0  0
    7.0792   -9.0217   17.1429 C   0  0  0  0  0  0  0  0  0  0  0  0
    3.1713  -10.1816   17.6634 C   0  0  0  0  0  0  0  0  0  0  0  0
    2.7878   -8.3822   16.2137 C   0  0  0  0  0  0  0  0  0  0  0  0
    9.4601   -2.6590   25.6528 C   0  0  0  0  0  0  0  0  0  0  0  0
   10.1182   -1.5672   23.1165 C   0  0  0  0  0  0  0  0  0  0  0  0
    1.0552   -9.6360   17.0650 C   0  0  0  0  0  0  0  0  0  0  0  0
    3.6519   -9.1783   16.9039 C   0  0  0  0  0  0  0  0  0  0  0  0
    7.8675   -7.0096   15.9415 C   0  0  0  0  0  0  0  0  0  0  0  0
    5.9733   -9.6553   17.3832 N   0  0  0  0  0  0  0  0  0  0  0  0
   10.2411   -2.9363   23.4301 C   0  0  0  0  0  0  0  0  0  0  0  0
   10.7288   -3.8197   19.9525 C   0  0  0  0  0  0  0  0  0  0  0  0
   10.1189   -5.0054   19.6987 C   0  0  0  0  0  0  0  0  0  0  0  0
  1  3  4  0
  1  7  4  0
  2 21  4  0
  2 27  4  0
  3  9  4  0
  3 10  4  0
  4  8  4  0
  4 18  4  0
  4 25  1  0
  5  9  4  0
  5 12  4  0
  6 13  1  0
  6 27  1  0
  7 28  4  0
  8 11  4  0
  9 29  4  0
 10 12  4  0
 11 24  1  0
 11 26  4  0
 12 25  1  0
 13 28  1  0
 14 20  4  0
 14 23  4  0
 15 17  4  0
 15 21  4  0
 16 19  4  0
 16 23  4  0
 17 22  4  0
 18 26  4  0
 19 24  4  0
 20 24  4  0
 22 27  4  0
 28 29  4  0
M  END
$$$$

 Created by Python create_sdf_string function

 29 33  0  0  0  0  0  0  0  0999 V2000
   10.7215   -3.3326   17.6437 C   0  0  0  0  0  0  0  0  0  0  0  0
    9.9489   -3.4675   24.6487 N   0  0  0  0  0  0  0  0  0  0  0  0
   10.0172   -4.4740   17.4101 C   0  0  0  0  0  0  0  0  0  0  0  0
    6.9051   -7.9575   16.4222 C   0  0  0  0  0  0  0  0  0  0  0  0
    8.9969   -6.3552   17.9668 N   0  0  0  0  0  0  0  0  0  0  0  0
   10.6702   -3.9051   22.4070 C   0  0  0  0  0  0  0  0  0  0  0  0
   11.0625   -3.0028   18.8894 C   0  0  0  0  0  0  0  0  0  0  0  0
    5.6180   -7.9194   16.1754 O   0  0  0  0  0  0  0  0  0  0  0  0
    9.7259   -5.3080   18.4485 C   0  0  0  0  0  0  0  0  0  0  0  0
    9.4578   -5.0200   16.3036 N   0  0  0  0  0  0  0  0  0  0  0  0
    5.0287   -8.9365   16.8223 C   0  0  0  0  0  0  0  0  0  0  0  0
    8.7742   -6.1498   16.6764 C   0  0  0  0  0  0  0  0  0  0  0  0
   10.9418   -3.4032   21.2053 O   0  0  0  0  0  0  0  0  0  0  0  0
    1.4797   -8.6258   16.2950 C   0  0  0  0  0  0  0  0  0  0  0  0
    9.2861   -1.2743   25.3585 C   0  0  0  0  0  0  0  0  0  0  0  0
    1.8892  -10.3985   17.7511 N   0  0  0  0  0  0  0  0  0  0  0  0
    9.6210   -0.6952   24.0976 C   0  0  0  0  0  0  0  0  0  0  0  0
    7.0792   -9.0217   17.1429 C   0  0  0  0  0  0  0  0  0  0  0  0
    3.1713  -10.1816   17.6634 C   0  0  0  0  0  0  0  0  0  0  0  0
    2.7878   -8.3822   16.2137 C   0  0  0  0  0  0  0  0  0  0  0  0
    9.4601   -2.6590   25.6528 C   0  0  0  0  0  0  0  0  0  0  0  0
   10.1182   -1.5672   23.1165 C   0  0  0  0  0  0  0  0  0  0  0  0
    1.0552   -9.6360   17.0650 C   0  0  0  0  0  0  0  0  0  0  0  0
    3.6519   -9.1783   16.9039 C   0  0  0  0  0  0  0  0  0  0  0  0
    7.8675   -7.0096   15.9415 C   0  0  0  0  0  0  0  0  0  0  0  0
    5.9733   -9.6553   17.3832 N   0  0  0  0  0  0  0  0  0  0  0  0
   10.2411   -2.9363   23.4301 C   0  0  0  0  0  0  0  0  0  0  0  0
   10.7288   -3.8197   19.9525 C   0  0  0  0  0  0  0  0  0  0  0  0
   10.1189   -5.0054   19.6987 C   0  0  0  0  0  0  0  0  0  0  0  0
  1  3  4  0
  1  7  4  0
  2 21  4  0
  2 27  4  0
  3  9  4  0
  3 10  4  0
  4  8  4  0
  4 18  4  0
  4 25  1  0
  5  9  4  0
  5 12  4  0
  6 13  1  0
  6 27  1  0
  7 28  4  0
  8 11  4  0
  9 29  4  0
 10 12  4  0
 11 24  1  0
 11 26  4  0
 12 25  1  0
 13 28  1  0
 14 20  4  0
 14 23  4  0
 15 17  4  0
 15 21  4  0
 16 19  4  0
 16 23  4  0
 17 22  4  0
 18 26  4  0
 19 24  4  0
 20 24  4  0
 22 27  4  0
 28 29  4  0
M  END
$$$$

 Created by Python create_sdf_string function

 29 33  0  0  0  0  0  0  0  0999 V2000
   10.7215   -3.3326   17.6437 C   0  0  0  0  0  0  0  0  0  0  0  0
    9.9489   -3.4675   24.6487 N   0  0  0  0  0  0  0  0  0  0  0  0
   10.0172   -4.4740   17.4101 C   0  0  0  0  0  0  0  0  0  0  0  0
    6.9051   -7.9575   16.4222 C   0  0  0  0  0  0  0  0  0  0  0  0
    8.9969   -6.3552   17.9668 N   0  0  0  0  0  0  0  0  0  0  0  0
   10.6702   -3.9051   22.4070 C   0  0  0  0  0  0  0  0  0  0  0  0
   11.0625   -3.0028   18.8894 C   0  0  0  0  0  0  0  0  0  0  0  0
    5.6180   -7.9194   16.1754 O   0  0  0  0  0  0  0  0  0  0  0  0
    9.7259   -5.3080   18.4485 C   0  0  0  0  0  0  0  0  0  0  0  0
    9.4578   -5.0200   16.3036 N   0  0  0  0  0  0  0  0  0  0  0  0
    5.0287   -8.9365   16.8223 C   0  0  0  0  0  0  0  0  0  0  0  0
    8.7742   -6.1498   16.6764 C   0  0  0  0  0  0  0  0  0  0  0  0
   10.9418   -3.4032   21.2053 O   0  0  0  0  0  0  0  0  0  0  0  0
    1.4797   -8.6258   16.2950 C   0  0  0  0  0  0  0  0  0  0  0  0
    9.2861   -1.2743   25.3585 C   0  0  0  0  0  0  0  0  0  0  0  0
    1.8892  -10.3985   17.7511 N   0  0  0  0  0  0  0  0  0  0  0  0
    9.6210   -0.6952   24.0976 C   0  0  0  0  0  0  0  0  0  0  0  0
    7.0792   -9.0217   17.1429 C   0  0  0  0  0  0  0  0  0  0  0  0
    3.1713  -10.1816   17.6634 C   0  0  0  0  0  0  0  0  0  0  0  0
    2.7878   -8.3822   16.2137 C   0  0  0  0  0  0  0  0  0  0  0  0
    9.4601   -2.6590   25.6528 C   0  0  0  0  0  0  0  0  0  0  0  0
   10.1182   -1.5672   23.1165 C   0  0  0  0  0  0  0  0  0  0  0  0
    1.0552   -9.6360   17.0650 C   0  0  0  0  0  0  0  0  0  0  0  0
    3.6519   -9.1783   16.9039 C   0  0  0  0  0  0  0  0  0  0  0  0
    7.8675   -7.0096   15.9415 C   0  0  0  0  0  0  0  0  0  0  0  0
    5.9733   -9.6553   17.3832 N   0  0  0  0  0  0  0  0  0  0  0  0
   10.2411   -2.9363   23.4301 C   0  0  0  0  0  0  0  0  0  0  0  0
   10.7288   -3.8197   19.9525 C   0  0  0  0  0  0  0  0  0  0  0  0
   10.1189   -5.0054   19.6987 C   0  0  0  0  0  0  0  0  0  0  0  0
  1  3  4  0
  1  7  4  0
  2 21  4  0
  2 27  4  0
  3  9  4  0
  3 10  4  0
  4  8  4  0
  4 18  4  0
  4 25  1  0
  5  9  4  0
  5 12  4  0
  6 13  1  0
  6 27  1  0
  7 28  4  0
  8 11  4  0
  9 29  4  0
 10 12  4  0
 11 24  1  0
 11 26  4  0
 12 25  1  0
 13 28  1  0
 14 20  4  0
 14 23  4  0
 15 17  4  0
 15 21  4  0
 16 19  4  0
 16 23  4  0
 17 22  4  0
 18 26  4  0
 19 24  4  0
 20 24  4  0
 22 27  4  0
 28 29  4  0
M  END
$$$$

 Created by Python create_sdf_string function

 29 33  0  0  0  0  0  0  0  0999 V2000
   10.7215   -3.3326   17.6437 C   0  0  0  0  0  0  0  0  0  0  0  0
    9.9489   -3.4675   24.6487 N   0  0  0  0  0  0  0  0  0  0  0  0
   10.0172   -4.4740   17.4101 C   0  0  0  0  0  0  0  0  0  0  0  0
    6.9051   -7.9575   16.4222 C   0  0  0  0  0  0  0  0  0  0  0  0
    8.9969   -6.3552   17.9668 N   0  0  0  0  0  0  0  0  0  0  0  0
   10.6702   -3.9051   22.4070 C   0  0  0  0  0  0  0  0  0  0  0  0
   11.0625   -3.0028   18.8894 C   0  0  0  0  0  0  0  0  0  0  0  0
    5.6180   -7.9194   16.1754 O   0  0  0  0  0  0  0  0  0  0  0  0
    9.7259   -5.3080   18.4485 C   0  0  0  0  0  0  0  0  0  0  0  0
    9.4578   -5.0200   16.3036 N   0  0  0  0  0  0  0  0  0  0  0  0
    5.0287   -8.9365   16.8223 C   0  0  0  0  0  0  0  0  0  0  0  0
    8.7742   -6.1498   16.6764 C   0  0  0  0  0  0  0  0  0  0  0  0
   10.9418   -3.4032   21.2053 O   0  0  0  0  0  0  0  0  0  0  0  0
    1.4797   -8.6258   16.2950 C   0  0  0  0  0  0  0  0  0  0  0  0
    9.2861   -1.2743   25.3585 C   0  0  0  0  0  0  0  0  0  0  0  0
    1.8892  -10.3985   17.7511 N   0  0  0  0  0  0  0  0  0  0  0  0
    9.6210   -0.6952   24.0976 C   0  0  0  0  0  0  0  0  0  0  0  0
    7.0792   -9.0217   17.1429 C   0  0  0  0  0  0  0  0  0  0  0  0
    3.1713  -10.1816   17.6634 C   0  0  0  0  0  0  0  0  0  0  0  0
    2.7878   -8.3822   16.2137 C   0  0  0  0  0  0  0  0  0  0  0  0
    9.4601   -2.6590   25.6528 C   0  0  0  0  0  0  0  0  0  0  0  0
   10.1182   -1.5672   23.1165 C   0  0  0  0  0  0  0  0  0  0  0  0
    1.0552   -9.6360   17.0650 C   0  0  0  0  0  0  0  0  0  0  0  0
    3.6519   -9.1783   16.9039 C   0  0  0  0  0  0  0  0  0  0  0  0
    7.8675   -7.0096   15.9415 C   0  0  0  0  0  0  0  0  0  0  0  0
    5.9733   -9.6553   17.3832 N   0  0  0  0  0  0  0  0  0  0  0  0
   10.2411   -2.9363   23.4301 C   0  0  0  0  0  0  0  0  0  0  0  0
   10.7288   -3.8197   19.9525 C   0  0  0  0  0  0  0  0  0  0  0  0
   10.1189   -5.0054   19.6987 C   0  0  0  0  0  0  0  0  0  0  0  0
  1  3  4  0
  1  7  4  0
  2 21  4  0
  2 27  4  0
  3  9  4  0
  3 10  4  0
  4  8  4  0
  4 18  4  0
  4 25  1  0
  5  9  4  0
  5 12  4  0
  6 13  1  0
  6 27  1  0
  7 28  4  0
  8 11  4  0
  9 29  4  0
 10 12  4  0
 11 24  1  0
 11 26  4  0
 12 25  1  0
 13 28  1  0
 14 20  4  0
 14 23  4  0
 15 17  4  0
 15 21  4  0
 16 19  4  0
 16 23  4  0
 17 22  4  0
 18 26  4  0
 19 24  4  0
 20 24  4  0
 22 27  4  0
 28 29  4  0
M  END
$$$$

 Created by Python create_sdf_string function

 29 33  0  0  0  0  0  0  0  0999 V2000
   10.7215   -3.3326   17.6437 C   0  0  0  0  0  0  0  0  0  0  0  0
    9.9489   -3.4675   24.6487 N   0  0  0  0  0  0  0  0  0  0  0  0
   10.0172   -4.4740   17.4101 C   0  0  0  0  0  0  0  0  0  0  0  0
    6.9051   -7.9575   16.4222 C   0  0  0  0  0  0  0  0  0  0  0  0
    8.9969   -6.3552   17.9668 N   0  0  0  0  0  0  0  0  0  0  0  0
   10.6702   -3.9051   22.4070 C   0  0  0  0  0  0  0  0  0  0  0  0
   11.0625   -3.0028   18.8894 C   0  0  0  0  0  0  0  0  0  0  0  0
    5.6180   -7.9194   16.1754 O   0  0  0  0  0  0  0  0  0  0  0  0
    9.7259   -5.3080   18.4485 C   0  0  0  0  0  0  0  0  0  0  0  0
    9.4578   -5.0200   16.3036 N   0  0  0  0  0  0  0  0  0  0  0  0
    5.0287   -8.9365   16.8223 C   0  0  0  0  0  0  0  0  0  0  0  0
    8.7742   -6.1498   16.6764 C   0  0  0  0  0  0  0  0  0  0  0  0
   10.9418   -3.4032   21.2053 O   0  0  0  0  0  0  0  0  0  0  0  0
    1.4797   -8.6258   16.2950 C   0  0  0  0  0  0  0  0  0  0  0  0
    9.2861   -1.2743   25.3585 C   0  0  0  0  0  0  0  0  0  0  0  0
    1.8892  -10.3985   17.7511 N   0  0  0  0  0  0  0  0  0  0  0  0
    9.6210   -0.6952   24.0976 C   0  0  0  0  0  0  0  0  0  0  0  0
    7.0792   -9.0217   17.1429 C   0  0  0  0  0  0  0  0  0  0  0  0
    3.1713  -10.1816   17.6634 C   0  0  0  0  0  0  0  0  0  0  0  0
    2.7878   -8.3822   16.2137 C   0  0  0  0  0  0  0  0  0  0  0  0
    9.4601   -2.6590   25.6528 C   0  0  0  0  0  0  0  0  0  0  0  0
   10.1182   -1.5672   23.1165 C   0  0  0  0  0  0  0  0  0  0  0  0
    1.0552   -9.6360   17.0650 C   0  0  0  0  0  0  0  0  0  0  0  0
    3.6519   -9.1783   16.9039 C   0  0  0  0  0  0  0  0  0  0  0  0
    7.8675   -7.0096   15.9415 C   0  0  0  0  0  0  0  0  0  0  0  0
    5.9733   -9.6553   17.3832 N   0  0  0  0  0  0  0  0  0  0  0  0
   10.2411   -2.9363   23.4301 C   0  0  0  0  0  0  0  0  0  0  0  0
   10.7288   -3.8197   19.9525 C   0  0  0  0  0  0  0  0  0  0  0  0
   10.1189   -5.0054   19.6987 C   0  0  0  0  0  0  0  0  0  0  0  0
  1  3  4  0
  1  7  4  0
  2 21  4  0
  2 27  4  0
  3  9  4  0
  3 10  4  0
  4  8  4  0
  4 18  4  0
  4 25  1  0
  5  9  4  0
  5 12  4  0
  6 13  1  0
  6 27  1  0
  7 28  4  0
  8 11  4  0
  9 29  4  0
 10 12  4  0
 11 24  1  0
 11 26  4  0
 12 25  1  0
 13 28  1  0
 14 20  4  0
 14 23  4  0
 15 17  4  0
 15 21  4  0
 16 19  4  0
 16 23  4  0
 17 22  4  0
 18 26  4  0
 19 24  4  0
 20 24  4  0
 22 27  4  0
 28 29  4  0
M  END
$$$$

 Created by Python create_sdf_string function

 29 33  0  0  0  0  0  0  0  0999 V2000
   10.7215   -3.3326   17.6437 C   0  0  0  0  0  0  0  0  0  0  0  0
    9.9489   -3.4675   24.6487 N   0  0  0  0  0  0  0  0  0  0  0  0
   10.0172   -4.4740   17.4101 C   0  0  0  0  0  0  0  0  0  0  0  0
    6.9051   -7.9575   16.4222 C   0  0  0  0  0  0  0  0  0  0  0  0
    8.9969   -6.3552   17.9668 N   0  0  0  0  0  0  0  0  0  0  0  0
   10.6702   -3.9051   22.4070 C   0  0  0  0  0  0  0  0  0  0  0  0
   11.0625   -3.0028   18.8894 C   0  0  0  0  0  0  0  0  0  0  0  0
    5.6180   -7.9194   16.1754 O   0  0  0  0  0  0  0  0  0  0  0  0
    9.7259   -5.3080   18.4485 C   0  0  0  0  0  0  0  0  0  0  0  0
    9.4578   -5.0200   16.3036 N   0  0  0  0  0  0  0  0  0  0  0  0
    5.0287   -8.9365   16.8223 C   0  0  0  0  0  0  0  0  0  0  0  0
    8.7742   -6.1498   16.6764 C   0  0  0  0  0  0  0  0  0  0  0  0
   10.9418   -3.4032   21.2053 O   0  0  0  0  0  0  0  0  0  0  0  0
    1.4797   -8.6258   16.2950 C   0  0  0  0  0  0  0  0  0  0  0  0
    9.2861   -1.2743   25.3585 C   0  0  0  0  0  0  0  0  0  0  0  0
    1.8892  -10.3985   17.7511 N   0  0  0  0  0  0  0  0  0  0  0  0
    9.6210   -0.6952   24.0976 C   0  0  0  0  0  0  0  0  0  0  0  0
    7.0792   -9.0217   17.1429 C   0  0  0  0  0  0  0  0  0  0  0  0
    3.1713  -10.1816   17.6634 C   0  0  0  0  0  0  0  0  0  0  0  0
    2.7878   -8.3822   16.2137 C   0  0  0  0  0  0  0  0  0  0  0  0
    9.4601   -2.6590   25.6528 C   0  0  0  0  0  0  0  0  0  0  0  0
   10.1182   -1.5672   23.1165 C   0  0  0  0  0  0  0  0  0  0  0  0
    1.0552   -9.6360   17.0650 C   0  0  0  0  0  0  0  0  0  0  0  0
    3.6519   -9.1783   16.9039 C   0  0  0  0  0  0  0  0  0  0  0  0
    7.8675   -7.0096   15.9415 C   0  0  0  0  0  0  0  0  0  0  0  0
    5.9733   -9.6553   17.3832 N   0  0  0  0  0  0  0  0  0  0  0  0
   10.2411   -2.9363   23.4301 C   0  0  0  0  0  0  0  0  0  0  0  0
   10.7288   -3.8197   19.9525 C   0  0  0  0  0  0  0  0  0  0  0  0
   10.1189   -5.0054   19.6987 C   0  0  0  0  0  0  0  0  0  0  0  0
  1  3  4  0
  1  7  4  0
  2 21  4  0
  2 27  4  0
  3  9  4  0
  3 10  4  0
  4  8  4  0
  4 18  4  0
  4 25  1  0
  5  9  4  0
  5 12  4  0
  6 13  1  0
  6 27  1  0
  7 28  4  0
  8 11  4  0
  9 29  4  0
 10 12  4  0
 11 24  1  0
 11 26  4  0
 12 25  1  0
 13 28  1  0
 14 20  4  0
 14 23  4  0
 15 17  4  0
 15 21  4  0
 16 19  4  0
 16 23  4  0
 17 22  4  0
 18 26  4  0
 19 24  4  0
 20 24  4  0
 22 27  4  0
 28 29  4  0
M  END
$$$$

 Created by Python create_sdf_string function

 29 33  0  0  0  0  0  0  0  0999 V2000
   10.7215   -3.3326   17.6437 C   0  0  0  0  0  0  0  0  0  0  0  0
    9.9489   -3.4675   24.6487 N   0  0  0  0  0  0  0  0  0  0  0  0
   10.0172   -4.4740   17.4101 C   0  0  0  0  0  0  0  0  0  0  0  0
    6.9051   -7.9575   16.4222 C   0  0  0  0  0  0  0  0  0  0  0  0
    8.9969   -6.3552   17.9668 N   0  0  0  0  0  0  0  0  0  0  0  0
   10.6702   -3.9051   22.4070 C   0  0  0  0  0  0  0  0  0  0  0  0
   11.0625   -3.0028   18.8894 C   0  0  0  0  0  0  0  0  0  0  0  0
    5.6180   -7.9194   16.1754 O   0  0  0  0  0  0  0  0  0  0  0  0
    9.7259   -5.3080   18.4485 C   0  0  0  0  0  0  0  0  0  0  0  0
    9.4578   -5.0200   16.3036 N   0  0  0  0  0  0  0  0  0  0  0  0
    5.0287   -8.9365   16.8223 C   0  0  0  0  0  0  0  0  0  0  0  0
    8.7742   -6.1498   16.6764 C   0  0  0  0  0  0  0  0  0  0  0  0
   10.9418   -3.4032   21.2053 O   0  0  0  0  0  0  0  0  0  0  0  0
    1.4797   -8.6258   16.2950 C   0  0  0  0  0  0  0  0  0  0  0  0
    9.2861   -1.2743   25.3585 C   0  0  0  0  0  0  0  0  0  0  0  0
    1.8892  -10.3985   17.7511 N   0  0  0  0  0  0  0  0  0  0  0  0
    9.6210   -0.6952   24.0976 C   0  0  0  0  0  0  0  0  0  0  0  0
    7.0792   -9.0217   17.1429 C   0  0  0  0  0  0  0  0  0  0  0  0
    3.1713  -10.1816   17.6634 C   0  0  0  0  0  0  0  0  0  0  0  0
    2.7878   -8.3822   16.2137 C   0  0  0  0  0  0  0  0  0  0  0  0
    9.4601   -2.6590   25.6528 C   0  0  0  0  0  0  0  0  0  0  0  0
   10.1182   -1.5672   23.1165 C   0  0  0  0  0  0  0  0  0  0  0  0
    1.0552   -9.6360   17.0650 C   0  0  0  0  0  0  0  0  0  0  0  0
    3.6519   -9.1783   16.9039 C   0  0  0  0  0  0  0  0  0  0  0  0
    7.8675   -7.0096   15.9415 C   0  0  0  0  0  0  0  0  0  0  0  0
    5.9733   -9.6553   17.3832 N   0  0  0  0  0  0  0  0  0  0  0  0
   10.2411   -2.9363   23.4301 C   0  0  0  0  0  0  0  0  0  0  0  0
   10.7288   -3.8197   19.9525 C   0  0  0  0  0  0  0  0  0  0  0  0
   10.1189   -5.0054   19.6987 C   0  0  0  0  0  0  0  0  0  0  0  0
  1  3  4  0
  1  7  4  0
  2 21  4  0
  2 27  4  0
  3  9  4  0
  3 10  4  0
  4  8  4  0
  4 18  4  0
  4 25  1  0
  5  9  4  0
  5 12  4  0
  6 13  1  0
  6 27  1  0
  7 28  4  0
  8 11  4  0
  9 29  4  0
 10 12  4  0
 11 24  1  0
 11 26  4  0
 12 25  1  0
 13 28  1  0
 14 20  4  0
 14 23  4  0
 15 17  4  0
 15 21  4  0
 16 19  4  0
 16 23  4  0
 17 22  4  0
 18 26  4  0
 19 24  4  0
 20 24  4  0
 22 27  4  0
 28 29  4  0
M  END
$$$$

 Created by Python create_sdf_string function

 29 33  0  0  0  0  0  0  0  0999 V2000
   10.7215   -3.3326   17.6437 C   0  0  0  0  0  0  0  0  0  0  0  0
    9.9489   -3.4675   24.6487 N   0  0  0  0  0  0  0  0  0  0  0  0
   10.0172   -4.4740   17.4101 C   0  0  0  0  0  0  0  0  0  0  0  0
    6.9051   -7.9575   16.4222 C   0  0  0  0  0  0  0  0  0  0  0  0
    8.9969   -6.3552   17.9668 N   0  0  0  0  0  0  0  0  0  0  0  0
   10.6702   -3.9051   22.4070 C   0  0  0  0  0  0  0  0  0  0  0  0
   11.0625   -3.0028   18.8894 C   0  0  0  0  0  0  0  0  0  0  0  0
    5.6180   -7.9194   16.1754 O   0  0  0  0  0  0  0  0  0  0  0  0
    9.7259   -5.3080   18.4485 C   0  0  0  0  0  0  0  0  0  0  0  0
    9.4578   -5.0200   16.3036 N   0  0  0  0  0  0  0  0  0  0  0  0
    5.0287   -8.9365   16.8223 C   0  0  0  0  0  0  0  0  0  0  0  0
    8.7742   -6.1498   16.6764 C   0  0  0  0  0  0  0  0  0  0  0  0
   10.9418   -3.4032   21.2053 O   0  0  0  0  0  0  0  0  0  0  0  0
    1.4797   -8.6258   16.2950 C   0  0  0  0  0  0  0  0  0  0  0  0
    9.2861   -1.2743   25.3585 C   0  0  0  0  0  0  0  0  0  0  0  0
    1.8892  -10.3985   17.7511 N   0  0  0  0  0  0  0  0  0  0  0  0
    9.6210   -0.6952   24.0976 C   0  0  0  0  0  0  0  0  0  0  0  0
    7.0792   -9.0217   17.1429 C   0  0  0  0  0  0  0  0  0  0  0  0
    3.1713  -10.1816   17.6634 C   0  0  0  0  0  0  0  0  0  0  0  0
    2.7878   -8.3822   16.2137 C   0  0  0  0  0  0  0  0  0  0  0  0
    9.4601   -2.6590   25.6528 C   0  0  0  0  0  0  0  0  0  0  0  0
   10.1182   -1.5672   23.1165 C   0  0  0  0  0  0  0  0  0  0  0  0
    1.0552   -9.6360   17.0650 C   0  0  0  0  0  0  0  0  0  0  0  0
    3.6519   -9.1783   16.9039 C   0  0  0  0  0  0  0  0  0  0  0  0
    7.8675   -7.0096   15.9415 C   0  0  0  0  0  0  0  0  0  0  0  0
    5.9733   -9.6553   17.3832 N   0  0  0  0  0  0  0  0  0  0  0  0
   10.2411   -2.9363   23.4301 C   0  0  0  0  0  0  0  0  0  0  0  0
   10.7288   -3.8197   19.9525 C   0  0  0  0  0  0  0  0  0  0  0  0
   10.1189   -5.0054   19.6987 C   0  0  0  0  0  0  0  0  0  0  0  0
  1  3  4  0
  1  7  4  0
  2 21  4  0
  2 27  4  0
  3  9  4  0
  3 10  4  0
  4  8  4  0
  4 18  4  0
  4 25  1  0
  5  9  4  0
  5 12  4  0
  6 13  1  0
  6 27  1  0
  7 28  4  0
  8 11  4  0
  9 29  4  0
 10 12  4  0
 11 24  1  0
 11 26  4  0
 12 25  1  0
 13 28  1  0
 14 20  4  0
 14 23  4  0
 15 17  4  0
 15 21  4  0
 16 19  4  0
 16 23  4  0
 17 22  4  0
 18 26  4  0
 19 24  4  0
 20 24  4  0
 22 27  4  0
 28 29  4  0
M  END
$$$$

 Created by Python create_sdf_string function

 29 33  0  0  0  0  0  0  0  0999 V2000
   10.7215   -3.3326   17.6437 C   0  0  0  0  0  0  0  0  0  0  0  0
    9.9489   -3.4675   24.6487 N   0  0  0  0  0  0  0  0  0  0  0  0
   10.0172   -4.4740   17.4101 C   0  0  0  0  0  0  0  0  0  0  0  0
    6.9051   -7.9575   16.4222 C   0  0  0  0  0  0  0  0  0  0  0  0
    8.9969   -6.3552   17.9668 N   0  0  0  0  0  0  0  0  0  0  0  0
   10.6702   -3.9051   22.4070 C   0  0  0  0  0  0  0  0  0  0  0  0
   11.0625   -3.0028   18.8894 C   0  0  0  0  0  0  0  0  0  0  0  0
    5.6180   -7.9194   16.1754 O   0  0  0  0  0  0  0  0  0  0  0  0
    9.7259   -5.3080   18.4485 C   0  0  0  0  0  0  0  0  0  0  0  0
    9.4578   -5.0200   16.3036 N   0  0  0  0  0  0  0  0  0  0  0  0
    5.0287   -8.9365   16.8223 C   0  0  0  0  0  0  0  0  0  0  0  0
    8.7742   -6.1498   16.6764 C   0  0  0  0  0  0  0  0  0  0  0  0
   10.9418   -3.4032   21.2053 O   0  0  0  0  0  0  0  0  0  0  0  0
    1.4797   -8.6258   16.2950 C   0  0  0  0  0  0  0  0  0  0  0  0
    9.2861   -1.2743   25.3585 C   0  0  0  0  0  0  0  0  0  0  0  0
    1.8892  -10.3985   17.7511 N   0  0  0  0  0  0  0  0  0  0  0  0
    9.6210   -0.6952   24.0976 C   0  0  0  0  0  0  0  0  0  0  0  0
    7.0792   -9.0217   17.1429 C   0  0  0  0  0  0  0  0  0  0  0  0
    3.1713  -10.1816   17.6634 C   0  0  0  0  0  0  0  0  0  0  0  0
    2.7878   -8.3822   16.2137 C   0  0  0  0  0  0  0  0  0  0  0  0
    9.4601   -2.6590   25.6528 C   0  0  0  0  0  0  0  0  0  0  0  0
   10.1182   -1.5672   23.1165 C   0  0  0  0  0  0  0  0  0  0  0  0
    1.0552   -9.6360   17.0650 C   0  0  0  0  0  0  0  0  0  0  0  0
    3.6519   -9.1783   16.9039 C   0  0  0  0  0  0  0  0  0  0  0  0
    7.8675   -7.0096   15.9415 C   0  0  0  0  0  0  0  0  0  0  0  0
    5.9733   -9.6553   17.3832 N   0  0  0  0  0  0  0  0  0  0  0  0
   10.2411   -2.9363   23.4301 C   0  0  0  0  0  0  0  0  0  0  0  0
   10.7288   -3.8197   19.9525 C   0  0  0  0  0  0  0  0  0  0  0  0
   10.1189   -5.0054   19.6987 C   0  0  0  0  0  0  0  0  0  0  0  0
  1  3  4  0
  1  7  4  0
  2 21  4  0
  2 27  4  0
  3  9  4  0
  3 10  4  0
  4  8  4  0
  4 18  4  0
  4 25  1  0
  5  9  4  0
  5 12  4  0
  6 13  1  0
  6 27  1  0
  7 28  4  0
  8 11  4  0
  9 29  4  0
 10 12  4  0
 11 24  1  0
 11 26  4  0
 12 25  1  0
 13 28  1  0
 14 20  4  0
 14 23  4  0
 15 17  4  0
 15 21  4  0
 16 19  4  0
 16 23  4  0
 17 22  4  0
 18 26  4  0
 19 24  4  0
 20 24  4  0
 22 27  4  0
 28 29  4  0
M  END
$$$$

 Created by Python create_sdf_string function

 29 33  0  0  0  0  0  0  0  0999 V2000
   10.7215   -3.3326   17.6437 C   0  0  0  0  0  0  0  0  0  0  0  0
    9.9489   -3.4675   24.6487 N   0  0  0  0  0  0  0  0  0  0  0  0
   10.0172   -4.4740   17.4101 C   0  0  0  0  0  0  0  0  0  0  0  0
    6.9051   -7.9575   16.4222 C   0  0  0  0  0  0  0  0  0  0  0  0
    8.9969   -6.3552   17.9668 N   0  0  0  0  0  0  0  0  0  0  0  0
   10.6702   -3.9051   22.4070 C   0  0  0  0  0  0  0  0  0  0  0  0
   11.0625   -3.0028   18.8894 C   0  0  0  0  0  0  0  0  0  0  0  0
    5.6180   -7.9194   16.1754 O   0  0  0  0  0  0  0  0  0  0  0  0
    9.7259   -5.3080   18.4485 C   0  0  0  0  0  0  0  0  0  0  0  0
    9.4578   -5.0200   16.3036 N   0  0  0  0  0  0  0  0  0  0  0  0
    5.0287   -8.9365   16.8223 C   0  0  0  0  0  0  0  0  0  0  0  0
    8.7742   -6.1498   16.6764 C   0  0  0  0  0  0  0  0  0  0  0  0
   10.9418   -3.4032   21.2053 O   0  0  0  0  0  0  0  0  0  0  0  0
    1.4797   -8.6258   16.2950 C   0  0  0  0  0  0  0  0  0  0  0  0
    9.2861   -1.2743   25.3585 C   0  0  0  0  0  0  0  0  0  0  0  0
    1.8892  -10.3985   17.7511 N   0  0  0  0  0  0  0  0  0  0  0  0
    9.6210   -0.6952   24.0976 C   0  0  0  0  0  0  0  0  0  0  0  0
    7.0792   -9.0217   17.1429 C   0  0  0  0  0  0  0  0  0  0  0  0
    3.1713  -10.1816   17.6634 C   0  0  0  0  0  0  0  0  0  0  0  0
    2.7878   -8.3822   16.2137 C   0  0  0  0  0  0  0  0  0  0  0  0
    9.4601   -2.6590   25.6528 C   0  0  0  0  0  0  0  0  0  0  0  0
   10.1182   -1.5672   23.1165 C   0  0  0  0  0  0  0  0  0  0  0  0
    1.0552   -9.6360   17.0650 C   0  0  0  0  0  0  0  0  0  0  0  0
    3.6519   -9.1783   16.9039 C   0  0  0  0  0  0  0  0  0  0  0  0
    7.8675   -7.0096   15.9415 C   0  0  0  0  0  0  0  0  0  0  0  0
    5.9733   -9.6553   17.3832 N   0  0  0  0  0  0  0  0  0  0  0  0
   10.2411   -2.9363   23.4301 C   0  0  0  0  0  0  0  0  0  0  0  0
   10.7288   -3.8197   19.9525 C   0  0  0  0  0  0  0  0  0  0  0  0
   10.1189   -5.0054   19.6987 C   0  0  0  0  0  0  0  0  0  0  0  0
  1  3  4  0
  1  7  4  0
  2 21  4  0
  2 27  4  0
  3  9  4  0
  3 10  4  0
  4  8  4  0
  4 18  4  0
  4 25  1  0
  5  9  4  0
  5 12  4  0
  6 13  1  0
  6 27  1  0
  7 28  4  0
  8 11  4  0
  9 29  4  0
 10 12  4  0
 11 24  1  0
 11 26  4  0
 12 25  1  0
 13 28  1  0
 14 20  4  0
 14 23  4  0
 15 17  4  0
 15 21  4  0
 16 19  4  0
 16 23  4  0
 17 22  4  0
 18 26  4  0
 19 24  4  0
 20 24  4  0
 22 27  4  0
 28 29  4  0
M  END
$$$$

 Created by Python create_sdf_string function

 29 33  0  0  0  0  0  0  0  0999 V2000
   10.7215   -3.3326   17.6437 C   0  0  0  0  0  0  0  0  0  0  0  0
    9.9489   -3.4675   24.6487 N   0  0  0  0  0  0  0  0  0  0  0  0
   10.0172   -4.4740   17.4101 C   0  0  0  0  0  0  0  0  0  0  0  0
    6.9051   -7.9575   16.4222 C   0  0  0  0  0  0  0  0  0  0  0  0
    8.9969   -6.3552   17.9668 N   0  0  0  0  0  0  0  0  0  0  0  0
   10.6702   -3.9051   22.4070 C   0  0  0  0  0  0  0  0  0  0  0  0
   11.0625   -3.0028   18.8894 C   0  0  0  0  0  0  0  0  0  0  0  0
    5.6180   -7.9194   16.1754 O   0  0  0  0  0  0  0  0  0  0  0  0
    9.7259   -5.3080   18.4485 C   0  0  0  0  0  0  0  0  0  0  0  0
    9.4578   -5.0200   16.3036 N   0  0  0  0  0  0  0  0  0  0  0  0
    5.0287   -8.9365   16.8223 C   0  0  0  0  0  0  0  0  0  0  0  0
    8.7742   -6.1498   16.6764 C   0  0  0  0  0  0  0  0  0  0  0  0
   10.9418   -3.4032   21.2053 O   0  0  0  0  0  0  0  0  0  0  0  0
    1.4797   -8.6258   16.2950 C   0  0  0  0  0  0  0  0  0  0  0  0
    9.2861   -1.2743   25.3585 C   0  0  0  0  0  0  0  0  0  0  0  0
    1.8892  -10.3985   17.7511 N   0  0  0  0  0  0  0  0  0  0  0  0
    9.6210   -0.6952   24.0976 C   0  0  0  0  0  0  0  0  0  0  0  0
    7.0792   -9.0217   17.1429 C   0  0  0  0  0  0  0  0  0  0  0  0
    3.1713  -10.1816   17.6634 C   0  0  0  0  0  0  0  0  0  0  0  0
    2.7878   -8.3822   16.2137 C   0  0  0  0  0  0  0  0  0  0  0  0
    9.4601   -2.6590   25.6528 C   0  0  0  0  0  0  0  0  0  0  0  0
   10.1182   -1.5672   23.1165 C   0  0  0  0  0  0  0  0  0  0  0  0
    1.0552   -9.6360   17.0650 C   0  0  0  0  0  0  0  0  0  0  0  0
    3.6519   -9.1783   16.9039 C   0  0  0  0  0  0  0  0  0  0  0  0
    7.8675   -7.0096   15.9415 C   0  0  0  0  0  0  0  0  0  0  0  0
    5.9733   -9.6553   17.3832 N   0  0  0  0  0  0  0  0  0  0  0  0
   10.2411   -2.9363   23.4301 C   0  0  0  0  0  0  0  0  0  0  0  0
   10.7288   -3.8197   19.9525 C   0  0  0  0  0  0  0  0  0  0  0  0
   10.1189   -5.0054   19.6987 C   0  0  0  0  0  0  0  0  0  0  0  0
  1  3  4  0
  1  7  4  0
  2 21  4  0
  2 27  4  0
  3  9  4  0
  3 10  4  0
  4  8  4  0
  4 18  4  0
  4 25  1  0
  5  9  4  0
  5 12  4  0
  6 13  1  0
  6 27  1  0
  7 28  4  0
  8 11  4  0
  9 29  4  0
 10 12  4  0
 11 24  1  0
 11 26  4  0
 12 25  1  0
 13 28  1  0
 14 20  4  0
 14 23  4  0
 15 17  4  0
 15 21  4  0
 16 19  4  0
 16 23  4  0
 17 22  4  0
 18 26  4  0
 19 24  4  0
 20 24  4  0
 22 27  4  0
 28 29  4  0
M  END
$$$$

 Created by Python create_sdf_string function

 29 33  0  0  0  0  0  0  0  0999 V2000
   10.7215   -3.3326   17.6437 C   0  0  0  0  0  0  0  0  0  0  0  0
    9.9489   -3.4675   24.6487 N   0  0  0  0  0  0  0  0  0  0  0  0
   10.0172   -4.4740   17.4101 C   0  0  0  0  0  0  0  0  0  0  0  0
    6.9051   -7.9575   16.4222 C   0  0  0  0  0  0  0  0  0  0  0  0
    8.9969   -6.3552   17.9668 N   0  0  0  0  0  0  0  0  0  0  0  0
   10.6702   -3.9051   22.4070 C   0  0  0  0  0  0  0  0  0  0  0  0
   11.0625   -3.0028   18.8894 C   0  0  0  0  0  0  0  0  0  0  0  0
    5.6180   -7.9194   16.1754 O   0  0  0  0  0  0  0  0  0  0  0  0
    9.7259   -5.3080   18.4485 C   0  0  0  0  0  0  0  0  0  0  0  0
    9.4578   -5.0200   16.3036 N   0  0  0  0  0  0  0  0  0  0  0  0
    5.0287   -8.9365   16.8223 C   0  0  0  0  0  0  0  0  0  0  0  0
    8.7742   -6.1498   16.6764 C   0  0  0  0  0  0  0  0  0  0  0  0
   10.9418   -3.4032   21.2053 O   0  0  0  0  0  0  0  0  0  0  0  0
    1.4797   -8.6258   16.2950 C   0  0  0  0  0  0  0  0  0  0  0  0
    9.2861   -1.2743   25.3585 C   0  0  0  0  0  0  0  0  0  0  0  0
    1.8892  -10.3985   17.7511 N   0  0  0  0  0  0  0  0  0  0  0  0
    9.6210   -0.6952   24.0976 C   0  0  0  0  0  0  0  0  0  0  0  0
    7.0792   -9.0217   17.1429 C   0  0  0  0  0  0  0  0  0  0  0  0
    3.1713  -10.1816   17.6634 C   0  0  0  0  0  0  0  0  0  0  0  0
    2.7878   -8.3822   16.2137 C   0  0  0  0  0  0  0  0  0  0  0  0
    9.4601   -2.6590   25.6528 C   0  0  0  0  0  0  0  0  0  0  0  0
   10.1182   -1.5672   23.1165 C   0  0  0  0  0  0  0  0  0  0  0  0
    1.0552   -9.6360   17.0650 C   0  0  0  0  0  0  0  0  0  0  0  0
    3.6519   -9.1783   16.9039 C   0  0  0  0  0  0  0  0  0  0  0  0
    7.8675   -7.0096   15.9415 C   0  0  0  0  0  0  0  0  0  0  0  0
    5.9733   -9.6553   17.3832 N   0  0  0  0  0  0  0  0  0  0  0  0
   10.2411   -2.9363   23.4301 C   0  0  0  0  0  0  0  0  0  0  0  0
   10.7288   -3.8197   19.9525 C   0  0  0  0  0  0  0  0  0  0  0  0
   10.1189   -5.0054   19.6987 C   0  0  0  0  0  0  0  0  0  0  0  0
  1  3  4  0
  1  7  4  0
  2 21  4  0
  2 27  4  0
  3  9  4  0
  3 10  4  0
  4  8  4  0
  4 18  4  0
  4 25  1  0
  5  9  4  0
  5 12  4  0
  6 13  1  0
  6 27  1  0
  7 28  4  0
  8 11  4  0
  9 29  4  0
 10 12  4  0
 11 24  1  0
 11 26  4  0
 12 25  1  0
 13 28  1  0
 14 20  4  0
 14 23  4  0
 15 17  4  0
 15 21  4  0
 16 19  4  0
 16 23  4  0
 17 22  4  0
 18 26  4  0
 19 24  4  0
 20 24  4  0
 22 27  4  0
 28 29  4  0
M  END
$$$$

 Created by Python create_sdf_string function

 29 33  0  0  0  0  0  0  0  0999 V2000
   10.7215   -3.3326   17.6437 C   0  0  0  0  0  0  0  0  0  0  0  0
    9.9489   -3.4675   24.6487 N   0  0  0  0  0  0  0  0  0  0  0  0
   10.0172   -4.4740   17.4101 C   0  0  0  0  0  0  0  0  0  0  0  0
    6.9051   -7.9575   16.4222 C   0  0  0  0  0  0  0  0  0  0  0  0
    8.9969   -6.3552   17.9668 N   0  0  0  0  0  0  0  0  0  0  0  0
   10.6702   -3.9051   22.4070 C   0  0  0  0  0  0  0  0  0  0  0  0
   11.0625   -3.0028   18.8894 C   0  0  0  0  0  0  0  0  0  0  0  0
    5.6180   -7.9194   16.1754 O   0  0  0  0  0  0  0  0  0  0  0  0
    9.7259   -5.3080   18.4485 C   0  0  0  0  0  0  0  0  0  0  0  0
    9.4578   -5.0200   16.3036 N   0  0  0  0  0  0  0  0  0  0  0  0
    5.0287   -8.9365   16.8223 C   0  0  0  0  0  0  0  0  0  0  0  0
    8.7742   -6.1498   16.6764 C   0  0  0  0  0  0  0  0  0  0  0  0
   10.9418   -3.4032   21.2053 O   0  0  0  0  0  0  0  0  0  0  0  0
    1.4797   -8.6258   16.2950 C   0  0  0  0  0  0  0  0  0  0  0  0
    9.2861   -1.2743   25.3585 C   0  0  0  0  0  0  0  0  0  0  0  0
    1.8892  -10.3985   17.7511 N   0  0  0  0  0  0  0  0  0  0  0  0
    9.6210   -0.6952   24.0976 C   0  0  0  0  0  0  0  0  0  0  0  0
    7.0792   -9.0217   17.1429 C   0  0  0  0  0  0  0  0  0  0  0  0
    3.1713  -10.1816   17.6634 C   0  0  0  0  0  0  0  0  0  0  0  0
    2.7878   -8.3822   16.2137 C   0  0  0  0  0  0  0  0  0  0  0  0
    9.4601   -2.6590   25.6528 C   0  0  0  0  0  0  0  0  0  0  0  0
   10.1182   -1.5672   23.1165 C   0  0  0  0  0  0  0  0  0  0  0  0
    1.0552   -9.6360   17.0650 C   0  0  0  0  0  0  0  0  0  0  0  0
    3.6519   -9.1783   16.9039 C   0  0  0  0  0  0  0  0  0  0  0  0
    7.8675   -7.0096   15.9415 C   0  0  0  0  0  0  0  0  0  0  0  0
    5.9733   -9.6553   17.3832 N   0  0  0  0  0  0  0  0  0  0  0  0
   10.2411   -2.9363   23.4301 C   0  0  0  0  0  0  0  0  0  0  0  0
   10.7288   -3.8197   19.9525 C   0  0  0  0  0  0  0  0  0  0  0  0
   10.1189   -5.0054   19.6987 C   0  0  0  0  0  0  0  0  0  0  0  0
  1  3  4  0
  1  7  4  0
  2 21  4  0
  2 27  4  0
  3  9  4  0
  3 10  4  0
  4  8  4  0
  4 18  4  0
  4 25  1  0
  5  9  4  0
  5 12  4  0
  6 13  1  0
  6 27  1  0
  7 28  4  0
  8 11  4  0
  9 29  4  0
 10 12  4  0
 11 24  1  0
 11 26  4  0
 12 25  1  0
 13 28  1  0
 14 20  4  0
 14 23  4  0
 15 17  4  0
 15 21  4  0
 16 19  4  0
 16 23  4  0
 17 22  4  0
 18 26  4  0
 19 24  4  0
 20 24  4  0
 22 27  4  0
 28 29  4  0
M  END
$$$$

 Created by Python create_sdf_string function

 29 33  0  0  0  0  0  0  0  0999 V2000
   10.7215   -3.3326   17.6437 C   0  0  0  0  0  0  0  0  0  0  0  0
    9.9489   -3.4675   24.6487 N   0  0  0  0  0  0  0  0  0  0  0  0
   10.0172   -4.4740   17.4101 C   0  0  0  0  0  0  0  0  0  0  0  0
    6.9051   -7.9575   16.4222 C   0  0  0  0  0  0  0  0  0  0  0  0
    8.9969   -6.3552   17.9668 N   0  0  0  0  0  0  0  0  0  0  0  0
   10.6702   -3.9051   22.4070 C   0  0  0  0  0  0  0  0  0  0  0  0
   11.0625   -3.0028   18.8894 C   0  0  0  0  0  0  0  0  0  0  0  0
    5.6180   -7.9194   16.1754 O   0  0  0  0  0  0  0  0  0  0  0  0
    9.7259   -5.3080   18.4485 C   0  0  0  0  0  0  0  0  0  0  0  0
    9.4578   -5.0200   16.3036 N   0  0  0  0  0  0  0  0  0  0  0  0
    5.0287   -8.9365   16.8223 C   0  0  0  0  0  0  0  0  0  0  0  0
    8.7742   -6.1498   16.6764 C   0  0  0  0  0  0  0  0  0  0  0  0
   10.9418   -3.4032   21.2053 O   0  0  0  0  0  0  0  0  0  0  0  0
    1.4797   -8.6258   16.2950 C   0  0  0  0  0  0  0  0  0  0  0  0
    9.2861   -1.2743   25.3585 C   0  0  0  0  0  0  0  0  0  0  0  0
    1.8892  -10.3985   17.7511 N   0  0  0  0  0  0  0  0  0  0  0  0
    9.6210   -0.6952   24.0976 C   0  0  0  0  0  0  0  0  0  0  0  0
    7.0792   -9.0217   17.1429 C   0  0  0  0  0  0  0  0  0  0  0  0
    3.1713  -10.1816   17.6634 C   0  0  0  0  0  0  0  0  0  0  0  0
    2.7878   -8.3822   16.2137 C   0  0  0  0  0  0  0  0  0  0  0  0
    9.4601   -2.6590   25.6528 C   0  0  0  0  0  0  0  0  0  0  0  0
   10.1182   -1.5672   23.1165 C   0  0  0  0  0  0  0  0  0  0  0  0
    1.0552   -9.6360   17.0650 C   0  0  0  0  0  0  0  0  0  0  0  0
    3.6519   -9.1783   16.9039 C   0  0  0  0  0  0  0  0  0  0  0  0
    7.8675   -7.0096   15.9415 C   0  0  0  0  0  0  0  0  0  0  0  0
    5.9733   -9.6553   17.3832 N   0  0  0  0  0  0  0  0  0  0  0  0
   10.2411   -2.9363   23.4301 C   0  0  0  0  0  0  0  0  0  0  0  0
   10.7288   -3.8197   19.9525 C   0  0  0  0  0  0  0  0  0  0  0  0
   10.1189   -5.0054   19.6987 C   0  0  0  0  0  0  0  0  0  0  0  0
  1  3  4  0
  1  7  4  0
  2 21  4  0
  2 27  4  0
  3  9  4  0
  3 10  4  0
  4  8  4  0
  4 18  4  0
  4 25  1  0
  5  9  4  0
  5 12  4  0
  6 13  1  0
  6 27  1  0
  7 28  4  0
  8 11  4  0
  9 29  4  0
 10 12  4  0
 11 24  1  0
 11 26  4  0
 12 25  1  0
 13 28  1  0
 14 20  4  0
 14 23  4  0
 15 17  4  0
 15 21  4  0
 16 19  4  0
 16 23  4  0
 17 22  4  0
 18 26  4  0
 19 24  4  0
 20 24  4  0
 22 27  4  0
 28 29  4  0
M  END
$$$$

 Created by Python create_sdf_string function

 29 33  0  0  0  0  0  0  0  0999 V2000
   10.7215   -3.3326   17.6437 C   0  0  0  0  0  0  0  0  0  0  0  0
    9.9489   -3.4675   24.6487 N   0  0  0  0  0  0  0  0  0  0  0  0
   10.0172   -4.4740   17.4101 C   0  0  0  0  0  0  0  0  0  0  0  0
    6.9051   -7.9575   16.4222 C   0  0  0  0  0  0  0  0  0  0  0  0
    8.9969   -6.3552   17.9668 N   0  0  0  0  0  0  0  0  0  0  0  0
   10.6702   -3.9051   22.4070 C   0  0  0  0  0  0  0  0  0  0  0  0
   11.0625   -3.0028   18.8894 C   0  0  0  0  0  0  0  0  0  0  0  0
    5.6180   -7.9194   16.1754 O   0  0  0  0  0  0  0  0  0  0  0  0
    9.7259   -5.3080   18.4485 C   0  0  0  0  0  0  0  0  0  0  0  0
    9.4578   -5.0200   16.3036 N   0  0  0  0  0  0  0  0  0  0  0  0
    5.0287   -8.9365   16.8223 C   0  0  0  0  0  0  0  0  0  0  0  0
    8.7742   -6.1498   16.6764 C   0  0  0  0  0  0  0  0  0  0  0  0
   10.9418   -3.4032   21.2053 O   0  0  0  0  0  0  0  0  0  0  0  0
    1.4797   -8.6258   16.2950 C   0  0  0  0  0  0  0  0  0  0  0  0
    9.2861   -1.2743   25.3585 C   0  0  0  0  0  0  0  0  0  0  0  0
    1.8892  -10.3985   17.7511 N   0  0  0  0  0  0  0  0  0  0  0  0
    9.6210   -0.6952   24.0976 C   0  0  0  0  0  0  0  0  0  0  0  0
    7.0792   -9.0217   17.1429 C   0  0  0  0  0  0  0  0  0  0  0  0
    3.1713  -10.1816   17.6634 C   0  0  0  0  0  0  0  0  0  0  0  0
    2.7878   -8.3822   16.2137 C   0  0  0  0  0  0  0  0  0  0  0  0
    9.4601   -2.6590   25.6528 C   0  0  0  0  0  0  0  0  0  0  0  0
   10.1182   -1.5672   23.1165 C   0  0  0  0  0  0  0  0  0  0  0  0
    1.0552   -9.6360   17.0650 C   0  0  0  0  0  0  0  0  0  0  0  0
    3.6519   -9.1783   16.9039 C   0  0  0  0  0  0  0  0  0  0  0  0
    7.8675   -7.0096   15.9415 C   0  0  0  0  0  0  0  0  0  0  0  0
    5.9733   -9.6553   17.3832 N   0  0  0  0  0  0  0  0  0  0  0  0
   10.2411   -2.9363   23.4301 C   0  0  0  0  0  0  0  0  0  0  0  0
   10.7288   -3.8197   19.9525 C   0  0  0  0  0  0  0  0  0  0  0  0
   10.1189   -5.0054   19.6987 C   0  0  0  0  0  0  0  0  0  0  0  0
  1  3  4  0
  1  7  4  0
  2 21  4  0
  2 27  4  0
  3  9  4  0
  3 10  4  0
  4  8  4  0
  4 18  4  0
  4 25  1  0
  5  9  4  0
  5 12  4  0
  6 13  1  0
  6 27  1  0
  7 28  4  0
  8 11  4  0
  9 29  4  0
 10 12  4  0
 11 24  1  0
 11 26  4  0
 12 25  1  0
 13 28  1  0
 14 20  4  0
 14 23  4  0
 15 17  4  0
 15 21  4  0
 16 19  4  0
 16 23  4  0
 17 22  4  0
 18 26  4  0
 19 24  4  0
 20 24  4  0
 22 27  4  0
 28 29  4  0
M  END
$$$$

 Created by Python create_sdf_string function

 29 33  0  0  0  0  0  0  0  0999 V2000
   10.7215   -3.3326   17.6437 C   0  0  0  0  0  0  0  0  0  0  0  0
    9.9489   -3.4675   24.6487 N   0  0  0  0  0  0  0  0  0  0  0  0
   10.0172   -4.4740   17.4101 C   0  0  0  0  0  0  0  0  0  0  0  0
    6.9051   -7.9575   16.4222 C   0  0  0  0  0  0  0  0  0  0  0  0
    8.9969   -6.3552   17.9668 N   0  0  0  0  0  0  0  0  0  0  0  0
   10.6702   -3.9051   22.4070 C   0  0  0  0  0  0  0  0  0  0  0  0
   11.0625   -3.0028   18.8894 C   0  0  0  0  0  0  0  0  0  0  0  0
    5.6180   -7.9194   16.1754 O   0  0  0  0  0  0  0  0  0  0  0  0
    9.7259   -5.3080   18.4485 C   0  0  0  0  0  0  0  0  0  0  0  0
    9.4578   -5.0200   16.3036 N   0  0  0  0  0  0  0  0  0  0  0  0
    5.0287   -8.9365   16.8223 C   0  0  0  0  0  0  0  0  0  0  0  0
    8.7742   -6.1498   16.6764 C   0  0  0  0  0  0  0  0  0  0  0  0
   10.9418   -3.4032   21.2053 O   0  0  0  0  0  0  0  0  0  0  0  0
    1.4797   -8.6258   16.2950 C   0  0  0  0  0  0  0  0  0  0  0  0
    9.2861   -1.2743   25.3585 C   0  0  0  0  0  0  0  0  0  0  0  0
    1.8892  -10.3985   17.7511 N   0  0  0  0  0  0  0  0  0  0  0  0
    9.6210   -0.6952   24.0976 C   0  0  0  0  0  0  0  0  0  0  0  0
    7.0792   -9.0217   17.1429 C   0  0  0  0  0  0  0  0  0  0  0  0
    3.1713  -10.1816   17.6634 C   0  0  0  0  0  0  0  0  0  0  0  0
    2.7878   -8.3822   16.2137 C   0  0  0  0  0  0  0  0  0  0  0  0
    9.4601   -2.6590   25.6528 C   0  0  0  0  0  0  0  0  0  0  0  0
   10.1182   -1.5672   23.1165 C   0  0  0  0  0  0  0  0  0  0  0  0
    1.0552   -9.6360   17.0650 C   0  0  0  0  0  0  0  0  0  0  0  0
    3.6519   -9.1783   16.9039 C   0  0  0  0  0  0  0  0  0  0  0  0
    7.8675   -7.0096   15.9415 C   0  0  0  0  0  0  0  0  0  0  0  0
    5.9733   -9.6553   17.3832 N   0  0  0  0  0  0  0  0  0  0  0  0
   10.2411   -2.9363   23.4301 C   0  0  0  0  0  0  0  0  0  0  0  0
   10.7288   -3.8197   19.9525 C   0  0  0  0  0  0  0  0  0  0  0  0
   10.1189   -5.0054   19.6987 C   0  0  0  0  0  0  0  0  0  0  0  0
  1  3  4  0
  1  7  4  0
  2 21  4  0
  2 27  4  0
  3  9  4  0
  3 10  4  0
  4  8  4  0
  4 18  4  0
  4 25  1  0
  5  9  4  0
  5 12  4  0
  6 13  1  0
  6 27  1  0
  7 28  4  0
  8 11  4  0
  9 29  4  0
 10 12  4  0
 11 24  1  0
 11 26  4  0
 12 25  1  0
 13 28  1  0
 14 20  4  0
 14 23  4  0
 15 17  4  0
 15 21  4  0
 16 19  4  0
 16 23  4  0
 17 22  4  0
 18 26  4  0
 19 24  4  0
 20 24  4  0
 22 27  4  0
 28 29  4  0
M  END
$$$$

 Created by Python create_sdf_string function

 29 33  0  0  0  0  0  0  0  0999 V2000
   10.7215   -3.3326   17.6437 C   0  0  0  0  0  0  0  0  0  0  0  0
    9.9489   -3.4675   24.6487 N   0  0  0  0  0  0  0  0  0  0  0  0
   10.0172   -4.4740   17.4101 C   0  0  0  0  0  0  0  0  0  0  0  0
    6.9051   -7.9575   16.4222 C   0  0  0  0  0  0  0  0  0  0  0  0
    8.9969   -6.3552   17.9668 N   0  0  0  0  0  0  0  0  0  0  0  0
   10.6702   -3.9051   22.4070 C   0  0  0  0  0  0  0  0  0  0  0  0
   11.0625   -3.0028   18.8894 C   0  0  0  0  0  0  0  0  0  0  0  0
    5.6180   -7.9194   16.1754 O   0  0  0  0  0  0  0  0  0  0  0  0
    9.7259   -5.3080   18.4485 C   0  0  0  0  0  0  0  0  0  0  0  0
    9.4578   -5.0200   16.3036 N   0  0  0  0  0  0  0  0  0  0  0  0
    5.0287   -8.9365   16.8223 C   0  0  0  0  0  0  0  0  0  0  0  0
    8.7742   -6.1498   16.6764 C   0  0  0  0  0  0  0  0  0  0  0  0
   10.9418   -3.4032   21.2053 O   0  0  0  0  0  0  0  0  0  0  0  0
    1.4797   -8.6258   16.2950 C   0  0  0  0  0  0  0  0  0  0  0  0
    9.2861   -1.2743   25.3585 C   0  0  0  0  0  0  0  0  0  0  0  0
    1.8892  -10.3985   17.7511 N   0  0  0  0  0  0  0  0  0  0  0  0
    9.6210   -0.6952   24.0976 C   0  0  0  0  0  0  0  0  0  0  0  0
    7.0792   -9.0217   17.1429 C   0  0  0  0  0  0  0  0  0  0  0  0
    3.1713  -10.1816   17.6634 C   0  0  0  0  0  0  0  0  0  0  0  0
    2.7878   -8.3822   16.2137 C   0  0  0  0  0  0  0  0  0  0  0  0
    9.4601   -2.6590   25.6528 C   0  0  0  0  0  0  0  0  0  0  0  0
   10.1182   -1.5672   23.1165 C   0  0  0  0  0  0  0  0  0  0  0  0
    1.0552   -9.6360   17.0650 C   0  0  0  0  0  0  0  0  0  0  0  0
    3.6519   -9.1783   16.9039 C   0  0  0  0  0  0  0  0  0  0  0  0
    7.8675   -7.0096   15.9415 C   0  0  0  0  0  0  0  0  0  0  0  0
    5.9733   -9.6553   17.3832 N   0  0  0  0  0  0  0  0  0  0  0  0
   10.2411   -2.9363   23.4301 C   0  0  0  0  0  0  0  0  0  0  0  0
   10.7288   -3.8197   19.9525 C   0  0  0  0  0  0  0  0  0  0  0  0
   10.1189   -5.0054   19.6987 C   0  0  0  0  0  0  0  0  0  0  0  0
  1  3  4  0
  1  7  4  0
  2 21  4  0
  2 27  4  0
  3  9  4  0
  3 10  4  0
  4  8  4  0
  4 18  4  0
  4 25  1  0
  5  9  4  0
  5 12  4  0
  6 13  1  0
  6 27  1  0
  7 28  4  0
  8 11  4  0
  9 29  4  0
 10 12  4  0
 11 24  1  0
 11 26  4  0
 12 25  1  0
 13 28  1  0
 14 20  4  0
 14 23  4  0
 15 17  4  0
 15 21  4  0
 16 19  4  0
 16 23  4  0
 17 22  4  0
 18 26  4  0
 19 24  4  0
 20 24  4  0
 22 27  4  0
 28 29  4  0
M  END
$$$$

 Created by Python create_sdf_string function

 29 33  0  0  0  0  0  0  0  0999 V2000
   10.7215   -3.3326   17.6437 C   0  0  0  0  0  0  0  0  0  0  0  0
    9.9489   -3.4675   24.6487 N   0  0  0  0  0  0  0  0  0  0  0  0
   10.0172   -4.4740   17.4101 C   0  0  0  0  0  0  0  0  0  0  0  0
    6.9051   -7.9575   16.4222 C   0  0  0  0  0  0  0  0  0  0  0  0
    8.9969   -6.3552   17.9668 N   0  0  0  0  0  0  0  0  0  0  0  0
   10.6702   -3.9051   22.4070 C   0  0  0  0  0  0  0  0  0  0  0  0
   11.0625   -3.0028   18.8894 C   0  0  0  0  0  0  0  0  0  0  0  0
    5.6180   -7.9194   16.1754 O   0  0  0  0  0  0  0  0  0  0  0  0
    9.7259   -5.3080   18.4485 C   0  0  0  0  0  0  0  0  0  0  0  0
    9.4578   -5.0200   16.3036 N   0  0  0  0  0  0  0  0  0  0  0  0
    5.0287   -8.9365   16.8223 C   0  0  0  0  0  0  0  0  0  0  0  0
    8.7742   -6.1498   16.6764 C   0  0  0  0  0  0  0  0  0  0  0  0
   10.9418   -3.4032   21.2053 O   0  0  0  0  0  0  0  0  0  0  0  0
    1.4797   -8.6258   16.2950 C   0  0  0  0  0  0  0  0  0  0  0  0
    9.2861   -1.2743   25.3585 C   0  0  0  0  0  0  0  0  0  0  0  0
    1.8892  -10.3985   17.7511 N   0  0  0  0  0  0  0  0  0  0  0  0
    9.6210   -0.6952   24.0976 C   0  0  0  0  0  0  0  0  0  0  0  0
    7.0792   -9.0217   17.1429 C   0  0  0  0  0  0  0  0  0  0  0  0
    3.1713  -10.1816   17.6634 C   0  0  0  0  0  0  0  0  0  0  0  0
    2.7878   -8.3822   16.2137 C   0  0  0  0  0  0  0  0  0  0  0  0
    9.4601   -2.6590   25.6528 C   0  0  0  0  0  0  0  0  0  0  0  0
   10.1182   -1.5672   23.1165 C   0  0  0  0  0  0  0  0  0  0  0  0
    1.0552   -9.6360   17.0650 C   0  0  0  0  0  0  0  0  0  0  0  0
    3.6519   -9.1783   16.9039 C   0  0  0  0  0  0  0  0  0  0  0  0
    7.8675   -7.0096   15.9415 C   0  0  0  0  0  0  0  0  0  0  0  0
    5.9733   -9.6553   17.3832 N   0  0  0  0  0  0  0  0  0  0  0  0
   10.2411   -2.9363   23.4301 C   0  0  0  0  0  0  0  0  0  0  0  0
   10.7288   -3.8197   19.9525 C   0  0  0  0  0  0  0  0  0  0  0  0
   10.1189   -5.0054   19.6987 C   0  0  0  0  0  0  0  0  0  0  0  0
  1  3  4  0
  1  7  4  0
  2 21  4  0
  2 27  4  0
  3  9  4  0
  3 10  4  0
  4  8  4  0
  4 18  4  0
  4 25  1  0
  5  9  4  0
  5 12  4  0
  6 13  1  0
  6 27  1  0
  7 28  4  0
  8 11  4  0
  9 29  4  0
 10 12  4  0
 11 24  1  0
 11 26  4  0
 12 25  1  0
 13 28  1  0
 14 20  4  0
 14 23  4  0
 15 17  4  0
 15 21  4  0
 16 19  4  0
 16 23  4  0
 17 22  4  0
 18 26  4  0
 19 24  4  0
 20 24  4  0
 22 27  4  0
 28 29  4  0
M  END
$$$$

 Created by Python create_sdf_string function

 29 33  0  0  0  0  0  0  0  0999 V2000
   10.7215   -3.3326   17.6437 C   0  0  0  0  0  0  0  0  0  0  0  0
    9.9489   -3.4675   24.6487 N   0  0  0  0  0  0  0  0  0  0  0  0
   10.0172   -4.4740   17.4101 C   0  0  0  0  0  0  0  0  0  0  0  0
    6.9051   -7.9575   16.4222 C   0  0  0  0  0  0  0  0  0  0  0  0
    8.9969   -6.3552   17.9668 N   0  0  0  0  0  0  0  0  0  0  0  0
   10.6702   -3.9051   22.4070 C   0  0  0  0  0  0  0  0  0  0  0  0
   11.0625   -3.0028   18.8894 C   0  0  0  0  0  0  0  0  0  0  0  0
    5.6180   -7.9194   16.1754 O   0  0  0  0  0  0  0  0  0  0  0  0
    9.7259   -5.3080   18.4485 C   0  0  0  0  0  0  0  0  0  0  0  0
    9.4578   -5.0200   16.3036 N   0  0  0  0  0  0  0  0  0  0  0  0
    5.0287   -8.9365   16.8223 C   0  0  0  0  0  0  0  0  0  0  0  0
    8.7742   -6.1498   16.6764 C   0  0  0  0  0  0  0  0  0  0  0  0
   10.9418   -3.4032   21.2053 O   0  0  0  0  0  0  0  0  0  0  0  0
    1.4797   -8.6258   16.2950 C   0  0  0  0  0  0  0  0  0  0  0  0
    9.2861   -1.2743   25.3585 C   0  0  0  0  0  0  0  0  0  0  0  0
    1.8892  -10.3985   17.7511 N   0  0  0  0  0  0  0  0  0  0  0  0
    9.6210   -0.6952   24.0976 C   0  0  0  0  0  0  0  0  0  0  0  0
    7.0792   -9.0217   17.1429 C   0  0  0  0  0  0  0  0  0  0  0  0
    3.1713  -10.1816   17.6634 C   0  0  0  0  0  0  0  0  0  0  0  0
    2.7878   -8.3822   16.2137 C   0  0  0  0  0  0  0  0  0  0  0  0
    9.4601   -2.6590   25.6528 C   0  0  0  0  0  0  0  0  0  0  0  0
   10.1182   -1.5672   23.1165 C   0  0  0  0  0  0  0  0  0  0  0  0
    1.0552   -9.6360   17.0650 C   0  0  0  0  0  0  0  0  0  0  0  0
    3.6519   -9.1783   16.9039 C   0  0  0  0  0  0  0  0  0  0  0  0
    7.8675   -7.0096   15.9415 C   0  0  0  0  0  0  0  0  0  0  0  0
    5.9733   -9.6553   17.3832 N   0  0  0  0  0  0  0  0  0  0  0  0
   10.2411   -2.9363   23.4301 C   0  0  0  0  0  0  0  0  0  0  0  0
   10.7288   -3.8197   19.9525 C   0  0  0  0  0  0  0  0  0  0  0  0
   10.1189   -5.0054   19.6987 C   0  0  0  0  0  0  0  0  0  0  0  0
  1  3  4  0
  1  7  4  0
  2 21  4  0
  2 27  4  0
  3  9  4  0
  3 10  4  0
  4  8  4  0
  4 18  4  0
  4 25  1  0
  5  9  4  0
  5 12  4  0
  6 13  1  0
  6 27  1  0
  7 28  4  0
  8 11  4  0
  9 29  4  0
 10 12  4  0
 11 24  1  0
 11 26  4  0
 12 25  1  0
 13 28  1  0
 14 20  4  0
 14 23  4  0
 15 17  4  0
 15 21  4  0
 16 19  4  0
 16 23  4  0
 17 22  4  0
 18 26  4  0
 19 24  4  0
 20 24  4  0
 22 27  4  0
 28 29  4  0
M  END
$$$$

 Created by Python create_sdf_string function

 29 33  0  0  0  0  0  0  0  0999 V2000
   10.7215   -3.3326   17.6437 C   0  0  0  0  0  0  0  0  0  0  0  0
    9.9489   -3.4675   24.6487 N   0  0  0  0  0  0  0  0  0  0  0  0
   10.0172   -4.4740   17.4101 C   0  0  0  0  0  0  0  0  0  0  0  0
    6.9051   -7.9575   16.4222 C   0  0  0  0  0  0  0  0  0  0  0  0
    8.9969   -6.3552   17.9668 N   0  0  0  0  0  0  0  0  0  0  0  0
   10.6702   -3.9051   22.4070 C   0  0  0  0  0  0  0  0  0  0  0  0
   11.0625   -3.0028   18.8894 C   0  0  0  0  0  0  0  0  0  0  0  0
    5.6180   -7.9194   16.1754 O   0  0  0  0  0  0  0  0  0  0  0  0
    9.7259   -5.3080   18.4485 C   0  0  0  0  0  0  0  0  0  0  0  0
    9.4578   -5.0200   16.3036 N   0  0  0  0  0  0  0  0  0  0  0  0
    5.0287   -8.9365   16.8223 C   0  0  0  0  0  0  0  0  0  0  0  0
    8.7742   -6.1498   16.6764 C   0  0  0  0  0  0  0  0  0  0  0  0
   10.9418   -3.4032   21.2053 O   0  0  0  0  0  0  0  0  0  0  0  0
    1.4797   -8.6258   16.2950 C   0  0  0  0  0  0  0  0  0  0  0  0
    9.2861   -1.2743   25.3585 C   0  0  0  0  0  0  0  0  0  0  0  0
    1.8892  -10.3985   17.7511 N   0  0  0  0  0  0  0  0  0  0  0  0
    9.6210   -0.6952   24.0976 C   0  0  0  0  0  0  0  0  0  0  0  0
    7.0792   -9.0217   17.1429 C   0  0  0  0  0  0  0  0  0  0  0  0
    3.1713  -10.1816   17.6634 C   0  0  0  0  0  0  0  0  0  0  0  0
    2.7878   -8.3822   16.2137 C   0  0  0  0  0  0  0  0  0  0  0  0
    9.4601   -2.6590   25.6528 C   0  0  0  0  0  0  0  0  0  0  0  0
   10.1182   -1.5672   23.1165 C   0  0  0  0  0  0  0  0  0  0  0  0
    1.0552   -9.6360   17.0650 C   0  0  0  0  0  0  0  0  0  0  0  0
    3.6519   -9.1783   16.9039 C   0  0  0  0  0  0  0  0  0  0  0  0
    7.8675   -7.0096   15.9415 C   0  0  0  0  0  0  0  0  0  0  0  0
    5.9733   -9.6553   17.3832 N   0  0  0  0  0  0  0  0  0  0  0  0
   10.2411   -2.9363   23.4301 C   0  0  0  0  0  0  0  0  0  0  0  0
   10.7288   -3.8197   19.9525 C   0  0  0  0  0  0  0  0  0  0  0  0
   10.1189   -5.0054   19.6987 C   0  0  0  0  0  0  0  0  0  0  0  0
  1  3  4  0
  1  7  4  0
  2 21  4  0
  2 27  4  0
  3  9  4  0
  3 10  4  0
  4  8  4  0
  4 18  4  0
  4 25  1  0
  5  9  4  0
  5 12  4  0
  6 13  1  0
  6 27  1  0
  7 28  4  0
  8 11  4  0
  9 29  4  0
 10 12  4  0
 11 24  1  0
 11 26  4  0
 12 25  1  0
 13 28  1  0
 14 20  4  0
 14 23  4  0
 15 17  4  0
 15 21  4  0
 16 19  4  0
 16 23  4  0
 17 22  4  0
 18 26  4  0
 19 24  4  0
 20 24  4  0
 22 27  4  0
 28 29  4  0
M  END
$$$$

 Created by Python create_sdf_string function

 29 33  0  0  0  0  0  0  0  0999 V2000
   10.7215   -3.3326   17.6437 C   0  0  0  0  0  0  0  0  0  0  0  0
    9.9489   -3.4675   24.6487 N   0  0  0  0  0  0  0  0  0  0  0  0
   10.0172   -4.4740   17.4101 C   0  0  0  0  0  0  0  0  0  0  0  0
    6.9051   -7.9575   16.4222 C   0  0  0  0  0  0  0  0  0  0  0  0
    8.9969   -6.3552   17.9668 N   0  0  0  0  0  0  0  0  0  0  0  0
   10.6702   -3.9051   22.4070 C   0  0  0  0  0  0  0  0  0  0  0  0
   11.0625   -3.0028   18.8894 C   0  0  0  0  0  0  0  0  0  0  0  0
    5.6180   -7.9194   16.1754 O   0  0  0  0  0  0  0  0  0  0  0  0
    9.7259   -5.3080   18.4485 C   0  0  0  0  0  0  0  0  0  0  0  0
    9.4578   -5.0200   16.3036 N   0  0  0  0  0  0  0  0  0  0  0  0
    5.0287   -8.9365   16.8223 C   0  0  0  0  0  0  0  0  0  0  0  0
    8.7742   -6.1498   16.6764 C   0  0  0  0  0  0  0  0  0  0  0  0
   10.9418   -3.4032   21.2053 O   0  0  0  0  0  0  0  0  0  0  0  0
    1.4797   -8.6258   16.2950 C   0  0  0  0  0  0  0  0  0  0  0  0
    9.2861   -1.2743   25.3585 C   0  0  0  0  0  0  0  0  0  0  0  0
    1.8892  -10.3985   17.7511 N   0  0  0  0  0  0  0  0  0  0  0  0
    9.6210   -0.6952   24.0976 C   0  0  0  0  0  0  0  0  0  0  0  0
    7.0792   -9.0217   17.1429 C   0  0  0  0  0  0  0  0  0  0  0  0
    3.1713  -10.1816   17.6634 C   0  0  0  0  0  0  0  0  0  0  0  0
    2.7878   -8.3822   16.2137 C   0  0  0  0  0  0  0  0  0  0  0  0
    9.4601   -2.6590   25.6528 C   0  0  0  0  0  0  0  0  0  0  0  0
   10.1182   -1.5672   23.1165 C   0  0  0  0  0  0  0  0  0  0  0  0
    1.0552   -9.6360   17.0650 C   0  0  0  0  0  0  0  0  0  0  0  0
    3.6519   -9.1783   16.9039 C   0  0  0  0  0  0  0  0  0  0  0  0
    7.8675   -7.0096   15.9415 C   0  0  0  0  0  0  0  0  0  0  0  0
    5.9733   -9.6553   17.3832 N   0  0  0  0  0  0  0  0  0  0  0  0
   10.2411   -2.9363   23.4301 C   0  0  0  0  0  0  0  0  0  0  0  0
   10.7288   -3.8197   19.9525 C   0  0  0  0  0  0  0  0  0  0  0  0
   10.1189   -5.0054   19.6987 C   0  0  0  0  0  0  0  0  0  0  0  0
  1  3  4  0
  1  7  4  0
  2 21  4  0
  2 27  4  0
  3  9  4  0
  3 10  4  0
  4  8  4  0
  4 18  4  0
  4 25  1  0
  5  9  4  0
  5 12  4  0
  6 13  1  0
  6 27  1  0
  7 28  4  0
  8 11  4  0
  9 29  4  0
 10 12  4  0
 11 24  1  0
 11 26  4  0
 12 25  1  0
 13 28  1  0
 14 20  4  0
 14 23  4  0
 15 17  4  0
 15 21  4  0
 16 19  4  0
 16 23  4  0
 17 22  4  0
 18 26  4  0
 19 24  4  0
 20 24  4  0
 22 27  4  0
 28 29  4  0
M  END
$$$$

 Created by Python create_sdf_string function

 29 33  0  0  0  0  0  0  0  0999 V2000
   10.7215   -3.3326   17.6437 C   0  0  0  0  0  0  0  0  0  0  0  0
    9.9489   -3.4675   24.6487 N   0  0  0  0  0  0  0  0  0  0  0  0
   10.0172   -4.4740   17.4101 C   0  0  0  0  0  0  0  0  0  0  0  0
    6.9051   -7.9575   16.4222 C   0  0  0  0  0  0  0  0  0  0  0  0
    8.9969   -6.3552   17.9668 N   0  0  0  0  0  0  0  0  0  0  0  0
   10.6702   -3.9051   22.4070 C   0  0  0  0  0  0  0  0  0  0  0  0
   11.0625   -3.0028   18.8894 C   0  0  0  0  0  0  0  0  0  0  0  0
    5.6180   -7.9194   16.1754 O   0  0  0  0  0  0  0  0  0  0  0  0
    9.7259   -5.3080   18.4485 C   0  0  0  0  0  0  0  0  0  0  0  0
    9.4578   -5.0200   16.3036 N   0  0  0  0  0  0  0  0  0  0  0  0
    5.0287   -8.9365   16.8223 C   0  0  0  0  0  0  0  0  0  0  0  0
    8.7742   -6.1498   16.6764 C   0  0  0  0  0  0  0  0  0  0  0  0
   10.9418   -3.4032   21.2053 O   0  0  0  0  0  0  0  0  0  0  0  0
    1.4797   -8.6258   16.2950 C   0  0  0  0  0  0  0  0  0  0  0  0
    9.2861   -1.2743   25.3585 C   0  0  0  0  0  0  0  0  0  0  0  0
    1.8892  -10.3985   17.7511 N   0  0  0  0  0  0  0  0  0  0  0  0
    9.6210   -0.6952   24.0976 C   0  0  0  0  0  0  0  0  0  0  0  0
    7.0792   -9.0217   17.1429 C   0  0  0  0  0  0  0  0  0  0  0  0
    3.1713  -10.1816   17.6634 C   0  0  0  0  0  0  0  0  0  0  0  0
    2.7878   -8.3822   16.2137 C   0  0  0  0  0  0  0  0  0  0  0  0
    9.4601   -2.6590   25.6528 C   0  0  0  0  0  0  0  0  0  0  0  0
   10.1182   -1.5672   23.1165 C   0  0  0  0  0  0  0  0  0  0  0  0
    1.0552   -9.6360   17.0650 C   0  0  0  0  0  0  0  0  0  0  0  0
    3.6519   -9.1783   16.9039 C   0  0  0  0  0  0  0  0  0  0  0  0
    7.8675   -7.0096   15.9415 C   0  0  0  0  0  0  0  0  0  0  0  0
    5.9733   -9.6553   17.3832 N   0  0  0  0  0  0  0  0  0  0  0  0
   10.2411   -2.9363   23.4301 C   0  0  0  0  0  0  0  0  0  0  0  0
   10.7288   -3.8197   19.9525 C   0  0  0  0  0  0  0  0  0  0  0  0
   10.1189   -5.0054   19.6987 C   0  0  0  0  0  0  0  0  0  0  0  0
  1  3  4  0
  1  7  4  0
  2 21  4  0
  2 27  4  0
  3  9  4  0
  3 10  4  0
  4  8  4  0
  4 18  4  0
  4 25  1  0
  5  9  4  0
  5 12  4  0
  6 13  1  0
  6 27  1  0
  7 28  4  0
  8 11  4  0
  9 29  4  0
 10 12  4  0
 11 24  1  0
 11 26  4  0
 12 25  1  0
 13 28  1  0
 14 20  4  0
 14 23  4  0
 15 17  4  0
 15 21  4  0
 16 19  4  0
 16 23  4  0
 17 22  4  0
 18 26  4  0
 19 24  4  0
 20 24  4  0
 22 27  4  0
 28 29  4  0
M  END
$$$$

 Created by Python create_sdf_string function

 29 33  0  0  0  0  0  0  0  0999 V2000
   10.7215   -3.3326   17.6437 C   0  0  0  0  0  0  0  0  0  0  0  0
    9.9489   -3.4675   24.6487 N   0  0  0  0  0  0  0  0  0  0  0  0
   10.0172   -4.4740   17.4101 C   0  0  0  0  0  0  0  0  0  0  0  0
    6.9051   -7.9575   16.4222 C   0  0  0  0  0  0  0  0  0  0  0  0
    8.9969   -6.3552   17.9668 N   0  0  0  0  0  0  0  0  0  0  0  0
   10.6702   -3.9051   22.4070 C   0  0  0  0  0  0  0  0  0  0  0  0
   11.0625   -3.0028   18.8894 C   0  0  0  0  0  0  0  0  0  0  0  0
    5.6180   -7.9194   16.1754 O   0  0  0  0  0  0  0  0  0  0  0  0
    9.7259   -5.3080   18.4485 C   0  0  0  0  0  0  0  0  0  0  0  0
    9.4578   -5.0200   16.3036 N   0  0  0  0  0  0  0  0  0  0  0  0
    5.0287   -8.9365   16.8223 C   0  0  0  0  0  0  0  0  0  0  0  0
    8.7742   -6.1498   16.6764 C   0  0  0  0  0  0  0  0  0  0  0  0
   10.9418   -3.4032   21.2053 O   0  0  0  0  0  0  0  0  0  0  0  0
    1.4797   -8.6258   16.2950 C   0  0  0  0  0  0  0  0  0  0  0  0
    9.2861   -1.2743   25.3585 C   0  0  0  0  0  0  0  0  0  0  0  0
    1.8892  -10.3985   17.7511 N   0  0  0  0  0  0  0  0  0  0  0  0
    9.6210   -0.6952   24.0976 C   0  0  0  0  0  0  0  0  0  0  0  0
    7.0792   -9.0217   17.1429 C   0  0  0  0  0  0  0  0  0  0  0  0
    3.1713  -10.1816   17.6634 C   0  0  0  0  0  0  0  0  0  0  0  0
    2.7878   -8.3822   16.2137 C   0  0  0  0  0  0  0  0  0  0  0  0
    9.4601   -2.6590   25.6528 C   0  0  0  0  0  0  0  0  0  0  0  0
   10.1182   -1.5672   23.1165 C   0  0  0  0  0  0  0  0  0  0  0  0
    1.0552   -9.6360   17.0650 C   0  0  0  0  0  0  0  0  0  0  0  0
    3.6519   -9.1783   16.9039 C   0  0  0  0  0  0  0  0  0  0  0  0
    7.8675   -7.0096   15.9415 C   0  0  0  0  0  0  0  0  0  0  0  0
    5.9733   -9.6553   17.3832 N   0  0  0  0  0  0  0  0  0  0  0  0
   10.2411   -2.9363   23.4301 C   0  0  0  0  0  0  0  0  0  0  0  0
   10.7288   -3.8197   19.9525 C   0  0  0  0  0  0  0  0  0  0  0  0
   10.1189   -5.0054   19.6987 C   0  0  0  0  0  0  0  0  0  0  0  0
  1  3  4  0
  1  7  4  0
  2 21  4  0
  2 27  4  0
  3  9  4  0
  3 10  4  0
  4  8  4  0
  4 18  4  0
  4 25  1  0
  5  9  4  0
  5 12  4  0
  6 13  1  0
  6 27  1  0
  7 28  4  0
  8 11  4  0
  9 29  4  0
 10 12  4  0
 11 24  1  0
 11 26  4  0
 12 25  1  0
 13 28  1  0
 14 20  4  0
 14 23  4  0
 15 17  4  0
 15 21  4  0
 16 19  4  0
 16 23  4  0
 17 22  4  0
 18 26  4  0
 19 24  4  0
 20 24  4  0
 22 27  4  0
 28 29  4  0
M  END
$$$$

 Created by Python create_sdf_string function

 29 33  0  0  0  0  0  0  0  0999 V2000
   10.7215   -3.3326   17.6437 C   0  0  0  0  0  0  0  0  0  0  0  0
    9.9489   -3.4675   24.6487 N   0  0  0  0  0  0  0  0  0  0  0  0
   10.0172   -4.4740   17.4101 C   0  0  0  0  0  0  0  0  0  0  0  0
    6.9051   -7.9575   16.4222 C   0  0  0  0  0  0  0  0  0  0  0  0
    8.9969   -6.3552   17.9668 N   0  0  0  0  0  0  0  0  0  0  0  0
   10.6702   -3.9051   22.4070 C   0  0  0  0  0  0  0  0  0  0  0  0
   11.0625   -3.0028   18.8894 C   0  0  0  0  0  0  0  0  0  0  0  0
    5.6180   -7.9194   16.1754 O   0  0  0  0  0  0  0  0  0  0  0  0
    9.7259   -5.3080   18.4485 C   0  0  0  0  0  0  0  0  0  0  0  0
    9.4578   -5.0200   16.3036 N   0  0  0  0  0  0  0  0  0  0  0  0
    5.0287   -8.9365   16.8223 C   0  0  0  0  0  0  0  0  0  0  0  0
    8.7742   -6.1498   16.6764 C   0  0  0  0  0  0  0  0  0  0  0  0
   10.9418   -3.4032   21.2053 O   0  0  0  0  0  0  0  0  0  0  0  0
    1.4797   -8.6258   16.2950 C   0  0  0  0  0  0  0  0  0  0  0  0
    9.2861   -1.2743   25.3585 C   0  0  0  0  0  0  0  0  0  0  0  0
    1.8892  -10.3985   17.7511 N   0  0  0  0  0  0  0  0  0  0  0  0
    9.6210   -0.6952   24.0976 C   0  0  0  0  0  0  0  0  0  0  0  0
    7.0792   -9.0217   17.1429 C   0  0  0  0  0  0  0  0  0  0  0  0
    3.1713  -10.1816   17.6634 C   0  0  0  0  0  0  0  0  0  0  0  0
    2.7878   -8.3822   16.2137 C   0  0  0  0  0  0  0  0  0  0  0  0
    9.4601   -2.6590   25.6528 C   0  0  0  0  0  0  0  0  0  0  0  0
   10.1182   -1.5672   23.1165 C   0  0  0  0  0  0  0  0  0  0  0  0
    1.0552   -9.6360   17.0650 C   0  0  0  0  0  0  0  0  0  0  0  0
    3.6519   -9.1783   16.9039 C   0  0  0  0  0  0  0  0  0  0  0  0
    7.8675   -7.0096   15.9415 C   0  0  0  0  0  0  0  0  0  0  0  0
    5.9733   -9.6553   17.3832 N   0  0  0  0  0  0  0  0  0  0  0  0
   10.2411   -2.9363   23.4301 C   0  0  0  0  0  0  0  0  0  0  0  0
   10.7288   -3.8197   19.9525 C   0  0  0  0  0  0  0  0  0  0  0  0
   10.1189   -5.0054   19.6987 C   0  0  0  0  0  0  0  0  0  0  0  0
  1  3  4  0
  1  7  4  0
  2 21  4  0
  2 27  4  0
  3  9  4  0
  3 10  4  0
  4  8  4  0
  4 18  4  0
  4 25  1  0
  5  9  4  0
  5 12  4  0
  6 13  1  0
  6 27  1  0
  7 28  4  0
  8 11  4  0
  9 29  4  0
 10 12  4  0
 11 24  1  0
 11 26  4  0
 12 25  1  0
 13 28  1  0
 14 20  4  0
 14 23  4  0
 15 17  4  0
 15 21  4  0
 16 19  4  0
 16 23  4  0
 17 22  4  0
 18 26  4  0
 19 24  4  0
 20 24  4  0
 22 27  4  0
 28 29  4  0
M  END
$$$$

 Created by Python create_sdf_string function

 29 33  0  0  0  0  0  0  0  0999 V2000
   10.7215   -3.3326   17.6437 C   0  0  0  0  0  0  0  0  0  0  0  0
    9.9489   -3.4675   24.6487 N   0  0  0  0  0  0  0  0  0  0  0  0
   10.0172   -4.4740   17.4101 C   0  0  0  0  0  0  0  0  0  0  0  0
    6.9051   -7.9575   16.4222 C   0  0  0  0  0  0  0  0  0  0  0  0
    8.9969   -6.3552   17.9668 N   0  0  0  0  0  0  0  0  0  0  0  0
   10.6702   -3.9051   22.4070 C   0  0  0  0  0  0  0  0  0  0  0  0
   11.0625   -3.0028   18.8894 C   0  0  0  0  0  0  0  0  0  0  0  0
    5.6180   -7.9194   16.1754 O   0  0  0  0  0  0  0  0  0  0  0  0
    9.7259   -5.3080   18.4485 C   0  0  0  0  0  0  0  0  0  0  0  0
    9.4578   -5.0200   16.3036 N   0  0  0  0  0  0  0  0  0  0  0  0
    5.0287   -8.9365   16.8223 C   0  0  0  0  0  0  0  0  0  0  0  0
    8.7742   -6.1498   16.6764 C   0  0  0  0  0  0  0  0  0  0  0  0
   10.9418   -3.4032   21.2053 O   0  0  0  0  0  0  0  0  0  0  0  0
    1.4797   -8.6258   16.2950 C   0  0  0  0  0  0  0  0  0  0  0  0
    9.2861   -1.2743   25.3585 C   0  0  0  0  0  0  0  0  0  0  0  0
    1.8892  -10.3985   17.7511 N   0  0  0  0  0  0  0  0  0  0  0  0
    9.6210   -0.6952   24.0976 C   0  0  0  0  0  0  0  0  0  0  0  0
    7.0792   -9.0217   17.1429 C   0  0  0  0  0  0  0  0  0  0  0  0
    3.1713  -10.1816   17.6634 C   0  0  0  0  0  0  0  0  0  0  0  0
    2.7878   -8.3822   16.2137 C   0  0  0  0  0  0  0  0  0  0  0  0
    9.4601   -2.6590   25.6528 C   0  0  0  0  0  0  0  0  0  0  0  0
   10.1182   -1.5672   23.1165 C   0  0  0  0  0  0  0  0  0  0  0  0
    1.0552   -9.6360   17.0650 C   0  0  0  0  0  0  0  0  0  0  0  0
    3.6519   -9.1783   16.9039 C   0  0  0  0  0  0  0  0  0  0  0  0
    7.8675   -7.0096   15.9415 C   0  0  0  0  0  0  0  0  0  0  0  0
    5.9733   -9.6553   17.3832 N   0  0  0  0  0  0  0  0  0  0  0  0
   10.2411   -2.9363   23.4301 C   0  0  0  0  0  0  0  0  0  0  0  0
   10.7288   -3.8197   19.9525 C   0  0  0  0  0  0  0  0  0  0  0  0
   10.1189   -5.0054   19.6987 C   0  0  0  0  0  0  0  0  0  0  0  0
  1  3  4  0
  1  7  4  0
  2 21  4  0
  2 27  4  0
  3  9  4  0
  3 10  4  0
  4  8  4  0
  4 18  4  0
  4 25  1  0
  5  9  4  0
  5 12  4  0
  6 13  1  0
  6 27  1  0
  7 28  4  0
  8 11  4  0
  9 29  4  0
 10 12  4  0
 11 24  1  0
 11 26  4  0
 12 25  1  0
 13 28  1  0
 14 20  4  0
 14 23  4  0
 15 17  4  0
 15 21  4  0
 16 19  4  0
 16 23  4  0
 17 22  4  0
 18 26  4  0
 19 24  4  0
 20 24  4  0
 22 27  4  0
 28 29  4  0
M  END
$$$$

 Created by Python create_sdf_string function

 29 33  0  0  0  0  0  0  0  0999 V2000
   10.7215   -3.3326   17.6437 C   0  0  0  0  0  0  0  0  0  0  0  0
    9.9489   -3.4675   24.6487 N   0  0  0  0  0  0  0  0  0  0  0  0
   10.0172   -4.4740   17.4101 C   0  0  0  0  0  0  0  0  0  0  0  0
    6.9051   -7.9575   16.4222 C   0  0  0  0  0  0  0  0  0  0  0  0
    8.9969   -6.3552   17.9668 N   0  0  0  0  0  0  0  0  0  0  0  0
   10.6702   -3.9051   22.4070 C   0  0  0  0  0  0  0  0  0  0  0  0
   11.0625   -3.0028   18.8894 C   0  0  0  0  0  0  0  0  0  0  0  0
    5.6180   -7.9194   16.1754 O   0  0  0  0  0  0  0  0  0  0  0  0
    9.7259   -5.3080   18.4485 C   0  0  0  0  0  0  0  0  0  0  0  0
    9.4578   -5.0200   16.3036 N   0  0  0  0  0  0  0  0  0  0  0  0
    5.0287   -8.9365   16.8223 C   0  0  0  0  0  0  0  0  0  0  0  0
    8.7742   -6.1498   16.6764 C   0  0  0  0  0  0  0  0  0  0  0  0
   10.9418   -3.4032   21.2053 O   0  0  0  0  0  0  0  0  0  0  0  0
    1.4797   -8.6258   16.2950 C   0  0  0  0  0  0  0  0  0  0  0  0
    9.2861   -1.2743   25.3585 C   0  0  0  0  0  0  0  0  0  0  0  0
    1.8892  -10.3985   17.7511 N   0  0  0  0  0  0  0  0  0  0  0  0
    9.6210   -0.6952   24.0976 C   0  0  0  0  0  0  0  0  0  0  0  0
    7.0792   -9.0217   17.1429 C   0  0  0  0  0  0  0  0  0  0  0  0
    3.1713  -10.1816   17.6634 C   0  0  0  0  0  0  0  0  0  0  0  0
    2.7878   -8.3822   16.2137 C   0  0  0  0  0  0  0  0  0  0  0  0
    9.4601   -2.6590   25.6528 C   0  0  0  0  0  0  0  0  0  0  0  0
   10.1182   -1.5672   23.1165 C   0  0  0  0  0  0  0  0  0  0  0  0
    1.0552   -9.6360   17.0650 C   0  0  0  0  0  0  0  0  0  0  0  0
    3.6519   -9.1783   16.9039 C   0  0  0  0  0  0  0  0  0  0  0  0
    7.8675   -7.0096   15.9415 C   0  0  0  0  0  0  0  0  0  0  0  0
    5.9733   -9.6553   17.3832 N   0  0  0  0  0  0  0  0  0  0  0  0
   10.2411   -2.9363   23.4301 C   0  0  0  0  0  0  0  0  0  0  0  0
   10.7288   -3.8197   19.9525 C   0  0  0  0  0  0  0  0  0  0  0  0
   10.1189   -5.0054   19.6987 C   0  0  0  0  0  0  0  0  0  0  0  0
  1  3  4  0
  1  7  4  0
  2 21  4  0
  2 27  4  0
  3  9  4  0
  3 10  4  0
  4  8  4  0
  4 18  4  0
  4 25  1  0
  5  9  4  0
  5 12  4  0
  6 13  1  0
  6 27  1  0
  7 28  4  0
  8 11  4  0
  9 29  4  0
 10 12  4  0
 11 24  1  0
 11 26  4  0
 12 25  1  0
 13 28  1  0
 14 20  4  0
 14 23  4  0
 15 17  4  0
 15 21  4  0
 16 19  4  0
 16 23  4  0
 17 22  4  0
 18 26  4  0
 19 24  4  0
 20 24  4  0
 22 27  4  0
 28 29  4  0
M  END
$$$$

 Created by Python create_sdf_string function

 29 33  0  0  0  0  0  0  0  0999 V2000
   10.7215   -3.3326   17.6437 C   0  0  0  0  0  0  0  0  0  0  0  0
    9.9489   -3.4675   24.6487 N   0  0  0  0  0  0  0  0  0  0  0  0
   10.0172   -4.4740   17.4101 C   0  0  0  0  0  0  0  0  0  0  0  0
    6.9051   -7.9575   16.4222 C   0  0  0  0  0  0  0  0  0  0  0  0
    8.9969   -6.3552   17.9668 N   0  0  0  0  0  0  0  0  0  0  0  0
   10.6702   -3.9051   22.4070 C   0  0  0  0  0  0  0  0  0  0  0  0
   11.0625   -3.0028   18.8894 C   0  0  0  0  0  0  0  0  0  0  0  0
    5.6180   -7.9194   16.1754 O   0  0  0  0  0  0  0  0  0  0  0  0
    9.7259   -5.3080   18.4485 C   0  0  0  0  0  0  0  0  0  0  0  0
    9.4578   -5.0200   16.3036 N   0  0  0  0  0  0  0  0  0  0  0  0
    5.0287   -8.9365   16.8223 C   0  0  0  0  0  0  0  0  0  0  0  0
    8.7742   -6.1498   16.6764 C   0  0  0  0  0  0  0  0  0  0  0  0
   10.9418   -3.4032   21.2053 O   0  0  0  0  0  0  0  0  0  0  0  0
    1.4797   -8.6258   16.2950 C   0  0  0  0  0  0  0  0  0  0  0  0
    9.2861   -1.2743   25.3585 C   0  0  0  0  0  0  0  0  0  0  0  0
    1.8892  -10.3985   17.7511 N   0  0  0  0  0  0  0  0  0  0  0  0
    9.6210   -0.6952   24.0976 C   0  0  0  0  0  0  0  0  0  0  0  0
    7.0792   -9.0217   17.1429 C   0  0  0  0  0  0  0  0  0  0  0  0
    3.1713  -10.1816   17.6634 C   0  0  0  0  0  0  0  0  0  0  0  0
    2.7878   -8.3822   16.2137 C   0  0  0  0  0  0  0  0  0  0  0  0
    9.4601   -2.6590   25.6528 C   0  0  0  0  0  0  0  0  0  0  0  0
   10.1182   -1.5672   23.1165 C   0  0  0  0  0  0  0  0  0  0  0  0
    1.0552   -9.6360   17.0650 C   0  0  0  0  0  0  0  0  0  0  0  0
    3.6519   -9.1783   16.9039 C   0  0  0  0  0  0  0  0  0  0  0  0
    7.8675   -7.0096   15.9415 C   0  0  0  0  0  0  0  0  0  0  0  0
    5.9733   -9.6553   17.3832 N   0  0  0  0  0  0  0  0  0  0  0  0
   10.2411   -2.9363   23.4301 C   0  0  0  0  0  0  0  0  0  0  0  0
   10.7288   -3.8197   19.9525 C   0  0  0  0  0  0  0  0  0  0  0  0
   10.1189   -5.0054   19.6987 C   0  0  0  0  0  0  0  0  0  0  0  0
  1  3  4  0
  1  7  4  0
  2 21  4  0
  2 27  4  0
  3  9  4  0
  3 10  4  0
  4  8  4  0
  4 18  4  0
  4 25  1  0
  5  9  4  0
  5 12  4  0
  6 13  1  0
  6 27  1  0
  7 28  4  0
  8 11  4  0
  9 29  4  0
 10 12  4  0
 11 24  1  0
 11 26  4  0
 12 25  1  0
 13 28  1  0
 14 20  4  0
 14 23  4  0
 15 17  4  0
 15 21  4  0
 16 19  4  0
 16 23  4  0
 17 22  4  0
 18 26  4  0
 19 24  4  0
 20 24  4  0
 22 27  4  0
 28 29  4  0
M  END
$$$$

 Created by Python create_sdf_string function

 29 33  0  0  0  0  0  0  0  0999 V2000
   10.7215   -3.3326   17.6437 C   0  0  0  0  0  0  0  0  0  0  0  0
    9.9489   -3.4675   24.6487 N   0  0  0  0  0  0  0  0  0  0  0  0
   10.0172   -4.4740   17.4101 C   0  0  0  0  0  0  0  0  0  0  0  0
    6.9051   -7.9575   16.4222 C   0  0  0  0  0  0  0  0  0  0  0  0
    8.9969   -6.3552   17.9668 N   0  0  0  0  0  0  0  0  0  0  0  0
   10.6702   -3.9051   22.4070 C   0  0  0  0  0  0  0  0  0  0  0  0
   11.0625   -3.0028   18.8894 C   0  0  0  0  0  0  0  0  0  0  0  0
    5.6180   -7.9194   16.1754 O   0  0  0  0  0  0  0  0  0  0  0  0
    9.7259   -5.3080   18.4485 C   0  0  0  0  0  0  0  0  0  0  0  0
    9.4578   -5.0200   16.3036 N   0  0  0  0  0  0  0  0  0  0  0  0
    5.0287   -8.9365   16.8223 C   0  0  0  0  0  0  0  0  0  0  0  0
    8.7742   -6.1498   16.6764 C   0  0  0  0  0  0  0  0  0  0  0  0
   10.9418   -3.4032   21.2053 O   0  0  0  0  0  0  0  0  0  0  0  0
    1.4797   -8.6258   16.2950 C   0  0  0  0  0  0  0  0  0  0  0  0
    9.2861   -1.2743   25.3585 C   0  0  0  0  0  0  0  0  0  0  0  0
    1.8892  -10.3985   17.7511 N   0  0  0  0  0  0  0  0  0  0  0  0
    9.6210   -0.6952   24.0976 C   0  0  0  0  0  0  0  0  0  0  0  0
    7.0792   -9.0217   17.1429 C   0  0  0  0  0  0  0  0  0  0  0  0
    3.1713  -10.1816   17.6634 C   0  0  0  0  0  0  0  0  0  0  0  0
    2.7878   -8.3822   16.2137 C   0  0  0  0  0  0  0  0  0  0  0  0
    9.4601   -2.6590   25.6528 C   0  0  0  0  0  0  0  0  0  0  0  0
   10.1182   -1.5672   23.1165 C   0  0  0  0  0  0  0  0  0  0  0  0
    1.0552   -9.6360   17.0650 C   0  0  0  0  0  0  0  0  0  0  0  0
    3.6519   -9.1783   16.9039 C   0  0  0  0  0  0  0  0  0  0  0  0
    7.8675   -7.0096   15.9415 C   0  0  0  0  0  0  0  0  0  0  0  0
    5.9733   -9.6553   17.3832 N   0  0  0  0  0  0  0  0  0  0  0  0
   10.2411   -2.9363   23.4301 C   0  0  0  0  0  0  0  0  0  0  0  0
   10.7288   -3.8197   19.9525 C   0  0  0  0  0  0  0  0  0  0  0  0
   10.1189   -5.0054   19.6987 C   0  0  0  0  0  0  0  0  0  0  0  0
  1  3  4  0
  1  7  4  0
  2 21  4  0
  2 27  4  0
  3  9  4  0
  3 10  4  0
  4  8  4  0
  4 18  4  0
  4 25  1  0
  5  9  4  0
  5 12  4  0
  6 13  1  0
  6 27  1  0
  7 28  4  0
  8 11  4  0
  9 29  4  0
 10 12  4  0
 11 24  1  0
 11 26  4  0
 12 25  1  0
 13 28  1  0
 14 20  4  0
 14 23  4  0
 15 17  4  0
 15 21  4  0
 16 19  4  0
 16 23  4  0
 17 22  4  0
 18 26  4  0
 19 24  4  0
 20 24  4  0
 22 27  4  0
 28 29  4  0
M  END
$$$$

 Created by Python create_sdf_string function

 29 33  0  0  0  0  0  0  0  0999 V2000
   10.7215   -3.3326   17.6437 C   0  0  0  0  0  0  0  0  0  0  0  0
    9.9489   -3.4675   24.6487 N   0  0  0  0  0  0  0  0  0  0  0  0
   10.0172   -4.4740   17.4101 C   0  0  0  0  0  0  0  0  0  0  0  0
    6.9051   -7.9575   16.4222 C   0  0  0  0  0  0  0  0  0  0  0  0
    8.9969   -6.3552   17.9668 N   0  0  0  0  0  0  0  0  0  0  0  0
   10.6702   -3.9051   22.4070 C   0  0  0  0  0  0  0  0  0  0  0  0
   11.0625   -3.0028   18.8894 C   0  0  0  0  0  0  0  0  0  0  0  0
    5.6180   -7.9194   16.1754 O   0  0  0  0  0  0  0  0  0  0  0  0
    9.7259   -5.3080   18.4485 C   0  0  0  0  0  0  0  0  0  0  0  0
    9.4578   -5.0200   16.3036 N   0  0  0  0  0  0  0  0  0  0  0  0
    5.0287   -8.9365   16.8223 C   0  0  0  0  0  0  0  0  0  0  0  0
    8.7742   -6.1498   16.6764 C   0  0  0  0  0  0  0  0  0  0  0  0
   10.9418   -3.4032   21.2053 O   0  0  0  0  0  0  0  0  0  0  0  0
    1.4797   -8.6258   16.2950 C   0  0  0  0  0  0  0  0  0  0  0  0
    9.2861   -1.2743   25.3585 C   0  0  0  0  0  0  0  0  0  0  0  0
    1.8892  -10.3985   17.7511 N   0  0  0  0  0  0  0  0  0  0  0  0
    9.6210   -0.6952   24.0976 C   0  0  0  0  0  0  0  0  0  0  0  0
    7.0792   -9.0217   17.1429 C   0  0  0  0  0  0  0  0  0  0  0  0
    3.1713  -10.1816   17.6634 C   0  0  0  0  0  0  0  0  0  0  0  0
    2.7878   -8.3822   16.2137 C   0  0  0  0  0  0  0  0  0  0  0  0
    9.4601   -2.6590   25.6528 C   0  0  0  0  0  0  0  0  0  0  0  0
   10.1182   -1.5672   23.1165 C   0  0  0  0  0  0  0  0  0  0  0  0
    1.0552   -9.6360   17.0650 C   0  0  0  0  0  0  0  0  0  0  0  0
    3.6519   -9.1783   16.9039 C   0  0  0  0  0  0  0  0  0  0  0  0
    7.8675   -7.0096   15.9415 C   0  0  0  0  0  0  0  0  0  0  0  0
    5.9733   -9.6553   17.3832 N   0  0  0  0  0  0  0  0  0  0  0  0
   10.2411   -2.9363   23.4301 C   0  0  0  0  0  0  0  0  0  0  0  0
   10.7288   -3.8197   19.9525 C   0  0  0  0  0  0  0  0  0  0  0  0
   10.1189   -5.0054   19.6987 C   0  0  0  0  0  0  0  0  0  0  0  0
  1  3  4  0
  1  7  4  0
  2 21  4  0
  2 27  4  0
  3  9  4  0
  3 10  4  0
  4  8  4  0
  4 18  4  0
  4 25  1  0
  5  9  4  0
  5 12  4  0
  6 13  1  0
  6 27  1  0
  7 28  4  0
  8 11  4  0
  9 29  4  0
 10 12  4  0
 11 24  1  0
 11 26  4  0
 12 25  1  0
 13 28  1  0
 14 20  4  0
 14 23  4  0
 15 17  4  0
 15 21  4  0
 16 19  4  0
 16 23  4  0
 17 22  4  0
 18 26  4  0
 19 24  4  0
 20 24  4  0
 22 27  4  0
 28 29  4  0
M  END
$$$$

 Created by Python create_sdf_string function

 29 33  0  0  0  0  0  0  0  0999 V2000
   10.7215   -3.3326   17.6437 C   0  0  0  0  0  0  0  0  0  0  0  0
    9.9489   -3.4675   24.6487 N   0  0  0  0  0  0  0  0  0  0  0  0
   10.0172   -4.4740   17.4101 C   0  0  0  0  0  0  0  0  0  0  0  0
    6.9051   -7.9575   16.4222 C   0  0  0  0  0  0  0  0  0  0  0  0
    8.9969   -6.3552   17.9668 N   0  0  0  0  0  0  0  0  0  0  0  0
   10.6702   -3.9051   22.4070 C   0  0  0  0  0  0  0  0  0  0  0  0
   11.0625   -3.0028   18.8894 C   0  0  0  0  0  0  0  0  0  0  0  0
    5.6180   -7.9194   16.1754 O   0  0  0  0  0  0  0  0  0  0  0  0
    9.7259   -5.3080   18.4485 C   0  0  0  0  0  0  0  0  0  0  0  0
    9.4578   -5.0200   16.3036 N   0  0  0  0  0  0  0  0  0  0  0  0
    5.0287   -8.9365   16.8223 C   0  0  0  0  0  0  0  0  0  0  0  0
    8.7742   -6.1498   16.6764 C   0  0  0  0  0  0  0  0  0  0  0  0
   10.9418   -3.4032   21.2053 O   0  0  0  0  0  0  0  0  0  0  0  0
    1.4797   -8.6258   16.2950 C   0  0  0  0  0  0  0  0  0  0  0  0
    9.2861   -1.2743   25.3585 C   0  0  0  0  0  0  0  0  0  0  0  0
    1.8892  -10.3985   17.7511 N   0  0  0  0  0  0  0  0  0  0  0  0
    9.6210   -0.6952   24.0976 C   0  0  0  0  0  0  0  0  0  0  0  0
    7.0792   -9.0217   17.1429 C   0  0  0  0  0  0  0  0  0  0  0  0
    3.1713  -10.1816   17.6634 C   0  0  0  0  0  0  0  0  0  0  0  0
    2.7878   -8.3822   16.2137 C   0  0  0  0  0  0  0  0  0  0  0  0
    9.4601   -2.6590   25.6528 C   0  0  0  0  0  0  0  0  0  0  0  0
   10.1182   -1.5672   23.1165 C   0  0  0  0  0  0  0  0  0  0  0  0
    1.0552   -9.6360   17.0650 C   0  0  0  0  0  0  0  0  0  0  0  0
    3.6519   -9.1783   16.9039 C   0  0  0  0  0  0  0  0  0  0  0  0
    7.8675   -7.0096   15.9415 C   0  0  0  0  0  0  0  0  0  0  0  0
    5.9733   -9.6553   17.3832 N   0  0  0  0  0  0  0  0  0  0  0  0
   10.2411   -2.9363   23.4301 C   0  0  0  0  0  0  0  0  0  0  0  0
   10.7288   -3.8197   19.9525 C   0  0  0  0  0  0  0  0  0  0  0  0
   10.1189   -5.0054   19.6987 C   0  0  0  0  0  0  0  0  0  0  0  0
  1  3  4  0
  1  7  4  0
  2 21  4  0
  2 27  4  0
  3  9  4  0
  3 10  4  0
  4  8  4  0
  4 18  4  0
  4 25  1  0
  5  9  4  0
  5 12  4  0
  6 13  1  0
  6 27  1  0
  7 28  4  0
  8 11  4  0
  9 29  4  0
 10 12  4  0
 11 24  1  0
 11 26  4  0
 12 25  1  0
 13 28  1  0
 14 20  4  0
 14 23  4  0
 15 17  4  0
 15 21  4  0
 16 19  4  0
 16 23  4  0
 17 22  4  0
 18 26  4  0
 19 24  4  0
 20 24  4  0
 22 27  4  0
 28 29  4  0
M  END
$$$$

 Created by Python create_sdf_string function

 29 33  0  0  0  0  0  0  0  0999 V2000
   10.7215   -3.3326   17.6437 C   0  0  0  0  0  0  0  0  0  0  0  0
    9.9489   -3.4675   24.6487 N   0  0  0  0  0  0  0  0  0  0  0  0
   10.0172   -4.4740   17.4101 C   0  0  0  0  0  0  0  0  0  0  0  0
    6.9051   -7.9575   16.4222 C   0  0  0  0  0  0  0  0  0  0  0  0
    8.9969   -6.3552   17.9668 N   0  0  0  0  0  0  0  0  0  0  0  0
   10.6702   -3.9051   22.4070 C   0  0  0  0  0  0  0  0  0  0  0  0
   11.0625   -3.0028   18.8894 C   0  0  0  0  0  0  0  0  0  0  0  0
    5.6180   -7.9194   16.1754 O   0  0  0  0  0  0  0  0  0  0  0  0
    9.7259   -5.3080   18.4485 C   0  0  0  0  0  0  0  0  0  0  0  0
    9.4578   -5.0200   16.3036 N   0  0  0  0  0  0  0  0  0  0  0  0
    5.0287   -8.9365   16.8223 C   0  0  0  0  0  0  0  0  0  0  0  0
    8.7742   -6.1498   16.6764 C   0  0  0  0  0  0  0  0  0  0  0  0
   10.9418   -3.4032   21.2053 O   0  0  0  0  0  0  0  0  0  0  0  0
    1.4797   -8.6258   16.2950 C   0  0  0  0  0  0  0  0  0  0  0  0
    9.2861   -1.2743   25.3585 C   0  0  0  0  0  0  0  0  0  0  0  0
    1.8892  -10.3985   17.7511 N   0  0  0  0  0  0  0  0  0  0  0  0
    9.6210   -0.6952   24.0976 C   0  0  0  0  0  0  0  0  0  0  0  0
    7.0792   -9.0217   17.1429 C   0  0  0  0  0  0  0  0  0  0  0  0
    3.1713  -10.1816   17.6634 C   0  0  0  0  0  0  0  0  0  0  0  0
    2.7878   -8.3822   16.2137 C   0  0  0  0  0  0  0  0  0  0  0  0
    9.4601   -2.6590   25.6528 C   0  0  0  0  0  0  0  0  0  0  0  0
   10.1182   -1.5672   23.1165 C   0  0  0  0  0  0  0  0  0  0  0  0
    1.0552   -9.6360   17.0650 C   0  0  0  0  0  0  0  0  0  0  0  0
    3.6519   -9.1783   16.9039 C   0  0  0  0  0  0  0  0  0  0  0  0
    7.8675   -7.0096   15.9415 C   0  0  0  0  0  0  0  0  0  0  0  0
    5.9733   -9.6553   17.3832 N   0  0  0  0  0  0  0  0  0  0  0  0
   10.2411   -2.9363   23.4301 C   0  0  0  0  0  0  0  0  0  0  0  0
   10.7288   -3.8197   19.9525 C   0  0  0  0  0  0  0  0  0  0  0  0
   10.1189   -5.0054   19.6987 C   0  0  0  0  0  0  0  0  0  0  0  0
  1  3  4  0
  1  7  4  0
  2 21  4  0
  2 27  4  0
  3  9  4  0
  3 10  4  0
  4  8  4  0
  4 18  4  0
  4 25  1  0
  5  9  4  0
  5 12  4  0
  6 13  1  0
  6 27  1  0
  7 28  4  0
  8 11  4  0
  9 29  4  0
 10 12  4  0
 11 24  1  0
 11 26  4  0
 12 25  1  0
 13 28  1  0
 14 20  4  0
 14 23  4  0
 15 17  4  0
 15 21  4  0
 16 19  4  0
 16 23  4  0
 17 22  4  0
 18 26  4  0
 19 24  4  0
 20 24  4  0
 22 27  4  0
 28 29  4  0
M  END
$$$$

 Created by Python create_sdf_string function

 29 33  0  0  0  0  0  0  0  0999 V2000
   10.7215   -3.3326   17.6437 C   0  0  0  0  0  0  0  0  0  0  0  0
    9.9489   -3.4675   24.6487 N   0  0  0  0  0  0  0  0  0  0  0  0
   10.0172   -4.4740   17.4101 C   0  0  0  0  0  0  0  0  0  0  0  0
    6.9051   -7.9575   16.4222 C   0  0  0  0  0  0  0  0  0  0  0  0
    8.9969   -6.3552   17.9668 N   0  0  0  0  0  0  0  0  0  0  0  0
   10.6702   -3.9051   22.4070 C   0  0  0  0  0  0  0  0  0  0  0  0
   11.0625   -3.0028   18.8894 C   0  0  0  0  0  0  0  0  0  0  0  0
    5.6180   -7.9194   16.1754 O   0  0  0  0  0  0  0  0  0  0  0  0
    9.7259   -5.3080   18.4485 C   0  0  0  0  0  0  0  0  0  0  0  0
    9.4578   -5.0200   16.3036 N   0  0  0  0  0  0  0  0  0  0  0  0
    5.0287   -8.9365   16.8223 C   0  0  0  0  0  0  0  0  0  0  0  0
    8.7742   -6.1498   16.6764 C   0  0  0  0  0  0  0  0  0  0  0  0
   10.9418   -3.4032   21.2053 O   0  0  0  0  0  0  0  0  0  0  0  0
    1.4797   -8.6258   16.2950 C   0  0  0  0  0  0  0  0  0  0  0  0
    9.2861   -1.2743   25.3585 C   0  0  0  0  0  0  0  0  0  0  0  0
    1.8892  -10.3985   17.7511 N   0  0  0  0  0  0  0  0  0  0  0  0
    9.6210   -0.6952   24.0976 C   0  0  0  0  0  0  0  0  0  0  0  0
    7.0792   -9.0217   17.1429 C   0  0  0  0  0  0  0  0  0  0  0  0
    3.1713  -10.1816   17.6634 C   0  0  0  0  0  0  0  0  0  0  0  0
    2.7878   -8.3822   16.2137 C   0  0  0  0  0  0  0  0  0  0  0  0
    9.4601   -2.6590   25.6528 C   0  0  0  0  0  0  0  0  0  0  0  0
   10.1182   -1.5672   23.1165 C   0  0  0  0  0  0  0  0  0  0  0  0
    1.0552   -9.6360   17.0650 C   0  0  0  0  0  0  0  0  0  0  0  0
    3.6519   -9.1783   16.9039 C   0  0  0  0  0  0  0  0  0  0  0  0
    7.8675   -7.0096   15.9415 C   0  0  0  0  0  0  0  0  0  0  0  0
    5.9733   -9.6553   17.3832 N   0  0  0  0  0  0  0  0  0  0  0  0
   10.2411   -2.9363   23.4301 C   0  0  0  0  0  0  0  0  0  0  0  0
   10.7288   -3.8197   19.9525 C   0  0  0  0  0  0  0  0  0  0  0  0
   10.1189   -5.0054   19.6987 C   0  0  0  0  0  0  0  0  0  0  0  0
  1  3  4  0
  1  7  4  0
  2 21  4  0
  2 27  4  0
  3  9  4  0
  3 10  4  0
  4  8  4  0
  4 18  4  0
  4 25  1  0
  5  9  4  0
  5 12  4  0
  6 13  1  0
  6 27  1  0
  7 28  4  0
  8 11  4  0
  9 29  4  0
 10 12  4  0
 11 24  1  0
 11 26  4  0
 12 25  1  0
 13 28  1  0
 14 20  4  0
 14 23  4  0
 15 17  4  0
 15 21  4  0
 16 19  4  0
 16 23  4  0
 17 22  4  0
 18 26  4  0
 19 24  4  0
 20 24  4  0
 22 27  4  0
 28 29  4  0
M  END
$$$$

 Created by Python create_sdf_string function

 29 33  0  0  0  0  0  0  0  0999 V2000
   10.7215   -3.3326   17.6437 C   0  0  0  0  0  0  0  0  0  0  0  0
    9.9489   -3.4675   24.6487 N   0  0  0  0  0  0  0  0  0  0  0  0
   10.0172   -4.4740   17.4101 C   0  0  0  0  0  0  0  0  0  0  0  0
    6.9051   -7.9575   16.4222 C   0  0  0  0  0  0  0  0  0  0  0  0
    8.9969   -6.3552   17.9668 N   0  0  0  0  0  0  0  0  0  0  0  0
   10.6702   -3.9051   22.4070 C   0  0  0  0  0  0  0  0  0  0  0  0
   11.0625   -3.0028   18.8894 C   0  0  0  0  0  0  0  0  0  0  0  0
    5.6180   -7.9194   16.1754 O   0  0  0  0  0  0  0  0  0  0  0  0
    9.7259   -5.3080   18.4485 C   0  0  0  0  0  0  0  0  0  0  0  0
    9.4578   -5.0200   16.3036 N   0  0  0  0  0  0  0  0  0  0  0  0
    5.0287   -8.9365   16.8223 C   0  0  0  0  0  0  0  0  0  0  0  0
    8.7742   -6.1498   16.6764 C   0  0  0  0  0  0  0  0  0  0  0  0
   10.9418   -3.4032   21.2053 O   0  0  0  0  0  0  0  0  0  0  0  0
    1.4797   -8.6258   16.2950 C   0  0  0  0  0  0  0  0  0  0  0  0
    9.2861   -1.2743   25.3585 C   0  0  0  0  0  0  0  0  0  0  0  0
    1.8892  -10.3985   17.7511 N   0  0  0  0  0  0  0  0  0  0  0  0
    9.6210   -0.6952   24.0976 C   0  0  0  0  0  0  0  0  0  0  0  0
    7.0792   -9.0217   17.1429 C   0  0  0  0  0  0  0  0  0  0  0  0
    3.1713  -10.1816   17.6634 C   0  0  0  0  0  0  0  0  0  0  0  0
    2.7878   -8.3822   16.2137 C   0  0  0  0  0  0  0  0  0  0  0  0
    9.4601   -2.6590   25.6528 C   0  0  0  0  0  0  0  0  0  0  0  0
   10.1182   -1.5672   23.1165 C   0  0  0  0  0  0  0  0  0  0  0  0
    1.0552   -9.6360   17.0650 C   0  0  0  0  0  0  0  0  0  0  0  0
    3.6519   -9.1783   16.9039 C   0  0  0  0  0  0  0  0  0  0  0  0
    7.8675   -7.0096   15.9415 C   0  0  0  0  0  0  0  0  0  0  0  0
    5.9733   -9.6553   17.3832 N   0  0  0  0  0  0  0  0  0  0  0  0
   10.2411   -2.9363   23.4301 C   0  0  0  0  0  0  0  0  0  0  0  0
   10.7288   -3.8197   19.9525 C   0  0  0  0  0  0  0  0  0  0  0  0
   10.1189   -5.0054   19.6987 C   0  0  0  0  0  0  0  0  0  0  0  0
  1  3  4  0
  1  7  4  0
  2 21  4  0
  2 27  4  0
  3  9  4  0
  3 10  4  0
  4  8  4  0
  4 18  4  0
  4 25  1  0
  5  9  4  0
  5 12  4  0
  6 13  1  0
  6 27  1  0
  7 28  4  0
  8 11  4  0
  9 29  4  0
 10 12  4  0
 11 24  1  0
 11 26  4  0
 12 25  1  0
 13 28  1  0
 14 20  4  0
 14 23  4  0
 15 17  4  0
 15 21  4  0
 16 19  4  0
 16 23  4  0
 17 22  4  0
 18 26  4  0
 19 24  4  0
 20 24  4  0
 22 27  4  0
 28 29  4  0
M  END
$$$$

 Created by Python create_sdf_string function

 29 33  0  0  0  0  0  0  0  0999 V2000
   10.7215   -3.3326   17.6437 C   0  0  0  0  0  0  0  0  0  0  0  0
    9.9489   -3.4675   24.6487 N   0  0  0  0  0  0  0  0  0  0  0  0
   10.0172   -4.4740   17.4101 C   0  0  0  0  0  0  0  0  0  0  0  0
    6.9051   -7.9575   16.4222 C   0  0  0  0  0  0  0  0  0  0  0  0
    8.9969   -6.3552   17.9668 N   0  0  0  0  0  0  0  0  0  0  0  0
   10.6702   -3.9051   22.4070 C   0  0  0  0  0  0  0  0  0  0  0  0
   11.0625   -3.0028   18.8894 C   0  0  0  0  0  0  0  0  0  0  0  0
    5.6180   -7.9194   16.1754 O   0  0  0  0  0  0  0  0  0  0  0  0
    9.7259   -5.3080   18.4485 C   0  0  0  0  0  0  0  0  0  0  0  0
    9.4578   -5.0200   16.3036 N   0  0  0  0  0  0  0  0  0  0  0  0
    5.0287   -8.9365   16.8223 C   0  0  0  0  0  0  0  0  0  0  0  0
    8.7742   -6.1498   16.6764 C   0  0  0  0  0  0  0  0  0  0  0  0
   10.9418   -3.4032   21.2053 O   0  0  0  0  0  0  0  0  0  0  0  0
    1.4797   -8.6258   16.2950 C   0  0  0  0  0  0  0  0  0  0  0  0
    9.2861   -1.2743   25.3585 C   0  0  0  0  0  0  0  0  0  0  0  0
    1.8892  -10.3985   17.7511 N   0  0  0  0  0  0  0  0  0  0  0  0
    9.6210   -0.6952   24.0976 C   0  0  0  0  0  0  0  0  0  0  0  0
    7.0792   -9.0217   17.1429 C   0  0  0  0  0  0  0  0  0  0  0  0
    3.1713  -10.1816   17.6634 C   0  0  0  0  0  0  0  0  0  0  0  0
    2.7878   -8.3822   16.2137 C   0  0  0  0  0  0  0  0  0  0  0  0
    9.4601   -2.6590   25.6528 C   0  0  0  0  0  0  0  0  0  0  0  0
   10.1182   -1.5672   23.1165 C   0  0  0  0  0  0  0  0  0  0  0  0
    1.0552   -9.6360   17.0650 C   0  0  0  0  0  0  0  0  0  0  0  0
    3.6519   -9.1783   16.9039 C   0  0  0  0  0  0  0  0  0  0  0  0
    7.8675   -7.0096   15.9415 C   0  0  0  0  0  0  0  0  0  0  0  0
    5.9733   -9.6553   17.3832 N   0  0  0  0  0  0  0  0  0  0  0  0
   10.2411   -2.9363   23.4301 C   0  0  0  0  0  0  0  0  0  0  0  0
   10.7288   -3.8197   19.9525 C   0  0  0  0  0  0  0  0  0  0  0  0
   10.1189   -5.0054   19.6987 C   0  0  0  0  0  0  0  0  0  0  0  0
  1  3  4  0
  1  7  4  0
  2 21  4  0
  2 27  4  0
  3  9  4  0
  3 10  4  0
  4  8  4  0
  4 18  4  0
  4 25  1  0
  5  9  4  0
  5 12  4  0
  6 13  1  0
  6 27  1  0
  7 28  4  0
  8 11  4  0
  9 29  4  0
 10 12  4  0
 11 24  1  0
 11 26  4  0
 12 25  1  0
 13 28  1  0
 14 20  4  0
 14 23  4  0
 15 17  4  0
 15 21  4  0
 16 19  4  0
 16 23  4  0
 17 22  4  0
 18 26  4  0
 19 24  4  0
 20 24  4  0
 22 27  4  0
 28 29  4  0
M  END
$$$$

 Created by Python create_sdf_string function

 29 33  0  0  0  0  0  0  0  0999 V2000
   10.7215   -3.3326   17.6437 C   0  0  0  0  0  0  0  0  0  0  0  0
    9.9489   -3.4675   24.6487 N   0  0  0  0  0  0  0  0  0  0  0  0
   10.0172   -4.4740   17.4101 C   0  0  0  0  0  0  0  0  0  0  0  0
    6.9051   -7.9575   16.4222 C   0  0  0  0  0  0  0  0  0  0  0  0
    8.9969   -6.3552   17.9668 N   0  0  0  0  0  0  0  0  0  0  0  0
   10.6702   -3.9051   22.4070 C   0  0  0  0  0  0  0  0  0  0  0  0
   11.0625   -3.0028   18.8894 C   0  0  0  0  0  0  0  0  0  0  0  0
    5.6180   -7.9194   16.1754 O   0  0  0  0  0  0  0  0  0  0  0  0
    9.7259   -5.3080   18.4485 C   0  0  0  0  0  0  0  0  0  0  0  0
    9.4578   -5.0200   16.3036 N   0  0  0  0  0  0  0  0  0  0  0  0
    5.0287   -8.9365   16.8223 C   0  0  0  0  0  0  0  0  0  0  0  0
    8.7742   -6.1498   16.6764 C   0  0  0  0  0  0  0  0  0  0  0  0
   10.9418   -3.4032   21.2053 O   0  0  0  0  0  0  0  0  0  0  0  0
    1.4797   -8.6258   16.2950 C   0  0  0  0  0  0  0  0  0  0  0  0
    9.2861   -1.2743   25.3585 C   0  0  0  0  0  0  0  0  0  0  0  0
    1.8892  -10.3985   17.7511 N   0  0  0  0  0  0  0  0  0  0  0  0
    9.6210   -0.6952   24.0976 C   0  0  0  0  0  0  0  0  0  0  0  0
    7.0792   -9.0217   17.1429 C   0  0  0  0  0  0  0  0  0  0  0  0
    3.1713  -10.1816   17.6634 C   0  0  0  0  0  0  0  0  0  0  0  0
    2.7878   -8.3822   16.2137 C   0  0  0  0  0  0  0  0  0  0  0  0
    9.4601   -2.6590   25.6528 C   0  0  0  0  0  0  0  0  0  0  0  0
   10.1182   -1.5672   23.1165 C   0  0  0  0  0  0  0  0  0  0  0  0
    1.0552   -9.6360   17.0650 C   0  0  0  0  0  0  0  0  0  0  0  0
    3.6519   -9.1783   16.9039 C   0  0  0  0  0  0  0  0  0  0  0  0
    7.8675   -7.0096   15.9415 C   0  0  0  0  0  0  0  0  0  0  0  0
    5.9733   -9.6553   17.3832 N   0  0  0  0  0  0  0  0  0  0  0  0
   10.2411   -2.9363   23.4301 C   0  0  0  0  0  0  0  0  0  0  0  0
   10.7288   -3.8197   19.9525 C   0  0  0  0  0  0  0  0  0  0  0  0
   10.1189   -5.0054   19.6987 C   0  0  0  0  0  0  0  0  0  0  0  0
  1  3  4  0
  1  7  4  0
  2 21  4  0
  2 27  4  0
  3  9  4  0
  3 10  4  0
  4  8  4  0
  4 18  4  0
  4 25  1  0
  5  9  4  0
  5 12  4  0
  6 13  1  0
  6 27  1  0
  7 28  4  0
  8 11  4  0
  9 29  4  0
 10 12  4  0
 11 24  1  0
 11 26  4  0
 12 25  1  0
 13 28  1  0
 14 20  4  0
 14 23  4  0
 15 17  4  0
 15 21  4  0
 16 19  4  0
 16 23  4  0
 17 22  4  0
 18 26  4  0
 19 24  4  0
 20 24  4  0
 22 27  4  0
 28 29  4  0
M  END
$$$$

 Created by Python create_sdf_string function

 29 33  0  0  0  0  0  0  0  0999 V2000
   10.7215   -3.3326   17.6437 C   0  0  0  0  0  0  0  0  0  0  0  0
    9.9489   -3.4675   24.6487 N   0  0  0  0  0  0  0  0  0  0  0  0
   10.0172   -4.4740   17.4101 C   0  0  0  0  0  0  0  0  0  0  0  0
    6.9051   -7.9575   16.4222 C   0  0  0  0  0  0  0  0  0  0  0  0
    8.9969   -6.3552   17.9668 N   0  0  0  0  0  0  0  0  0  0  0  0
   10.6702   -3.9051   22.4070 C   0  0  0  0  0  0  0  0  0  0  0  0
   11.0625   -3.0028   18.8894 C   0  0  0  0  0  0  0  0  0  0  0  0
    5.6180   -7.9194   16.1754 O   0  0  0  0  0  0  0  0  0  0  0  0
    9.7259   -5.3080   18.4485 C   0  0  0  0  0  0  0  0  0  0  0  0
    9.4578   -5.0200   16.3036 N   0  0  0  0  0  0  0  0  0  0  0  0
    5.0287   -8.9365   16.8223 C   0  0  0  0  0  0  0  0  0  0  0  0
    8.7742   -6.1498   16.6764 C   0  0  0  0  0  0  0  0  0  0  0  0
   10.9418   -3.4032   21.2053 O   0  0  0  0  0  0  0  0  0  0  0  0
    1.4797   -8.6258   16.2950 C   0  0  0  0  0  0  0  0  0  0  0  0
    9.2861   -1.2743   25.3585 C   0  0  0  0  0  0  0  0  0  0  0  0
    1.8892  -10.3985   17.7511 N   0  0  0  0  0  0  0  0  0  0  0  0
    9.6210   -0.6952   24.0976 C   0  0  0  0  0  0  0  0  0  0  0  0
    7.0792   -9.0217   17.1429 C   0  0  0  0  0  0  0  0  0  0  0  0
    3.1713  -10.1816   17.6634 C   0  0  0  0  0  0  0  0  0  0  0  0
    2.7878   -8.3822   16.2137 C   0  0  0  0  0  0  0  0  0  0  0  0
    9.4601   -2.6590   25.6528 C   0  0  0  0  0  0  0  0  0  0  0  0
   10.1182   -1.5672   23.1165 C   0  0  0  0  0  0  0  0  0  0  0  0
    1.0552   -9.6360   17.0650 C   0  0  0  0  0  0  0  0  0  0  0  0
    3.6519   -9.1783   16.9039 C   0  0  0  0  0  0  0  0  0  0  0  0
    7.8675   -7.0096   15.9415 C   0  0  0  0  0  0  0  0  0  0  0  0
    5.9733   -9.6553   17.3832 N   0  0  0  0  0  0  0  0  0  0  0  0
   10.2411   -2.9363   23.4301 C   0  0  0  0  0  0  0  0  0  0  0  0
   10.7288   -3.8197   19.9525 C   0  0  0  0  0  0  0  0  0  0  0  0
   10.1189   -5.0054   19.6987 C   0  0  0  0  0  0  0  0  0  0  0  0
  1  3  4  0
  1  7  4  0
  2 21  4  0
  2 27  4  0
  3  9  4  0
  3 10  4  0
  4  8  4  0
  4 18  4  0
  4 25  1  0
  5  9  4  0
  5 12  4  0
  6 13  1  0
  6 27  1  0
  7 28  4  0
  8 11  4  0
  9 29  4  0
 10 12  4  0
 11 24  1  0
 11 26  4  0
 12 25  1  0
 13 28  1  0
 14 20  4  0
 14 23  4  0
 15 17  4  0
 15 21  4  0
 16 19  4  0
 16 23  4  0
 17 22  4  0
 18 26  4  0
 19 24  4  0
 20 24  4  0
 22 27  4  0
 28 29  4  0
M  END
$$$$

 Created by Python create_sdf_string function

 29 33  0  0  0  0  0  0  0  0999 V2000
   10.7215   -3.3326   17.6437 C   0  0  0  0  0  0  0  0  0  0  0  0
    9.9489   -3.4675   24.6487 N   0  0  0  0  0  0  0  0  0  0  0  0
   10.0172   -4.4740   17.4101 C   0  0  0  0  0  0  0  0  0  0  0  0
    6.9051   -7.9575   16.4222 C   0  0  0  0  0  0  0  0  0  0  0  0
    8.9969   -6.3552   17.9668 N   0  0  0  0  0  0  0  0  0  0  0  0
   10.6702   -3.9051   22.4070 C   0  0  0  0  0  0  0  0  0  0  0  0
   11.0625   -3.0028   18.8894 C   0  0  0  0  0  0  0  0  0  0  0  0
    5.6180   -7.9194   16.1754 O   0  0  0  0  0  0  0  0  0  0  0  0
    9.7259   -5.3080   18.4485 C   0  0  0  0  0  0  0  0  0  0  0  0
    9.4578   -5.0200   16.3036 N   0  0  0  0  0  0  0  0  0  0  0  0
    5.0287   -8.9365   16.8223 C   0  0  0  0  0  0  0  0  0  0  0  0
    8.7742   -6.1498   16.6764 C   0  0  0  0  0  0  0  0  0  0  0  0
   10.9418   -3.4032   21.2053 O   0  0  0  0  0  0  0  0  0  0  0  0
    1.4797   -8.6258   16.2950 C   0  0  0  0  0  0  0  0  0  0  0  0
    9.2861   -1.2743   25.3585 C   0  0  0  0  0  0  0  0  0  0  0  0
    1.8892  -10.3985   17.7511 N   0  0  0  0  0  0  0  0  0  0  0  0
    9.6210   -0.6952   24.0976 C   0  0  0  0  0  0  0  0  0  0  0  0
    7.0792   -9.0217   17.1429 C   0  0  0  0  0  0  0  0  0  0  0  0
    3.1713  -10.1816   17.6634 C   0  0  0  0  0  0  0  0  0  0  0  0
    2.7878   -8.3822   16.2137 C   0  0  0  0  0  0  0  0  0  0  0  0
    9.4601   -2.6590   25.6528 C   0  0  0  0  0  0  0  0  0  0  0  0
   10.1182   -1.5672   23.1165 C   0  0  0  0  0  0  0  0  0  0  0  0
    1.0552   -9.6360   17.0650 C   0  0  0  0  0  0  0  0  0  0  0  0
    3.6519   -9.1783   16.9039 C   0  0  0  0  0  0  0  0  0  0  0  0
    7.8675   -7.0096   15.9415 C   0  0  0  0  0  0  0  0  0  0  0  0
    5.9733   -9.6553   17.3832 N   0  0  0  0  0  0  0  0  0  0  0  0
   10.2411   -2.9363   23.4301 C   0  0  0  0  0  0  0  0  0  0  0  0
   10.7288   -3.8197   19.9525 C   0  0  0  0  0  0  0  0  0  0  0  0
   10.1189   -5.0054   19.6987 C   0  0  0  0  0  0  0  0  0  0  0  0
  1  3  4  0
  1  7  4  0
  2 21  4  0
  2 27  4  0
  3  9  4  0
  3 10  4  0
  4  8  4  0
  4 18  4  0
  4 25  1  0
  5  9  4  0
  5 12  4  0
  6 13  1  0
  6 27  1  0
  7 28  4  0
  8 11  4  0
  9 29  4  0
 10 12  4  0
 11 24  1  0
 11 26  4  0
 12 25  1  0
 13 28  1  0
 14 20  4  0
 14 23  4  0
 15 17  4  0
 15 21  4  0
 16 19  4  0
 16 23  4  0
 17 22  4  0
 18 26  4  0
 19 24  4  0
 20 24  4  0
 22 27  4  0
 28 29  4  0
M  END
$$$$

 Created by Python create_sdf_string function

 29 33  0  0  0  0  0  0  0  0999 V2000
   10.7215   -3.3326   17.6437 C   0  0  0  0  0  0  0  0  0  0  0  0
    9.9489   -3.4675   24.6487 N   0  0  0  0  0  0  0  0  0  0  0  0
   10.0172   -4.4740   17.4101 C   0  0  0  0  0  0  0  0  0  0  0  0
    6.9051   -7.9575   16.4222 C   0  0  0  0  0  0  0  0  0  0  0  0
    8.9969   -6.3552   17.9668 N   0  0  0  0  0  0  0  0  0  0  0  0
   10.6702   -3.9051   22.4070 C   0  0  0  0  0  0  0  0  0  0  0  0
   11.0625   -3.0028   18.8894 C   0  0  0  0  0  0  0  0  0  0  0  0
    5.6180   -7.9194   16.1754 O   0  0  0  0  0  0  0  0  0  0  0  0
    9.7259   -5.3080   18.4485 C   0  0  0  0  0  0  0  0  0  0  0  0
    9.4578   -5.0200   16.3036 N   0  0  0  0  0  0  0  0  0  0  0  0
    5.0287   -8.9365   16.8223 C   0  0  0  0  0  0  0  0  0  0  0  0
    8.7742   -6.1498   16.6764 C   0  0  0  0  0  0  0  0  0  0  0  0
   10.9418   -3.4032   21.2053 O   0  0  0  0  0  0  0  0  0  0  0  0
    1.4797   -8.6258   16.2950 C   0  0  0  0  0  0  0  0  0  0  0  0
    9.2861   -1.2743   25.3585 C   0  0  0  0  0  0  0  0  0  0  0  0
    1.8892  -10.3985   17.7511 N   0  0  0  0  0  0  0  0  0  0  0  0
    9.6210   -0.6952   24.0976 C   0  0  0  0  0  0  0  0  0  0  0  0
    7.0792   -9.0217   17.1429 C   0  0  0  0  0  0  0  0  0  0  0  0
    3.1713  -10.1816   17.6634 C   0  0  0  0  0  0  0  0  0  0  0  0
    2.7878   -8.3822   16.2137 C   0  0  0  0  0  0  0  0  0  0  0  0
    9.4601   -2.6590   25.6528 C   0  0  0  0  0  0  0  0  0  0  0  0
   10.1182   -1.5672   23.1165 C   0  0  0  0  0  0  0  0  0  0  0  0
    1.0552   -9.6360   17.0650 C   0  0  0  0  0  0  0  0  0  0  0  0
    3.6519   -9.1783   16.9039 C   0  0  0  0  0  0  0  0  0  0  0  0
    7.8675   -7.0096   15.9415 C   0  0  0  0  0  0  0  0  0  0  0  0
    5.9733   -9.6553   17.3832 N   0  0  0  0  0  0  0  0  0  0  0  0
   10.2411   -2.9363   23.4301 C   0  0  0  0  0  0  0  0  0  0  0  0
   10.7288   -3.8197   19.9525 C   0  0  0  0  0  0  0  0  0  0  0  0
   10.1189   -5.0054   19.6987 C   0  0  0  0  0  0  0  0  0  0  0  0
  1  3  4  0
  1  7  4  0
  2 21  4  0
  2 27  4  0
  3  9  4  0
  3 10  4  0
  4  8  4  0
  4 18  4  0
  4 25  1  0
  5  9  4  0
  5 12  4  0
  6 13  1  0
  6 27  1  0
  7 28  4  0
  8 11  4  0
  9 29  4  0
 10 12  4  0
 11 24  1  0
 11 26  4  0
 12 25  1  0
 13 28  1  0
 14 20  4  0
 14 23  4  0
 15 17  4  0
 15 21  4  0
 16 19  4  0
 16 23  4  0
 17 22  4  0
 18 26  4  0
 19 24  4  0
 20 24  4  0
 22 27  4  0
 28 29  4  0
M  END
$$$$

 Created by Python create_sdf_string function

 29 33  0  0  0  0  0  0  0  0999 V2000
   10.7215   -3.3326   17.6437 C   0  0  0  0  0  0  0  0  0  0  0  0
    9.9489   -3.4675   24.6487 N   0  0  0  0  0  0  0  0  0  0  0  0
   10.0172   -4.4740   17.4101 C   0  0  0  0  0  0  0  0  0  0  0  0
    6.9051   -7.9575   16.4222 C   0  0  0  0  0  0  0  0  0  0  0  0
    8.9969   -6.3552   17.9668 N   0  0  0  0  0  0  0  0  0  0  0  0
   10.6702   -3.9051   22.4070 C   0  0  0  0  0  0  0  0  0  0  0  0
   11.0625   -3.0028   18.8894 C   0  0  0  0  0  0  0  0  0  0  0  0
    5.6180   -7.9194   16.1754 O   0  0  0  0  0  0  0  0  0  0  0  0
    9.7259   -5.3080   18.4485 C   0  0  0  0  0  0  0  0  0  0  0  0
    9.4578   -5.0200   16.3036 N   0  0  0  0  0  0  0  0  0  0  0  0
    5.0287   -8.9365   16.8223 C   0  0  0  0  0  0  0  0  0  0  0  0
    8.7742   -6.1498   16.6764 C   0  0  0  0  0  0  0  0  0  0  0  0
   10.9418   -3.4032   21.2053 O   0  0  0  0  0  0  0  0  0  0  0  0
    1.4797   -8.6258   16.2950 C   0  0  0  0  0  0  0  0  0  0  0  0
    9.2861   -1.2743   25.3585 C   0  0  0  0  0  0  0  0  0  0  0  0
    1.8892  -10.3985   17.7511 N   0  0  0  0  0  0  0  0  0  0  0  0
    9.6210   -0.6952   24.0976 C   0  0  0  0  0  0  0  0  0  0  0  0
    7.0792   -9.0217   17.1429 C   0  0  0  0  0  0  0  0  0  0  0  0
    3.1713  -10.1816   17.6634 C   0  0  0  0  0  0  0  0  0  0  0  0
    2.7878   -8.3822   16.2137 C   0  0  0  0  0  0  0  0  0  0  0  0
    9.4601   -2.6590   25.6528 C   0  0  0  0  0  0  0  0  0  0  0  0
   10.1182   -1.5672   23.1165 C   0  0  0  0  0  0  0  0  0  0  0  0
    1.0552   -9.6360   17.0650 C   0  0  0  0  0  0  0  0  0  0  0  0
    3.6519   -9.1783   16.9039 C   0  0  0  0  0  0  0  0  0  0  0  0
    7.8675   -7.0096   15.9415 C   0  0  0  0  0  0  0  0  0  0  0  0
    5.9733   -9.6553   17.3832 N   0  0  0  0  0  0  0  0  0  0  0  0
   10.2411   -2.9363   23.4301 C   0  0  0  0  0  0  0  0  0  0  0  0
   10.7288   -3.8197   19.9525 C   0  0  0  0  0  0  0  0  0  0  0  0
   10.1189   -5.0054   19.6987 C   0  0  0  0  0  0  0  0  0  0  0  0
  1  3  4  0
  1  7  4  0
  2 21  4  0
  2 27  4  0
  3  9  4  0
  3 10  4  0
  4  8  4  0
  4 18  4  0
  4 25  1  0
  5  9  4  0
  5 12  4  0
  6 13  1  0
  6 27  1  0
  7 28  4  0
  8 11  4  0
  9 29  4  0
 10 12  4  0
 11 24  1  0
 11 26  4  0
 12 25  1  0
 13 28  1  0
 14 20  4  0
 14 23  4  0
 15 17  4  0
 15 21  4  0
 16 19  4  0
 16 23  4  0
 17 22  4  0
 18 26  4  0
 19 24  4  0
 20 24  4  0
 22 27  4  0
 28 29  4  0
M  END
$$$$

 Created by Python create_sdf_string function

 29 33  0  0  0  0  0  0  0  0999 V2000
   10.7215   -3.3326   17.6437 C   0  0  0  0  0  0  0  0  0  0  0  0
    9.9489   -3.4675   24.6487 N   0  0  0  0  0  0  0  0  0  0  0  0
   10.0172   -4.4740   17.4101 C   0  0  0  0  0  0  0  0  0  0  0  0
    6.9051   -7.9575   16.4222 C   0  0  0  0  0  0  0  0  0  0  0  0
    8.9969   -6.3552   17.9668 N   0  0  0  0  0  0  0  0  0  0  0  0
   10.6702   -3.9051   22.4070 C   0  0  0  0  0  0  0  0  0  0  0  0
   11.0625   -3.0028   18.8894 C   0  0  0  0  0  0  0  0  0  0  0  0
    5.6180   -7.9194   16.1754 O   0  0  0  0  0  0  0  0  0  0  0  0
    9.7259   -5.3080   18.4485 C   0  0  0  0  0  0  0  0  0  0  0  0
    9.4578   -5.0200   16.3036 N   0  0  0  0  0  0  0  0  0  0  0  0
    5.0287   -8.9365   16.8223 C   0  0  0  0  0  0  0  0  0  0  0  0
    8.7742   -6.1498   16.6764 C   0  0  0  0  0  0  0  0  0  0  0  0
   10.9418   -3.4032   21.2053 O   0  0  0  0  0  0  0  0  0  0  0  0
    1.4797   -8.6258   16.2950 C   0  0  0  0  0  0  0  0  0  0  0  0
    9.2861   -1.2743   25.3585 C   0  0  0  0  0  0  0  0  0  0  0  0
    1.8892  -10.3985   17.7511 N   0  0  0  0  0  0  0  0  0  0  0  0
    9.6210   -0.6952   24.0976 C   0  0  0  0  0  0  0  0  0  0  0  0
    7.0792   -9.0217   17.1429 C   0  0  0  0  0  0  0  0  0  0  0  0
    3.1713  -10.1816   17.6634 C   0  0  0  0  0  0  0  0  0  0  0  0
    2.7878   -8.3822   16.2137 C   0  0  0  0  0  0  0  0  0  0  0  0
    9.4601   -2.6590   25.6528 C   0  0  0  0  0  0  0  0  0  0  0  0
   10.1182   -1.5672   23.1165 C   0  0  0  0  0  0  0  0  0  0  0  0
    1.0552   -9.6360   17.0650 C   0  0  0  0  0  0  0  0  0  0  0  0
    3.6519   -9.1783   16.9039 C   0  0  0  0  0  0  0  0  0  0  0  0
    7.8675   -7.0096   15.9415 C   0  0  0  0  0  0  0  0  0  0  0  0
    5.9733   -9.6553   17.3832 N   0  0  0  0  0  0  0  0  0  0  0  0
   10.2411   -2.9363   23.4301 C   0  0  0  0  0  0  0  0  0  0  0  0
   10.7288   -3.8197   19.9525 C   0  0  0  0  0  0  0  0  0  0  0  0
   10.1189   -5.0054   19.6987 C   0  0  0  0  0  0  0  0  0  0  0  0
  1  3  4  0
  1  7  4  0
  2 21  4  0
  2 27  4  0
  3  9  4  0
  3 10  4  0
  4  8  4  0
  4 18  4  0
  4 25  1  0
  5  9  4  0
  5 12  4  0
  6 13  1  0
  6 27  1  0
  7 28  4  0
  8 11  4  0
  9 29  4  0
 10 12  4  0
 11 24  1  0
 11 26  4  0
 12 25  1  0
 13 28  1  0
 14 20  4  0
 14 23  4  0
 15 17  4  0
 15 21  4  0
 16 19  4  0
 16 23  4  0
 17 22  4  0
 18 26  4  0
 19 24  4  0
 20 24  4  0
 22 27  4  0
 28 29  4  0
M  END
$$$$

 Created by Python create_sdf_string function

 29 33  0  0  0  0  0  0  0  0999 V2000
   10.7215   -3.3326   17.6437 C   0  0  0  0  0  0  0  0  0  0  0  0
    9.9489   -3.4675   24.6487 N   0  0  0  0  0  0  0  0  0  0  0  0
   10.0172   -4.4740   17.4101 C   0  0  0  0  0  0  0  0  0  0  0  0
    6.9051   -7.9575   16.4222 C   0  0  0  0  0  0  0  0  0  0  0  0
    8.9969   -6.3552   17.9668 N   0  0  0  0  0  0  0  0  0  0  0  0
   10.6702   -3.9051   22.4070 C   0  0  0  0  0  0  0  0  0  0  0  0
   11.0625   -3.0028   18.8894 C   0  0  0  0  0  0  0  0  0  0  0  0
    5.6180   -7.9194   16.1754 O   0  0  0  0  0  0  0  0  0  0  0  0
    9.7259   -5.3080   18.4485 C   0  0  0  0  0  0  0  0  0  0  0  0
    9.4578   -5.0200   16.3036 N   0  0  0  0  0  0  0  0  0  0  0  0
    5.0287   -8.9365   16.8223 C   0  0  0  0  0  0  0  0  0  0  0  0
    8.7742   -6.1498   16.6764 C   0  0  0  0  0  0  0  0  0  0  0  0
   10.9418   -3.4032   21.2053 O   0  0  0  0  0  0  0  0  0  0  0  0
    1.4797   -8.6258   16.2950 C   0  0  0  0  0  0  0  0  0  0  0  0
    9.2861   -1.2743   25.3585 C   0  0  0  0  0  0  0  0  0  0  0  0
    1.8892  -10.3985   17.7511 N   0  0  0  0  0  0  0  0  0  0  0  0
    9.6210   -0.6952   24.0976 C   0  0  0  0  0  0  0  0  0  0  0  0
    7.0792   -9.0217   17.1429 C   0  0  0  0  0  0  0  0  0  0  0  0
    3.1713  -10.1816   17.6634 C   0  0  0  0  0  0  0  0  0  0  0  0
    2.7878   -8.3822   16.2137 C   0  0  0  0  0  0  0  0  0  0  0  0
    9.4601   -2.6590   25.6528 C   0  0  0  0  0  0  0  0  0  0  0  0
   10.1182   -1.5672   23.1165 C   0  0  0  0  0  0  0  0  0  0  0  0
    1.0552   -9.6360   17.0650 C   0  0  0  0  0  0  0  0  0  0  0  0
    3.6519   -9.1783   16.9039 C   0  0  0  0  0  0  0  0  0  0  0  0
    7.8675   -7.0096   15.9415 C   0  0  0  0  0  0  0  0  0  0  0  0
    5.9733   -9.6553   17.3832 N   0  0  0  0  0  0  0  0  0  0  0  0
   10.2411   -2.9363   23.4301 C   0  0  0  0  0  0  0  0  0  0  0  0
   10.7288   -3.8197   19.9525 C   0  0  0  0  0  0  0  0  0  0  0  0
   10.1189   -5.0054   19.6987 C   0  0  0  0  0  0  0  0  0  0  0  0
  1  3  4  0
  1  7  4  0
  2 21  4  0
  2 27  4  0
  3  9  4  0
  3 10  4  0
  4  8  4  0
  4 18  4  0
  4 25  1  0
  5  9  4  0
  5 12  4  0
  6 13  1  0
  6 27  1  0
  7 28  4  0
  8 11  4  0
  9 29  4  0
 10 12  4  0
 11 24  1  0
 11 26  4  0
 12 25  1  0
 13 28  1  0
 14 20  4  0
 14 23  4  0
 15 17  4  0
 15 21  4  0
 16 19  4  0
 16 23  4  0
 17 22  4  0
 18 26  4  0
 19 24  4  0
 20 24  4  0
 22 27  4  0
 28 29  4  0
M  END
$$$$

 Created by Python create_sdf_string function

 29 33  0  0  0  0  0  0  0  0999 V2000
   10.7215   -3.3326   17.6437 C   0  0  0  0  0  0  0  0  0  0  0  0
    9.9489   -3.4675   24.6487 N   0  0  0  0  0  0  0  0  0  0  0  0
   10.0172   -4.4740   17.4101 C   0  0  0  0  0  0  0  0  0  0  0  0
    6.9051   -7.9575   16.4222 C   0  0  0  0  0  0  0  0  0  0  0  0
    8.9969   -6.3552   17.9668 N   0  0  0  0  0  0  0  0  0  0  0  0
   10.6702   -3.9051   22.4070 C   0  0  0  0  0  0  0  0  0  0  0  0
   11.0625   -3.0028   18.8894 C   0  0  0  0  0  0  0  0  0  0  0  0
    5.6180   -7.9194   16.1754 O   0  0  0  0  0  0  0  0  0  0  0  0
    9.7259   -5.3080   18.4485 C   0  0  0  0  0  0  0  0  0  0  0  0
    9.4578   -5.0200   16.3036 N   0  0  0  0  0  0  0  0  0  0  0  0
    5.0287   -8.9365   16.8223 C   0  0  0  0  0  0  0  0  0  0  0  0
    8.7742   -6.1498   16.6764 C   0  0  0  0  0  0  0  0  0  0  0  0
   10.9418   -3.4032   21.2053 O   0  0  0  0  0  0  0  0  0  0  0  0
    1.4797   -8.6258   16.2950 C   0  0  0  0  0  0  0  0  0  0  0  0
    9.2861   -1.2743   25.3585 C   0  0  0  0  0  0  0  0  0  0  0  0
    1.8892  -10.3985   17.7511 N   0  0  0  0  0  0  0  0  0  0  0  0
    9.6210   -0.6952   24.0976 C   0  0  0  0  0  0  0  0  0  0  0  0
    7.0792   -9.0217   17.1429 C   0  0  0  0  0  0  0  0  0  0  0  0
    3.1713  -10.1816   17.6634 C   0  0  0  0  0  0  0  0  0  0  0  0
    2.7878   -8.3822   16.2137 C   0  0  0  0  0  0  0  0  0  0  0  0
    9.4601   -2.6590   25.6528 C   0  0  0  0  0  0  0  0  0  0  0  0
   10.1182   -1.5672   23.1165 C   0  0  0  0  0  0  0  0  0  0  0  0
    1.0552   -9.6360   17.0650 C   0  0  0  0  0  0  0  0  0  0  0  0
    3.6519   -9.1783   16.9039 C   0  0  0  0  0  0  0  0  0  0  0  0
    7.8675   -7.0096   15.9415 C   0  0  0  0  0  0  0  0  0  0  0  0
    5.9733   -9.6553   17.3832 N   0  0  0  0  0  0  0  0  0  0  0  0
   10.2411   -2.9363   23.4301 C   0  0  0  0  0  0  0  0  0  0  0  0
   10.7288   -3.8197   19.9525 C   0  0  0  0  0  0  0  0  0  0  0  0
   10.1189   -5.0054   19.6987 C   0  0  0  0  0  0  0  0  0  0  0  0
  1  3  4  0
  1  7  4  0
  2 21  4  0
  2 27  4  0
  3  9  4  0
  3 10  4  0
  4  8  4  0
  4 18  4  0
  4 25  1  0
  5  9  4  0
  5 12  4  0
  6 13  1  0
  6 27  1  0
  7 28  4  0
  8 11  4  0
  9 29  4  0
 10 12  4  0
 11 24  1  0
 11 26  4  0
 12 25  1  0
 13 28  1  0
 14 20  4  0
 14 23  4  0
 15 17  4  0
 15 21  4  0
 16 19  4  0
 16 23  4  0
 17 22  4  0
 18 26  4  0
 19 24  4  0
 20 24  4  0
 22 27  4  0
 28 29  4  0
M  END
$$$$

 Created by Python create_sdf_string function

 29 33  0  0  0  0  0  0  0  0999 V2000
   10.7215   -3.3326   17.6437 C   0  0  0  0  0  0  0  0  0  0  0  0
    9.9489   -3.4675   24.6487 N   0  0  0  0  0  0  0  0  0  0  0  0
   10.0172   -4.4740   17.4101 C   0  0  0  0  0  0  0  0  0  0  0  0
    6.9051   -7.9575   16.4222 C   0  0  0  0  0  0  0  0  0  0  0  0
    8.9969   -6.3552   17.9668 N   0  0  0  0  0  0  0  0  0  0  0  0
   10.6702   -3.9051   22.4070 C   0  0  0  0  0  0  0  0  0  0  0  0
   11.0625   -3.0028   18.8894 C   0  0  0  0  0  0  0  0  0  0  0  0
    5.6180   -7.9194   16.1754 O   0  0  0  0  0  0  0  0  0  0  0  0
    9.7259   -5.3080   18.4485 C   0  0  0  0  0  0  0  0  0  0  0  0
    9.4578   -5.0200   16.3036 N   0  0  0  0  0  0  0  0  0  0  0  0
    5.0287   -8.9365   16.8223 C   0  0  0  0  0  0  0  0  0  0  0  0
    8.7742   -6.1498   16.6764 C   0  0  0  0  0  0  0  0  0  0  0  0
   10.9418   -3.4032   21.2053 O   0  0  0  0  0  0  0  0  0  0  0  0
    1.4797   -8.6258   16.2950 C   0  0  0  0  0  0  0  0  0  0  0  0
    9.2861   -1.2743   25.3585 C   0  0  0  0  0  0  0  0  0  0  0  0
    1.8892  -10.3985   17.7511 N   0  0  0  0  0  0  0  0  0  0  0  0
    9.6210   -0.6952   24.0976 C   0  0  0  0  0  0  0  0  0  0  0  0
    7.0792   -9.0217   17.1429 C   0  0  0  0  0  0  0  0  0  0  0  0
    3.1713  -10.1816   17.6634 C   0  0  0  0  0  0  0  0  0  0  0  0
    2.7878   -8.3822   16.2137 C   0  0  0  0  0  0  0  0  0  0  0  0
    9.4601   -2.6590   25.6528 C   0  0  0  0  0  0  0  0  0  0  0  0
   10.1182   -1.5672   23.1165 C   0  0  0  0  0  0  0  0  0  0  0  0
    1.0552   -9.6360   17.0650 C   0  0  0  0  0  0  0  0  0  0  0  0
    3.6519   -9.1783   16.9039 C   0  0  0  0  0  0  0  0  0  0  0  0
    7.8675   -7.0096   15.9415 C   0  0  0  0  0  0  0  0  0  0  0  0
    5.9733   -9.6553   17.3832 N   0  0  0  0  0  0  0  0  0  0  0  0
   10.2411   -2.9363   23.4301 C   0  0  0  0  0  0  0  0  0  0  0  0
   10.7288   -3.8197   19.9525 C   0  0  0  0  0  0  0  0  0  0  0  0
   10.1189   -5.0054   19.6987 C   0  0  0  0  0  0  0  0  0  0  0  0
  1  3  4  0
  1  7  4  0
  2 21  4  0
  2 27  4  0
  3  9  4  0
  3 10  4  0
  4  8  4  0
  4 18  4  0
  4 25  1  0
  5  9  4  0
  5 12  4  0
  6 13  1  0
  6 27  1  0
  7 28  4  0
  8 11  4  0
  9 29  4  0
 10 12  4  0
 11 24  1  0
 11 26  4  0
 12 25  1  0
 13 28  1  0
 14 20  4  0
 14 23  4  0
 15 17  4  0
 15 21  4  0
 16 19  4  0
 16 23  4  0
 17 22  4  0
 18 26  4  0
 19 24  4  0
 20 24  4  0
 22 27  4  0
 28 29  4  0
M  END
$$$$

 Created by Python create_sdf_string function

 29 33  0  0  0  0  0  0  0  0999 V2000
   10.7215   -3.3326   17.6437 C   0  0  0  0  0  0  0  0  0  0  0  0
    9.9489   -3.4675   24.6487 N   0  0  0  0  0  0  0  0  0  0  0  0
   10.0172   -4.4740   17.4101 C   0  0  0  0  0  0  0  0  0  0  0  0
    6.9051   -7.9575   16.4222 C   0  0  0  0  0  0  0  0  0  0  0  0
    8.9969   -6.3552   17.9668 N   0  0  0  0  0  0  0  0  0  0  0  0
   10.6702   -3.9051   22.4070 C   0  0  0  0  0  0  0  0  0  0  0  0
   11.0625   -3.0028   18.8894 C   0  0  0  0  0  0  0  0  0  0  0  0
    5.6180   -7.9194   16.1754 O   0  0  0  0  0  0  0  0  0  0  0  0
    9.7259   -5.3080   18.4485 C   0  0  0  0  0  0  0  0  0  0  0  0
    9.4578   -5.0200   16.3036 N   0  0  0  0  0  0  0  0  0  0  0  0
    5.0287   -8.9365   16.8223 C   0  0  0  0  0  0  0  0  0  0  0  0
    8.7742   -6.1498   16.6764 C   0  0  0  0  0  0  0  0  0  0  0  0
   10.9418   -3.4032   21.2053 O   0  0  0  0  0  0  0  0  0  0  0  0
    1.4797   -8.6258   16.2950 C   0  0  0  0  0  0  0  0  0  0  0  0
    9.2861   -1.2743   25.3585 C   0  0  0  0  0  0  0  0  0  0  0  0
    1.8892  -10.3985   17.7511 N   0  0  0  0  0  0  0  0  0  0  0  0
    9.6210   -0.6952   24.0976 C   0  0  0  0  0  0  0  0  0  0  0  0
    7.0792   -9.0217   17.1429 C   0  0  0  0  0  0  0  0  0  0  0  0
    3.1713  -10.1816   17.6634 C   0  0  0  0  0  0  0  0  0  0  0  0
    2.7878   -8.3822   16.2137 C   0  0  0  0  0  0  0  0  0  0  0  0
    9.4601   -2.6590   25.6528 C   0  0  0  0  0  0  0  0  0  0  0  0
   10.1182   -1.5672   23.1165 C   0  0  0  0  0  0  0  0  0  0  0  0
    1.0552   -9.6360   17.0650 C   0  0  0  0  0  0  0  0  0  0  0  0
    3.6519   -9.1783   16.9039 C   0  0  0  0  0  0  0  0  0  0  0  0
    7.8675   -7.0096   15.9415 C   0  0  0  0  0  0  0  0  0  0  0  0
    5.9733   -9.6553   17.3832 N   0  0  0  0  0  0  0  0  0  0  0  0
   10.2411   -2.9363   23.4301 C   0  0  0  0  0  0  0  0  0  0  0  0
   10.7288   -3.8197   19.9525 C   0  0  0  0  0  0  0  0  0  0  0  0
   10.1189   -5.0054   19.6987 C   0  0  0  0  0  0  0  0  0  0  0  0
  1  3  4  0
  1  7  4  0
  2 21  4  0
  2 27  4  0
  3  9  4  0
  3 10  4  0
  4  8  4  0
  4 18  4  0
  4 25  1  0
  5  9  4  0
  5 12  4  0
  6 13  1  0
  6 27  1  0
  7 28  4  0
  8 11  4  0
  9 29  4  0
 10 12  4  0
 11 24  1  0
 11 26  4  0
 12 25  1  0
 13 28  1  0
 14 20  4  0
 14 23  4  0
 15 17  4  0
 15 21  4  0
 16 19  4  0
 16 23  4  0
 17 22  4  0
 18 26  4  0
 19 24  4  0
 20 24  4  0
 22 27  4  0
 28 29  4  0
M  END
$$$$

 Created by Python create_sdf_string function

 29 33  0  0  0  0  0  0  0  0999 V2000
   10.7215   -3.3326   17.6437 C   0  0  0  0  0  0  0  0  0  0  0  0
    9.9489   -3.4675   24.6487 N   0  0  0  0  0  0  0  0  0  0  0  0
   10.0172   -4.4740   17.4101 C   0  0  0  0  0  0  0  0  0  0  0  0
    6.9051   -7.9575   16.4222 C   0  0  0  0  0  0  0  0  0  0  0  0
    8.9969   -6.3552   17.9668 N   0  0  0  0  0  0  0  0  0  0  0  0
   10.6702   -3.9051   22.4070 C   0  0  0  0  0  0  0  0  0  0  0  0
   11.0625   -3.0028   18.8894 C   0  0  0  0  0  0  0  0  0  0  0  0
    5.6180   -7.9194   16.1754 O   0  0  0  0  0  0  0  0  0  0  0  0
    9.7259   -5.3080   18.4485 C   0  0  0  0  0  0  0  0  0  0  0  0
    9.4578   -5.0200   16.3036 N   0  0  0  0  0  0  0  0  0  0  0  0
    5.0287   -8.9365   16.8223 C   0  0  0  0  0  0  0  0  0  0  0  0
    8.7742   -6.1498   16.6764 C   0  0  0  0  0  0  0  0  0  0  0  0
   10.9418   -3.4032   21.2053 O   0  0  0  0  0  0  0  0  0  0  0  0
    1.4797   -8.6258   16.2950 C   0  0  0  0  0  0  0  0  0  0  0  0
    9.2861   -1.2743   25.3585 C   0  0  0  0  0  0  0  0  0  0  0  0
    1.8892  -10.3985   17.7511 N   0  0  0  0  0  0  0  0  0  0  0  0
    9.6210   -0.6952   24.0976 C   0  0  0  0  0  0  0  0  0  0  0  0
    7.0792   -9.0217   17.1429 C   0  0  0  0  0  0  0  0  0  0  0  0
    3.1713  -10.1816   17.6634 C   0  0  0  0  0  0  0  0  0  0  0  0
    2.7878   -8.3822   16.2137 C   0  0  0  0  0  0  0  0  0  0  0  0
    9.4601   -2.6590   25.6528 C   0  0  0  0  0  0  0  0  0  0  0  0
   10.1182   -1.5672   23.1165 C   0  0  0  0  0  0  0  0  0  0  0  0
    1.0552   -9.6360   17.0650 C   0  0  0  0  0  0  0  0  0  0  0  0
    3.6519   -9.1783   16.9039 C   0  0  0  0  0  0  0  0  0  0  0  0
    7.8675   -7.0096   15.9415 C   0  0  0  0  0  0  0  0  0  0  0  0
    5.9733   -9.6553   17.3832 N   0  0  0  0  0  0  0  0  0  0  0  0
   10.2411   -2.9363   23.4301 C   0  0  0  0  0  0  0  0  0  0  0  0
   10.7288   -3.8197   19.9525 C   0  0  0  0  0  0  0  0  0  0  0  0
   10.1189   -5.0054   19.6987 C   0  0  0  0  0  0  0  0  0  0  0  0
  1  3  4  0
  1  7  4  0
  2 21  4  0
  2 27  4  0
  3  9  4  0
  3 10  4  0
  4  8  4  0
  4 18  4  0
  4 25  1  0
  5  9  4  0
  5 12  4  0
  6 13  1  0
  6 27  1  0
  7 28  4  0
  8 11  4  0
  9 29  4  0
 10 12  4  0
 11 24  1  0
 11 26  4  0
 12 25  1  0
 13 28  1  0
 14 20  4  0
 14 23  4  0
 15 17  4  0
 15 21  4  0
 16 19  4  0
 16 23  4  0
 17 22  4  0
 18 26  4  0
 19 24  4  0
 20 24  4  0
 22 27  4  0
 28 29  4  0
M  END
$$$$

 Created by Python create_sdf_string function

 29 33  0  0  0  0  0  0  0  0999 V2000
   10.7215   -3.3326   17.6437 C   0  0  0  0  0  0  0  0  0  0  0  0
    9.9489   -3.4675   24.6487 N   0  0  0  0  0  0  0  0  0  0  0  0
   10.0172   -4.4740   17.4101 C   0  0  0  0  0  0  0  0  0  0  0  0
    6.9051   -7.9575   16.4222 C   0  0  0  0  0  0  0  0  0  0  0  0
    8.9969   -6.3552   17.9668 N   0  0  0  0  0  0  0  0  0  0  0  0
   10.6702   -3.9051   22.4070 C   0  0  0  0  0  0  0  0  0  0  0  0
   11.0625   -3.0028   18.8894 C   0  0  0  0  0  0  0  0  0  0  0  0
    5.6180   -7.9194   16.1754 O   0  0  0  0  0  0  0  0  0  0  0  0
    9.7259   -5.3080   18.4485 C   0  0  0  0  0  0  0  0  0  0  0  0
    9.4578   -5.0200   16.3036 N   0  0  0  0  0  0  0  0  0  0  0  0
    5.0287   -8.9365   16.8223 C   0  0  0  0  0  0  0  0  0  0  0  0
    8.7742   -6.1498   16.6764 C   0  0  0  0  0  0  0  0  0  0  0  0
   10.9418   -3.4032   21.2053 O   0  0  0  0  0  0  0  0  0  0  0  0
    1.4797   -8.6258   16.2950 C   0  0  0  0  0  0  0  0  0  0  0  0
    9.2861   -1.2743   25.3585 C   0  0  0  0  0  0  0  0  0  0  0  0
    1.8892  -10.3985   17.7511 N   0  0  0  0  0  0  0  0  0  0  0  0
    9.6210   -0.6952   24.0976 C   0  0  0  0  0  0  0  0  0  0  0  0
    7.0792   -9.0217   17.1429 C   0  0  0  0  0  0  0  0  0  0  0  0
    3.1713  -10.1816   17.6634 C   0  0  0  0  0  0  0  0  0  0  0  0
    2.7878   -8.3822   16.2137 C   0  0  0  0  0  0  0  0  0  0  0  0
    9.4601   -2.6590   25.6528 C   0  0  0  0  0  0  0  0  0  0  0  0
   10.1182   -1.5672   23.1165 C   0  0  0  0  0  0  0  0  0  0  0  0
    1.0552   -9.6360   17.0650 C   0  0  0  0  0  0  0  0  0  0  0  0
    3.6519   -9.1783   16.9039 C   0  0  0  0  0  0  0  0  0  0  0  0
    7.8675   -7.0096   15.9415 C   0  0  0  0  0  0  0  0  0  0  0  0
    5.9733   -9.6553   17.3832 N   0  0  0  0  0  0  0  0  0  0  0  0
   10.2411   -2.9363   23.4301 C   0  0  0  0  0  0  0  0  0  0  0  0
   10.7288   -3.8197   19.9525 C   0  0  0  0  0  0  0  0  0  0  0  0
   10.1189   -5.0054   19.6987 C   0  0  0  0  0  0  0  0  0  0  0  0
  1  3  4  0
  1  7  4  0
  2 21  4  0
  2 27  4  0
  3  9  4  0
  3 10  4  0
  4  8  4  0
  4 18  4  0
  4 25  1  0
  5  9  4  0
  5 12  4  0
  6 13  1  0
  6 27  1  0
  7 28  4  0
  8 11  4  0
  9 29  4  0
 10 12  4  0
 11 24  1  0
 11 26  4  0
 12 25  1  0
 13 28  1  0
 14 20  4  0
 14 23  4  0
 15 17  4  0
 15 21  4  0
 16 19  4  0
 16 23  4  0
 17 22  4  0
 18 26  4  0
 19 24  4  0
 20 24  4  0
 22 27  4  0
 28 29  4  0
M  END
$$$$

 Created by Python create_sdf_string function

 29 33  0  0  0  0  0  0  0  0999 V2000
   10.7215   -3.3326   17.6437 C   0  0  0  0  0  0  0  0  0  0  0  0
    9.9489   -3.4675   24.6487 N   0  0  0  0  0  0  0  0  0  0  0  0
   10.0172   -4.4740   17.4101 C   0  0  0  0  0  0  0  0  0  0  0  0
    6.9051   -7.9575   16.4222 C   0  0  0  0  0  0  0  0  0  0  0  0
    8.9969   -6.3552   17.9668 N   0  0  0  0  0  0  0  0  0  0  0  0
   10.6702   -3.9051   22.4070 C   0  0  0  0  0  0  0  0  0  0  0  0
   11.0625   -3.0028   18.8894 C   0  0  0  0  0  0  0  0  0  0  0  0
    5.6180   -7.9194   16.1754 O   0  0  0  0  0  0  0  0  0  0  0  0
    9.7259   -5.3080   18.4485 C   0  0  0  0  0  0  0  0  0  0  0  0
    9.4578   -5.0200   16.3036 N   0  0  0  0  0  0  0  0  0  0  0  0
    5.0287   -8.9365   16.8223 C   0  0  0  0  0  0  0  0  0  0  0  0
    8.7742   -6.1498   16.6764 C   0  0  0  0  0  0  0  0  0  0  0  0
   10.9418   -3.4032   21.2053 O   0  0  0  0  0  0  0  0  0  0  0  0
    1.4797   -8.6258   16.2950 C   0  0  0  0  0  0  0  0  0  0  0  0
    9.2861   -1.2743   25.3585 C   0  0  0  0  0  0  0  0  0  0  0  0
    1.8892  -10.3985   17.7511 N   0  0  0  0  0  0  0  0  0  0  0  0
    9.6210   -0.6952   24.0976 C   0  0  0  0  0  0  0  0  0  0  0  0
    7.0792   -9.0217   17.1429 C   0  0  0  0  0  0  0  0  0  0  0  0
    3.1713  -10.1816   17.6634 C   0  0  0  0  0  0  0  0  0  0  0  0
    2.7878   -8.3822   16.2137 C   0  0  0  0  0  0  0  0  0  0  0  0
    9.4601   -2.6590   25.6528 C   0  0  0  0  0  0  0  0  0  0  0  0
   10.1182   -1.5672   23.1165 C   0  0  0  0  0  0  0  0  0  0  0  0
    1.0552   -9.6360   17.0650 C   0  0  0  0  0  0  0  0  0  0  0  0
    3.6519   -9.1783   16.9039 C   0  0  0  0  0  0  0  0  0  0  0  0
    7.8675   -7.0096   15.9415 C   0  0  0  0  0  0  0  0  0  0  0  0
    5.9733   -9.6553   17.3832 N   0  0  0  0  0  0  0  0  0  0  0  0
   10.2411   -2.9363   23.4301 C   0  0  0  0  0  0  0  0  0  0  0  0
   10.7288   -3.8197   19.9525 C   0  0  0  0  0  0  0  0  0  0  0  0
   10.1189   -5.0054   19.6987 C   0  0  0  0  0  0  0  0  0  0  0  0
  1  3  4  0
  1  7  4  0
  2 21  4  0
  2 27  4  0
  3  9  4  0
  3 10  4  0
  4  8  4  0
  4 18  4  0
  4 25  1  0
  5  9  4  0
  5 12  4  0
  6 13  1  0
  6 27  1  0
  7 28  4  0
  8 11  4  0
  9 29  4  0
 10 12  4  0
 11 24  1  0
 11 26  4  0
 12 25  1  0
 13 28  1  0
 14 20  4  0
 14 23  4  0
 15 17  4  0
 15 21  4  0
 16 19  4  0
 16 23  4  0
 17 22  4  0
 18 26  4  0
 19 24  4  0
 20 24  4  0
 22 27  4  0
 28 29  4  0
M  END
$$$$

 Created by Python create_sdf_string function

 29 33  0  0  0  0  0  0  0  0999 V2000
   10.7215   -3.3326   17.6437 C   0  0  0  0  0  0  0  0  0  0  0  0
    9.9489   -3.4675   24.6487 N   0  0  0  0  0  0  0  0  0  0  0  0
   10.0172   -4.4740   17.4101 C   0  0  0  0  0  0  0  0  0  0  0  0
    6.9051   -7.9575   16.4222 C   0  0  0  0  0  0  0  0  0  0  0  0
    8.9969   -6.3552   17.9668 N   0  0  0  0  0  0  0  0  0  0  0  0
   10.6702   -3.9051   22.4070 C   0  0  0  0  0  0  0  0  0  0  0  0
   11.0625   -3.0028   18.8894 C   0  0  0  0  0  0  0  0  0  0  0  0
    5.6180   -7.9194   16.1754 O   0  0  0  0  0  0  0  0  0  0  0  0
    9.7259   -5.3080   18.4485 C   0  0  0  0  0  0  0  0  0  0  0  0
    9.4578   -5.0200   16.3036 N   0  0  0  0  0  0  0  0  0  0  0  0
    5.0287   -8.9365   16.8223 C   0  0  0  0  0  0  0  0  0  0  0  0
    8.7742   -6.1498   16.6764 C   0  0  0  0  0  0  0  0  0  0  0  0
   10.9418   -3.4032   21.2053 O   0  0  0  0  0  0  0  0  0  0  0  0
    1.4797   -8.6258   16.2950 C   0  0  0  0  0  0  0  0  0  0  0  0
    9.2861   -1.2743   25.3585 C   0  0  0  0  0  0  0  0  0  0  0  0
    1.8892  -10.3985   17.7511 N   0  0  0  0  0  0  0  0  0  0  0  0
    9.6210   -0.6952   24.0976 C   0  0  0  0  0  0  0  0  0  0  0  0
    7.0792   -9.0217   17.1429 C   0  0  0  0  0  0  0  0  0  0  0  0
    3.1713  -10.1816   17.6634 C   0  0  0  0  0  0  0  0  0  0  0  0
    2.7878   -8.3822   16.2137 C   0  0  0  0  0  0  0  0  0  0  0  0
    9.4601   -2.6590   25.6528 C   0  0  0  0  0  0  0  0  0  0  0  0
   10.1182   -1.5672   23.1165 C   0  0  0  0  0  0  0  0  0  0  0  0
    1.0552   -9.6360   17.0650 C   0  0  0  0  0  0  0  0  0  0  0  0
    3.6519   -9.1783   16.9039 C   0  0  0  0  0  0  0  0  0  0  0  0
    7.8675   -7.0096   15.9415 C   0  0  0  0  0  0  0  0  0  0  0  0
    5.9733   -9.6553   17.3832 N   0  0  0  0  0  0  0  0  0  0  0  0
   10.2411   -2.9363   23.4301 C   0  0  0  0  0  0  0  0  0  0  0  0
   10.7288   -3.8197   19.9525 C   0  0  0  0  0  0  0  0  0  0  0  0
   10.1189   -5.0054   19.6987 C   0  0  0  0  0  0  0  0  0  0  0  0
  1  3  4  0
  1  7  4  0
  2 21  4  0
  2 27  4  0
  3  9  4  0
  3 10  4  0
  4  8  4  0
  4 18  4  0
  4 25  1  0
  5  9  4  0
  5 12  4  0
  6 13  1  0
  6 27  1  0
  7 28  4  0
  8 11  4  0
  9 29  4  0
 10 12  4  0
 11 24  1  0
 11 26  4  0
 12 25  1  0
 13 28  1  0
 14 20  4  0
 14 23  4  0
 15 17  4  0
 15 21  4  0
 16 19  4  0
 16 23  4  0
 17 22  4  0
 18 26  4  0
 19 24  4  0
 20 24  4  0
 22 27  4  0
 28 29  4  0
M  END
$$$$

 Created by Python create_sdf_string function

 29 33  0  0  0  0  0  0  0  0999 V2000
   10.7215   -3.3326   17.6437 C   0  0  0  0  0  0  0  0  0  0  0  0
    9.9489   -3.4675   24.6487 N   0  0  0  0  0  0  0  0  0  0  0  0
   10.0172   -4.4740   17.4101 C   0  0  0  0  0  0  0  0  0  0  0  0
    6.9051   -7.9575   16.4222 C   0  0  0  0  0  0  0  0  0  0  0  0
    8.9969   -6.3552   17.9668 N   0  0  0  0  0  0  0  0  0  0  0  0
   10.6702   -3.9051   22.4070 C   0  0  0  0  0  0  0  0  0  0  0  0
   11.0625   -3.0028   18.8894 C   0  0  0  0  0  0  0  0  0  0  0  0
    5.6180   -7.9194   16.1754 O   0  0  0  0  0  0  0  0  0  0  0  0
    9.7259   -5.3080   18.4485 C   0  0  0  0  0  0  0  0  0  0  0  0
    9.4578   -5.0200   16.3036 N   0  0  0  0  0  0  0  0  0  0  0  0
    5.0287   -8.9365   16.8223 C   0  0  0  0  0  0  0  0  0  0  0  0
    8.7742   -6.1498   16.6764 C   0  0  0  0  0  0  0  0  0  0  0  0
   10.9418   -3.4032   21.2053 O   0  0  0  0  0  0  0  0  0  0  0  0
    1.4797   -8.6258   16.2950 C   0  0  0  0  0  0  0  0  0  0  0  0
    9.2861   -1.2743   25.3585 C   0  0  0  0  0  0  0  0  0  0  0  0
    1.8892  -10.3985   17.7511 N   0  0  0  0  0  0  0  0  0  0  0  0
    9.6210   -0.6952   24.0976 C   0  0  0  0  0  0  0  0  0  0  0  0
    7.0792   -9.0217   17.1429 C   0  0  0  0  0  0  0  0  0  0  0  0
    3.1713  -10.1816   17.6634 C   0  0  0  0  0  0  0  0  0  0  0  0
    2.7878   -8.3822   16.2137 C   0  0  0  0  0  0  0  0  0  0  0  0
    9.4601   -2.6590   25.6528 C   0  0  0  0  0  0  0  0  0  0  0  0
   10.1182   -1.5672   23.1165 C   0  0  0  0  0  0  0  0  0  0  0  0
    1.0552   -9.6360   17.0650 C   0  0  0  0  0  0  0  0  0  0  0  0
    3.6519   -9.1783   16.9039 C   0  0  0  0  0  0  0  0  0  0  0  0
    7.8675   -7.0096   15.9415 C   0  0  0  0  0  0  0  0  0  0  0  0
    5.9733   -9.6553   17.3832 N   0  0  0  0  0  0  0  0  0  0  0  0
   10.2411   -2.9363   23.4301 C   0  0  0  0  0  0  0  0  0  0  0  0
   10.7288   -3.8197   19.9525 C   0  0  0  0  0  0  0  0  0  0  0  0
   10.1189   -5.0054   19.6987 C   0  0  0  0  0  0  0  0  0  0  0  0
  1  3  4  0
  1  7  4  0
  2 21  4  0
  2 27  4  0
  3  9  4  0
  3 10  4  0
  4  8  4  0
  4 18  4  0
  4 25  1  0
  5  9  4  0
  5 12  4  0
  6 13  1  0
  6 27  1  0
  7 28  4  0
  8 11  4  0
  9 29  4  0
 10 12  4  0
 11 24  1  0
 11 26  4  0
 12 25  1  0
 13 28  1  0
 14 20  4  0
 14 23  4  0
 15 17  4  0
 15 21  4  0
 16 19  4  0
 16 23  4  0
 17 22  4  0
 18 26  4  0
 19 24  4  0
 20 24  4  0
 22 27  4  0
 28 29  4  0
M  END
$$$$

 Created by Python create_sdf_string function

 29 33  0  0  0  0  0  0  0  0999 V2000
   10.7215   -3.3326   17.6437 C   0  0  0  0  0  0  0  0  0  0  0  0
    9.9489   -3.4675   24.6487 N   0  0  0  0  0  0  0  0  0  0  0  0
   10.0172   -4.4740   17.4101 C   0  0  0  0  0  0  0  0  0  0  0  0
    6.9051   -7.9575   16.4222 C   0  0  0  0  0  0  0  0  0  0  0  0
    8.9969   -6.3552   17.9668 N   0  0  0  0  0  0  0  0  0  0  0  0
   10.6702   -3.9051   22.4070 C   0  0  0  0  0  0  0  0  0  0  0  0
   11.0625   -3.0028   18.8894 C   0  0  0  0  0  0  0  0  0  0  0  0
    5.6180   -7.9194   16.1754 O   0  0  0  0  0  0  0  0  0  0  0  0
    9.7259   -5.3080   18.4485 C   0  0  0  0  0  0  0  0  0  0  0  0
    9.4578   -5.0200   16.3036 N   0  0  0  0  0  0  0  0  0  0  0  0
    5.0287   -8.9365   16.8223 C   0  0  0  0  0  0  0  0  0  0  0  0
    8.7742   -6.1498   16.6764 C   0  0  0  0  0  0  0  0  0  0  0  0
   10.9418   -3.4032   21.2053 O   0  0  0  0  0  0  0  0  0  0  0  0
    1.4797   -8.6258   16.2950 C   0  0  0  0  0  0  0  0  0  0  0  0
    9.2861   -1.2743   25.3585 C   0  0  0  0  0  0  0  0  0  0  0  0
    1.8892  -10.3985   17.7511 N   0  0  0  0  0  0  0  0  0  0  0  0
    9.6210   -0.6952   24.0976 C   0  0  0  0  0  0  0  0  0  0  0  0
    7.0792   -9.0217   17.1429 C   0  0  0  0  0  0  0  0  0  0  0  0
    3.1713  -10.1816   17.6634 C   0  0  0  0  0  0  0  0  0  0  0  0
    2.7878   -8.3822   16.2137 C   0  0  0  0  0  0  0  0  0  0  0  0
    9.4601   -2.6590   25.6528 C   0  0  0  0  0  0  0  0  0  0  0  0
   10.1182   -1.5672   23.1165 C   0  0  0  0  0  0  0  0  0  0  0  0
    1.0552   -9.6360   17.0650 C   0  0  0  0  0  0  0  0  0  0  0  0
    3.6519   -9.1783   16.9039 C   0  0  0  0  0  0  0  0  0  0  0  0
    7.8675   -7.0096   15.9415 C   0  0  0  0  0  0  0  0  0  0  0  0
    5.9733   -9.6553   17.3832 N   0  0  0  0  0  0  0  0  0  0  0  0
   10.2411   -2.9363   23.4301 C   0  0  0  0  0  0  0  0  0  0  0  0
   10.7288   -3.8197   19.9525 C   0  0  0  0  0  0  0  0  0  0  0  0
   10.1189   -5.0054   19.6987 C   0  0  0  0  0  0  0  0  0  0  0  0
  1  3  4  0
  1  7  4  0
  2 21  4  0
  2 27  4  0
  3  9  4  0
  3 10  4  0
  4  8  4  0
  4 18  4  0
  4 25  1  0
  5  9  4  0
  5 12  4  0
  6 13  1  0
  6 27  1  0
  7 28  4  0
  8 11  4  0
  9 29  4  0
 10 12  4  0
 11 24  1  0
 11 26  4  0
 12 25  1  0
 13 28  1  0
 14 20  4  0
 14 23  4  0
 15 17  4  0
 15 21  4  0
 16 19  4  0
 16 23  4  0
 17 22  4  0
 18 26  4  0
 19 24  4  0
 20 24  4  0
 22 27  4  0
 28 29  4  0
M  END
$$$$

 Created by Python create_sdf_string function

 29 33  0  0  0  0  0  0  0  0999 V2000
   10.7215   -3.3326   17.6437 C   0  0  0  0  0  0  0  0  0  0  0  0
    9.9489   -3.4675   24.6487 N   0  0  0  0  0  0  0  0  0  0  0  0
   10.0172   -4.4740   17.4101 C   0  0  0  0  0  0  0  0  0  0  0  0
    6.9051   -7.9575   16.4222 C   0  0  0  0  0  0  0  0  0  0  0  0
    8.9969   -6.3552   17.9668 N   0  0  0  0  0  0  0  0  0  0  0  0
   10.6702   -3.9051   22.4070 C   0  0  0  0  0  0  0  0  0  0  0  0
   11.0625   -3.0028   18.8894 C   0  0  0  0  0  0  0  0  0  0  0  0
    5.6180   -7.9194   16.1754 O   0  0  0  0  0  0  0  0  0  0  0  0
    9.7259   -5.3080   18.4485 C   0  0  0  0  0  0  0  0  0  0  0  0
    9.4578   -5.0200   16.3036 N   0  0  0  0  0  0  0  0  0  0  0  0
    5.0287   -8.9365   16.8223 C   0  0  0  0  0  0  0  0  0  0  0  0
    8.7742   -6.1498   16.6764 C   0  0  0  0  0  0  0  0  0  0  0  0
   10.9418   -3.4032   21.2053 O   0  0  0  0  0  0  0  0  0  0  0  0
    1.4797   -8.6258   16.2950 C   0  0  0  0  0  0  0  0  0  0  0  0
    9.2861   -1.2743   25.3585 C   0  0  0  0  0  0  0  0  0  0  0  0
    1.8892  -10.3985   17.7511 N   0  0  0  0  0  0  0  0  0  0  0  0
    9.6210   -0.6952   24.0976 C   0  0  0  0  0  0  0  0  0  0  0  0
    7.0792   -9.0217   17.1429 C   0  0  0  0  0  0  0  0  0  0  0  0
    3.1713  -10.1816   17.6634 C   0  0  0  0  0  0  0  0  0  0  0  0
    2.7878   -8.3822   16.2137 C   0  0  0  0  0  0  0  0  0  0  0  0
    9.4601   -2.6590   25.6528 C   0  0  0  0  0  0  0  0  0  0  0  0
   10.1182   -1.5672   23.1165 C   0  0  0  0  0  0  0  0  0  0  0  0
    1.0552   -9.6360   17.0650 C   0  0  0  0  0  0  0  0  0  0  0  0
    3.6519   -9.1783   16.9039 C   0  0  0  0  0  0  0  0  0  0  0  0
    7.8675   -7.0096   15.9415 C   0  0  0  0  0  0  0  0  0  0  0  0
    5.9733   -9.6553   17.3832 N   0  0  0  0  0  0  0  0  0  0  0  0
   10.2411   -2.9363   23.4301 C   0  0  0  0  0  0  0  0  0  0  0  0
   10.7288   -3.8197   19.9525 C   0  0  0  0  0  0  0  0  0  0  0  0
   10.1189   -5.0054   19.6987 C   0  0  0  0  0  0  0  0  0  0  0  0
  1  3  4  0
  1  7  4  0
  2 21  4  0
  2 27  4  0
  3  9  4  0
  3 10  4  0
  4  8  4  0
  4 18  4  0
  4 25  1  0
  5  9  4  0
  5 12  4  0
  6 13  1  0
  6 27  1  0
  7 28  4  0
  8 11  4  0
  9 29  4  0
 10 12  4  0
 11 24  1  0
 11 26  4  0
 12 25  1  0
 13 28  1  0
 14 20  4  0
 14 23  4  0
 15 17  4  0
 15 21  4  0
 16 19  4  0
 16 23  4  0
 17 22  4  0
 18 26  4  0
 19 24  4  0
 20 24  4  0
 22 27  4  0
 28 29  4  0
M  END
$$$$

 Created by Python create_sdf_string function

 29 33  0  0  0  0  0  0  0  0999 V2000
   10.7215   -3.3326   17.6437 C   0  0  0  0  0  0  0  0  0  0  0  0
    9.9489   -3.4675   24.6487 N   0  0  0  0  0  0  0  0  0  0  0  0
   10.0172   -4.4740   17.4101 C   0  0  0  0  0  0  0  0  0  0  0  0
    6.9051   -7.9575   16.4222 C   0  0  0  0  0  0  0  0  0  0  0  0
    8.9969   -6.3552   17.9668 N   0  0  0  0  0  0  0  0  0  0  0  0
   10.6702   -3.9051   22.4070 C   0  0  0  0  0  0  0  0  0  0  0  0
   11.0625   -3.0028   18.8894 C   0  0  0  0  0  0  0  0  0  0  0  0
    5.6180   -7.9194   16.1754 O   0  0  0  0  0  0  0  0  0  0  0  0
    9.7259   -5.3080   18.4485 C   0  0  0  0  0  0  0  0  0  0  0  0
    9.4578   -5.0200   16.3036 N   0  0  0  0  0  0  0  0  0  0  0  0
    5.0287   -8.9365   16.8223 C   0  0  0  0  0  0  0  0  0  0  0  0
    8.7742   -6.1498   16.6764 C   0  0  0  0  0  0  0  0  0  0  0  0
   10.9418   -3.4032   21.2053 O   0  0  0  0  0  0  0  0  0  0  0  0
    1.4797   -8.6258   16.2950 C   0  0  0  0  0  0  0  0  0  0  0  0
    9.2861   -1.2743   25.3585 C   0  0  0  0  0  0  0  0  0  0  0  0
    1.8892  -10.3985   17.7511 N   0  0  0  0  0  0  0  0  0  0  0  0
    9.6210   -0.6952   24.0976 C   0  0  0  0  0  0  0  0  0  0  0  0
    7.0792   -9.0217   17.1429 C   0  0  0  0  0  0  0  0  0  0  0  0
    3.1713  -10.1816   17.6634 C   0  0  0  0  0  0  0  0  0  0  0  0
    2.7878   -8.3822   16.2137 C   0  0  0  0  0  0  0  0  0  0  0  0
    9.4601   -2.6590   25.6528 C   0  0  0  0  0  0  0  0  0  0  0  0
   10.1182   -1.5672   23.1165 C   0  0  0  0  0  0  0  0  0  0  0  0
    1.0552   -9.6360   17.0650 C   0  0  0  0  0  0  0  0  0  0  0  0
    3.6519   -9.1783   16.9039 C   0  0  0  0  0  0  0  0  0  0  0  0
    7.8675   -7.0096   15.9415 C   0  0  0  0  0  0  0  0  0  0  0  0
    5.9733   -9.6553   17.3832 N   0  0  0  0  0  0  0  0  0  0  0  0
   10.2411   -2.9363   23.4301 C   0  0  0  0  0  0  0  0  0  0  0  0
   10.7288   -3.8197   19.9525 C   0  0  0  0  0  0  0  0  0  0  0  0
   10.1189   -5.0054   19.6987 C   0  0  0  0  0  0  0  0  0  0  0  0
  1  3  4  0
  1  7  4  0
  2 21  4  0
  2 27  4  0
  3  9  4  0
  3 10  4  0
  4  8  4  0
  4 18  4  0
  4 25  1  0
  5  9  4  0
  5 12  4  0
  6 13  1  0
  6 27  1  0
  7 28  4  0
  8 11  4  0
  9 29  4  0
 10 12  4  0
 11 24  1  0
 11 26  4  0
 12 25  1  0
 13 28  1  0
 14 20  4  0
 14 23  4  0
 15 17  4  0
 15 21  4  0
 16 19  4  0
 16 23  4  0
 17 22  4  0
 18 26  4  0
 19 24  4  0
 20 24  4  0
 22 27  4  0
 28 29  4  0
M  END
$$$$

 Created by Python create_sdf_string function

 29 33  0  0  0  0  0  0  0  0999 V2000
   10.7215   -3.3326   17.6437 C   0  0  0  0  0  0  0  0  0  0  0  0
    9.9489   -3.4675   24.6487 N   0  0  0  0  0  0  0  0  0  0  0  0
   10.0172   -4.4740   17.4101 C   0  0  0  0  0  0  0  0  0  0  0  0
    6.9051   -7.9575   16.4222 C   0  0  0  0  0  0  0  0  0  0  0  0
    8.9969   -6.3552   17.9668 N   0  0  0  0  0  0  0  0  0  0  0  0
   10.6702   -3.9051   22.4070 C   0  0  0  0  0  0  0  0  0  0  0  0
   11.0625   -3.0028   18.8894 C   0  0  0  0  0  0  0  0  0  0  0  0
    5.6180   -7.9194   16.1754 O   0  0  0  0  0  0  0  0  0  0  0  0
    9.7259   -5.3080   18.4485 C   0  0  0  0  0  0  0  0  0  0  0  0
    9.4578   -5.0200   16.3036 N   0  0  0  0  0  0  0  0  0  0  0  0
    5.0287   -8.9365   16.8223 C   0  0  0  0  0  0  0  0  0  0  0  0
    8.7742   -6.1498   16.6764 C   0  0  0  0  0  0  0  0  0  0  0  0
   10.9418   -3.4032   21.2053 O   0  0  0  0  0  0  0  0  0  0  0  0
    1.4797   -8.6258   16.2950 C   0  0  0  0  0  0  0  0  0  0  0  0
    9.2861   -1.2743   25.3585 C   0  0  0  0  0  0  0  0  0  0  0  0
    1.8892  -10.3985   17.7511 N   0  0  0  0  0  0  0  0  0  0  0  0
    9.6210   -0.6952   24.0976 C   0  0  0  0  0  0  0  0  0  0  0  0
    7.0792   -9.0217   17.1429 C   0  0  0  0  0  0  0  0  0  0  0  0
    3.1713  -10.1816   17.6634 C   0  0  0  0  0  0  0  0  0  0  0  0
    2.7878   -8.3822   16.2137 C   0  0  0  0  0  0  0  0  0  0  0  0
    9.4601   -2.6590   25.6528 C   0  0  0  0  0  0  0  0  0  0  0  0
   10.1182   -1.5672   23.1165 C   0  0  0  0  0  0  0  0  0  0  0  0
    1.0552   -9.6360   17.0650 C   0  0  0  0  0  0  0  0  0  0  0  0
    3.6519   -9.1783   16.9039 C   0  0  0  0  0  0  0  0  0  0  0  0
    7.8675   -7.0096   15.9415 C   0  0  0  0  0  0  0  0  0  0  0  0
    5.9733   -9.6553   17.3832 N   0  0  0  0  0  0  0  0  0  0  0  0
   10.2411   -2.9363   23.4301 C   0  0  0  0  0  0  0  0  0  0  0  0
   10.7288   -3.8197   19.9525 C   0  0  0  0  0  0  0  0  0  0  0  0
   10.1189   -5.0054   19.6987 C   0  0  0  0  0  0  0  0  0  0  0  0
  1  3  4  0
  1  7  4  0
  2 21  4  0
  2 27  4  0
  3  9  4  0
  3 10  4  0
  4  8  4  0
  4 18  4  0
  4 25  1  0
  5  9  4  0
  5 12  4  0
  6 13  1  0
  6 27  1  0
  7 28  4  0
  8 11  4  0
  9 29  4  0
 10 12  4  0
 11 24  1  0
 11 26  4  0
 12 25  1  0
 13 28  1  0
 14 20  4  0
 14 23  4  0
 15 17  4  0
 15 21  4  0
 16 19  4  0
 16 23  4  0
 17 22  4  0
 18 26  4  0
 19 24  4  0
 20 24  4  0
 22 27  4  0
 28 29  4  0
M  END
$$$$

 Created by Python create_sdf_string function

 29 33  0  0  0  0  0  0  0  0999 V2000
   10.7215   -3.3326   17.6437 C   0  0  0  0  0  0  0  0  0  0  0  0
    9.9489   -3.4675   24.6487 N   0  0  0  0  0  0  0  0  0  0  0  0
   10.0172   -4.4740   17.4101 C   0  0  0  0  0  0  0  0  0  0  0  0
    6.9051   -7.9575   16.4222 C   0  0  0  0  0  0  0  0  0  0  0  0
    8.9969   -6.3552   17.9668 N   0  0  0  0  0  0  0  0  0  0  0  0
   10.6702   -3.9051   22.4070 C   0  0  0  0  0  0  0  0  0  0  0  0
   11.0625   -3.0028   18.8894 C   0  0  0  0  0  0  0  0  0  0  0  0
    5.6180   -7.9194   16.1754 O   0  0  0  0  0  0  0  0  0  0  0  0
    9.7259   -5.3080   18.4485 C   0  0  0  0  0  0  0  0  0  0  0  0
    9.4578   -5.0200   16.3036 N   0  0  0  0  0  0  0  0  0  0  0  0
    5.0287   -8.9365   16.8223 C   0  0  0  0  0  0  0  0  0  0  0  0
    8.7742   -6.1498   16.6764 C   0  0  0  0  0  0  0  0  0  0  0  0
   10.9418   -3.4032   21.2053 O   0  0  0  0  0  0  0  0  0  0  0  0
    1.4797   -8.6258   16.2950 C   0  0  0  0  0  0  0  0  0  0  0  0
    9.2861   -1.2743   25.3585 C   0  0  0  0  0  0  0  0  0  0  0  0
    1.8892  -10.3985   17.7511 N   0  0  0  0  0  0  0  0  0  0  0  0
    9.6210   -0.6952   24.0976 C   0  0  0  0  0  0  0  0  0  0  0  0
    7.0792   -9.0217   17.1429 C   0  0  0  0  0  0  0  0  0  0  0  0
    3.1713  -10.1816   17.6634 C   0  0  0  0  0  0  0  0  0  0  0  0
    2.7878   -8.3822   16.2137 C   0  0  0  0  0  0  0  0  0  0  0  0
    9.4601   -2.6590   25.6528 C   0  0  0  0  0  0  0  0  0  0  0  0
   10.1182   -1.5672   23.1165 C   0  0  0  0  0  0  0  0  0  0  0  0
    1.0552   -9.6360   17.0650 C   0  0  0  0  0  0  0  0  0  0  0  0
    3.6519   -9.1783   16.9039 C   0  0  0  0  0  0  0  0  0  0  0  0
    7.8675   -7.0096   15.9415 C   0  0  0  0  0  0  0  0  0  0  0  0
    5.9733   -9.6553   17.3832 N   0  0  0  0  0  0  0  0  0  0  0  0
   10.2411   -2.9363   23.4301 C   0  0  0  0  0  0  0  0  0  0  0  0
   10.7288   -3.8197   19.9525 C   0  0  0  0  0  0  0  0  0  0  0  0
   10.1189   -5.0054   19.6987 C   0  0  0  0  0  0  0  0  0  0  0  0
  1  3  4  0
  1  7  4  0
  2 21  4  0
  2 27  4  0
  3  9  4  0
  3 10  4  0
  4  8  4  0
  4 18  4  0
  4 25  1  0
  5  9  4  0
  5 12  4  0
  6 13  1  0
  6 27  1  0
  7 28  4  0
  8 11  4  0
  9 29  4  0
 10 12  4  0
 11 24  1  0
 11 26  4  0
 12 25  1  0
 13 28  1  0
 14 20  4  0
 14 23  4  0
 15 17  4  0
 15 21  4  0
 16 19  4  0
 16 23  4  0
 17 22  4  0
 18 26  4  0
 19 24  4  0
 20 24  4  0
 22 27  4  0
 28 29  4  0
M  END
$$$$

 Created by Python create_sdf_string function

 29 33  0  0  0  0  0  0  0  0999 V2000
   10.7215   -3.3326   17.6437 C   0  0  0  0  0  0  0  0  0  0  0  0
    9.9489   -3.4675   24.6487 N   0  0  0  0  0  0  0  0  0  0  0  0
   10.0172   -4.4740   17.4101 C   0  0  0  0  0  0  0  0  0  0  0  0
    6.9051   -7.9575   16.4222 C   0  0  0  0  0  0  0  0  0  0  0  0
    8.9969   -6.3552   17.9668 N   0  0  0  0  0  0  0  0  0  0  0  0
   10.6702   -3.9051   22.4070 C   0  0  0  0  0  0  0  0  0  0  0  0
   11.0625   -3.0028   18.8894 C   0  0  0  0  0  0  0  0  0  0  0  0
    5.6180   -7.9194   16.1754 O   0  0  0  0  0  0  0  0  0  0  0  0
    9.7259   -5.3080   18.4485 C   0  0  0  0  0  0  0  0  0  0  0  0
    9.4578   -5.0200   16.3036 N   0  0  0  0  0  0  0  0  0  0  0  0
    5.0287   -8.9365   16.8223 C   0  0  0  0  0  0  0  0  0  0  0  0
    8.7742   -6.1498   16.6764 C   0  0  0  0  0  0  0  0  0  0  0  0
   10.9418   -3.4032   21.2053 O   0  0  0  0  0  0  0  0  0  0  0  0
    1.4797   -8.6258   16.2950 C   0  0  0  0  0  0  0  0  0  0  0  0
    9.2861   -1.2743   25.3585 C   0  0  0  0  0  0  0  0  0  0  0  0
    1.8892  -10.3985   17.7511 N   0  0  0  0  0  0  0  0  0  0  0  0
    9.6210   -0.6952   24.0976 C   0  0  0  0  0  0  0  0  0  0  0  0
    7.0792   -9.0217   17.1429 C   0  0  0  0  0  0  0  0  0  0  0  0
    3.1713  -10.1816   17.6634 C   0  0  0  0  0  0  0  0  0  0  0  0
    2.7878   -8.3822   16.2137 C   0  0  0  0  0  0  0  0  0  0  0  0
    9.4601   -2.6590   25.6528 C   0  0  0  0  0  0  0  0  0  0  0  0
   10.1182   -1.5672   23.1165 C   0  0  0  0  0  0  0  0  0  0  0  0
    1.0552   -9.6360   17.0650 C   0  0  0  0  0  0  0  0  0  0  0  0
    3.6519   -9.1783   16.9039 C   0  0  0  0  0  0  0  0  0  0  0  0
    7.8675   -7.0096   15.9415 C   0  0  0  0  0  0  0  0  0  0  0  0
    5.9733   -9.6553   17.3832 N   0  0  0  0  0  0  0  0  0  0  0  0
   10.2411   -2.9363   23.4301 C   0  0  0  0  0  0  0  0  0  0  0  0
   10.7288   -3.8197   19.9525 C   0  0  0  0  0  0  0  0  0  0  0  0
   10.1189   -5.0054   19.6987 C   0  0  0  0  0  0  0  0  0  0  0  0
  1  3  4  0
  1  7  4  0
  2 21  4  0
  2 27  4  0
  3  9  4  0
  3 10  4  0
  4  8  4  0
  4 18  4  0
  4 25  1  0
  5  9  4  0
  5 12  4  0
  6 13  1  0
  6 27  1  0
  7 28  4  0
  8 11  4  0
  9 29  4  0
 10 12  4  0
 11 24  1  0
 11 26  4  0
 12 25  1  0
 13 28  1  0
 14 20  4  0
 14 23  4  0
 15 17  4  0
 15 21  4  0
 16 19  4  0
 16 23  4  0
 17 22  4  0
 18 26  4  0
 19 24  4  0
 20 24  4  0
 22 27  4  0
 28 29  4  0
M  END
$$$$

 Created by Python create_sdf_string function

 29 33  0  0  0  0  0  0  0  0999 V2000
   10.7215   -3.3326   17.6437 C   0  0  0  0  0  0  0  0  0  0  0  0
    9.9489   -3.4675   24.6487 N   0  0  0  0  0  0  0  0  0  0  0  0
   10.0172   -4.4740   17.4101 C   0  0  0  0  0  0  0  0  0  0  0  0
    6.9051   -7.9575   16.4222 C   0  0  0  0  0  0  0  0  0  0  0  0
    8.9969   -6.3552   17.9668 N   0  0  0  0  0  0  0  0  0  0  0  0
   10.6702   -3.9051   22.4070 C   0  0  0  0  0  0  0  0  0  0  0  0
   11.0625   -3.0028   18.8894 C   0  0  0  0  0  0  0  0  0  0  0  0
    5.6180   -7.9194   16.1754 O   0  0  0  0  0  0  0  0  0  0  0  0
    9.7259   -5.3080   18.4485 C   0  0  0  0  0  0  0  0  0  0  0  0
    9.4578   -5.0200   16.3036 N   0  0  0  0  0  0  0  0  0  0  0  0
    5.0287   -8.9365   16.8223 C   0  0  0  0  0  0  0  0  0  0  0  0
    8.7742   -6.1498   16.6764 C   0  0  0  0  0  0  0  0  0  0  0  0
   10.9418   -3.4032   21.2053 O   0  0  0  0  0  0  0  0  0  0  0  0
    1.4797   -8.6258   16.2950 C   0  0  0  0  0  0  0  0  0  0  0  0
    9.2861   -1.2743   25.3585 C   0  0  0  0  0  0  0  0  0  0  0  0
    1.8892  -10.3985   17.7511 N   0  0  0  0  0  0  0  0  0  0  0  0
    9.6210   -0.6952   24.0976 C   0  0  0  0  0  0  0  0  0  0  0  0
    7.0792   -9.0217   17.1429 C   0  0  0  0  0  0  0  0  0  0  0  0
    3.1713  -10.1816   17.6634 C   0  0  0  0  0  0  0  0  0  0  0  0
    2.7878   -8.3822   16.2137 C   0  0  0  0  0  0  0  0  0  0  0  0
    9.4601   -2.6590   25.6528 C   0  0  0  0  0  0  0  0  0  0  0  0
   10.1182   -1.5672   23.1165 C   0  0  0  0  0  0  0  0  0  0  0  0
    1.0552   -9.6360   17.0650 C   0  0  0  0  0  0  0  0  0  0  0  0
    3.6519   -9.1783   16.9039 C   0  0  0  0  0  0  0  0  0  0  0  0
    7.8675   -7.0096   15.9415 C   0  0  0  0  0  0  0  0  0  0  0  0
    5.9733   -9.6553   17.3832 N   0  0  0  0  0  0  0  0  0  0  0  0
   10.2411   -2.9363   23.4301 C   0  0  0  0  0  0  0  0  0  0  0  0
   10.7288   -3.8197   19.9525 C   0  0  0  0  0  0  0  0  0  0  0  0
   10.1189   -5.0054   19.6987 C   0  0  0  0  0  0  0  0  0  0  0  0
  1  3  4  0
  1  7  4  0
  2 21  4  0
  2 27  4  0
  3  9  4  0
  3 10  4  0
  4  8  4  0
  4 18  4  0
  4 25  1  0
  5  9  4  0
  5 12  4  0
  6 13  1  0
  6 27  1  0
  7 28  4  0
  8 11  4  0
  9 29  4  0
 10 12  4  0
 11 24  1  0
 11 26  4  0
 12 25  1  0
 13 28  1  0
 14 20  4  0
 14 23  4  0
 15 17  4  0
 15 21  4  0
 16 19  4  0
 16 23  4  0
 17 22  4  0
 18 26  4  0
 19 24  4  0
 20 24  4  0
 22 27  4  0
 28 29  4  0
M  END
$$$$

 Created by Python create_sdf_string function

 29 33  0  0  0  0  0  0  0  0999 V2000
   10.7215   -3.3326   17.6437 C   0  0  0  0  0  0  0  0  0  0  0  0
    9.9489   -3.4675   24.6487 N   0  0  0  0  0  0  0  0  0  0  0  0
   10.0172   -4.4740   17.4101 C   0  0  0  0  0  0  0  0  0  0  0  0
    6.9051   -7.9575   16.4222 C   0  0  0  0  0  0  0  0  0  0  0  0
    8.9969   -6.3552   17.9668 N   0  0  0  0  0  0  0  0  0  0  0  0
   10.6702   -3.9051   22.4070 C   0  0  0  0  0  0  0  0  0  0  0  0
   11.0625   -3.0028   18.8894 C   0  0  0  0  0  0  0  0  0  0  0  0
    5.6180   -7.9194   16.1754 O   0  0  0  0  0  0  0  0  0  0  0  0
    9.7259   -5.3080   18.4485 C   0  0  0  0  0  0  0  0  0  0  0  0
    9.4578   -5.0200   16.3036 N   0  0  0  0  0  0  0  0  0  0  0  0
    5.0287   -8.9365   16.8223 C   0  0  0  0  0  0  0  0  0  0  0  0
    8.7742   -6.1498   16.6764 C   0  0  0  0  0  0  0  0  0  0  0  0
   10.9418   -3.4032   21.2053 O   0  0  0  0  0  0  0  0  0  0  0  0
    1.4797   -8.6258   16.2950 C   0  0  0  0  0  0  0  0  0  0  0  0
    9.2861   -1.2743   25.3585 C   0  0  0  0  0  0  0  0  0  0  0  0
    1.8892  -10.3985   17.7511 N   0  0  0  0  0  0  0  0  0  0  0  0
    9.6210   -0.6952   24.0976 C   0  0  0  0  0  0  0  0  0  0  0  0
    7.0792   -9.0217   17.1429 C   0  0  0  0  0  0  0  0  0  0  0  0
    3.1713  -10.1816   17.6634 C   0  0  0  0  0  0  0  0  0  0  0  0
    2.7878   -8.3822   16.2137 C   0  0  0  0  0  0  0  0  0  0  0  0
    9.4601   -2.6590   25.6528 C   0  0  0  0  0  0  0  0  0  0  0  0
   10.1182   -1.5672   23.1165 C   0  0  0  0  0  0  0  0  0  0  0  0
    1.0552   -9.6360   17.0650 C   0  0  0  0  0  0  0  0  0  0  0  0
    3.6519   -9.1783   16.9039 C   0  0  0  0  0  0  0  0  0  0  0  0
    7.8675   -7.0096   15.9415 C   0  0  0  0  0  0  0  0  0  0  0  0
    5.9733   -9.6553   17.3832 N   0  0  0  0  0  0  0  0  0  0  0  0
   10.2411   -2.9363   23.4301 C   0  0  0  0  0  0  0  0  0  0  0  0
   10.7288   -3.8197   19.9525 C   0  0  0  0  0  0  0  0  0  0  0  0
   10.1189   -5.0054   19.6987 C   0  0  0  0  0  0  0  0  0  0  0  0
  1  3  4  0
  1  7  4  0
  2 21  4  0
  2 27  4  0
  3  9  4  0
  3 10  4  0
  4  8  4  0
  4 18  4  0
  4 25  1  0
  5  9  4  0
  5 12  4  0
  6 13  1  0
  6 27  1  0
  7 28  4  0
  8 11  4  0
  9 29  4  0
 10 12  4  0
 11 24  1  0
 11 26  4  0
 12 25  1  0
 13 28  1  0
 14 20  4  0
 14 23  4  0
 15 17  4  0
 15 21  4  0
 16 19  4  0
 16 23  4  0
 17 22  4  0
 18 26  4  0
 19 24  4  0
 20 24  4  0
 22 27  4  0
 28 29  4  0
M  END
$$$$

 Created by Python create_sdf_string function

 29 33  0  0  0  0  0  0  0  0999 V2000
   10.7215   -3.3326   17.6437 C   0  0  0  0  0  0  0  0  0  0  0  0
    9.9489   -3.4675   24.6487 N   0  0  0  0  0  0  0  0  0  0  0  0
   10.0172   -4.4740   17.4101 C   0  0  0  0  0  0  0  0  0  0  0  0
    6.9051   -7.9575   16.4222 C   0  0  0  0  0  0  0  0  0  0  0  0
    8.9969   -6.3552   17.9668 N   0  0  0  0  0  0  0  0  0  0  0  0
   10.6702   -3.9051   22.4070 C   0  0  0  0  0  0  0  0  0  0  0  0
   11.0625   -3.0028   18.8894 C   0  0  0  0  0  0  0  0  0  0  0  0
    5.6180   -7.9194   16.1754 O   0  0  0  0  0  0  0  0  0  0  0  0
    9.7259   -5.3080   18.4485 C   0  0  0  0  0  0  0  0  0  0  0  0
    9.4578   -5.0200   16.3036 N   0  0  0  0  0  0  0  0  0  0  0  0
    5.0287   -8.9365   16.8223 C   0  0  0  0  0  0  0  0  0  0  0  0
    8.7742   -6.1498   16.6764 C   0  0  0  0  0  0  0  0  0  0  0  0
   10.9418   -3.4032   21.2053 O   0  0  0  0  0  0  0  0  0  0  0  0
    1.4797   -8.6258   16.2950 C   0  0  0  0  0  0  0  0  0  0  0  0
    9.2861   -1.2743   25.3585 C   0  0  0  0  0  0  0  0  0  0  0  0
    1.8892  -10.3985   17.7511 N   0  0  0  0  0  0  0  0  0  0  0  0
    9.6210   -0.6952   24.0976 C   0  0  0  0  0  0  0  0  0  0  0  0
    7.0792   -9.0217   17.1429 C   0  0  0  0  0  0  0  0  0  0  0  0
    3.1713  -10.1816   17.6634 C   0  0  0  0  0  0  0  0  0  0  0  0
    2.7878   -8.3822   16.2137 C   0  0  0  0  0  0  0  0  0  0  0  0
    9.4601   -2.6590   25.6528 C   0  0  0  0  0  0  0  0  0  0  0  0
   10.1182   -1.5672   23.1165 C   0  0  0  0  0  0  0  0  0  0  0  0
    1.0552   -9.6360   17.0650 C   0  0  0  0  0  0  0  0  0  0  0  0
    3.6519   -9.1783   16.9039 C   0  0  0  0  0  0  0  0  0  0  0  0
    7.8675   -7.0096   15.9415 C   0  0  0  0  0  0  0  0  0  0  0  0
    5.9733   -9.6553   17.3832 N   0  0  0  0  0  0  0  0  0  0  0  0
   10.2411   -2.9363   23.4301 C   0  0  0  0  0  0  0  0  0  0  0  0
   10.7288   -3.8197   19.9525 C   0  0  0  0  0  0  0  0  0  0  0  0
   10.1189   -5.0054   19.6987 C   0  0  0  0  0  0  0  0  0  0  0  0
  1  3  4  0
  1  7  4  0
  2 21  4  0
  2 27  4  0
  3  9  4  0
  3 10  4  0
  4  8  4  0
  4 18  4  0
  4 25  1  0
  5  9  4  0
  5 12  4  0
  6 13  1  0
  6 27  1  0
  7 28  4  0
  8 11  4  0
  9 29  4  0
 10 12  4  0
 11 24  1  0
 11 26  4  0
 12 25  1  0
 13 28  1  0
 14 20  4  0
 14 23  4  0
 15 17  4  0
 15 21  4  0
 16 19  4  0
 16 23  4  0
 17 22  4  0
 18 26  4  0
 19 24  4  0
 20 24  4  0
 22 27  4  0
 28 29  4  0
M  END
$$$$

 Created by Python create_sdf_string function

 29 33  0  0  0  0  0  0  0  0999 V2000
   10.7215   -3.3326   17.6437 C   0  0  0  0  0  0  0  0  0  0  0  0
    9.9489   -3.4675   24.6487 N   0  0  0  0  0  0  0  0  0  0  0  0
   10.0172   -4.4740   17.4101 C   0  0  0  0  0  0  0  0  0  0  0  0
    6.9051   -7.9575   16.4222 C   0  0  0  0  0  0  0  0  0  0  0  0
    8.9969   -6.3552   17.9668 N   0  0  0  0  0  0  0  0  0  0  0  0
   10.6702   -3.9051   22.4070 C   0  0  0  0  0  0  0  0  0  0  0  0
   11.0625   -3.0028   18.8894 C   0  0  0  0  0  0  0  0  0  0  0  0
    5.6180   -7.9194   16.1754 O   0  0  0  0  0  0  0  0  0  0  0  0
    9.7259   -5.3080   18.4485 C   0  0  0  0  0  0  0  0  0  0  0  0
    9.4578   -5.0200   16.3036 N   0  0  0  0  0  0  0  0  0  0  0  0
    5.0287   -8.9365   16.8223 C   0  0  0  0  0  0  0  0  0  0  0  0
    8.7742   -6.1498   16.6764 C   0  0  0  0  0  0  0  0  0  0  0  0
   10.9418   -3.4032   21.2053 O   0  0  0  0  0  0  0  0  0  0  0  0
    1.4797   -8.6258   16.2950 C   0  0  0  0  0  0  0  0  0  0  0  0
    9.2861   -1.2743   25.3585 C   0  0  0  0  0  0  0  0  0  0  0  0
    1.8892  -10.3985   17.7511 N   0  0  0  0  0  0  0  0  0  0  0  0
    9.6210   -0.6952   24.0976 C   0  0  0  0  0  0  0  0  0  0  0  0
    7.0792   -9.0217   17.1429 C   0  0  0  0  0  0  0  0  0  0  0  0
    3.1713  -10.1816   17.6634 C   0  0  0  0  0  0  0  0  0  0  0  0
    2.7878   -8.3822   16.2137 C   0  0  0  0  0  0  0  0  0  0  0  0
    9.4601   -2.6590   25.6528 C   0  0  0  0  0  0  0  0  0  0  0  0
   10.1182   -1.5672   23.1165 C   0  0  0  0  0  0  0  0  0  0  0  0
    1.0552   -9.6360   17.0650 C   0  0  0  0  0  0  0  0  0  0  0  0
    3.6519   -9.1783   16.9039 C   0  0  0  0  0  0  0  0  0  0  0  0
    7.8675   -7.0096   15.9415 C   0  0  0  0  0  0  0  0  0  0  0  0
    5.9733   -9.6553   17.3832 N   0  0  0  0  0  0  0  0  0  0  0  0
   10.2411   -2.9363   23.4301 C   0  0  0  0  0  0  0  0  0  0  0  0
   10.7288   -3.8197   19.9525 C   0  0  0  0  0  0  0  0  0  0  0  0
   10.1189   -5.0054   19.6987 C   0  0  0  0  0  0  0  0  0  0  0  0
  1  3  4  0
  1  7  4  0
  2 21  4  0
  2 27  4  0
  3  9  4  0
  3 10  4  0
  4  8  4  0
  4 18  4  0
  4 25  1  0
  5  9  4  0
  5 12  4  0
  6 13  1  0
  6 27  1  0
  7 28  4  0
  8 11  4  0
  9 29  4  0
 10 12  4  0
 11 24  1  0
 11 26  4  0
 12 25  1  0
 13 28  1  0
 14 20  4  0
 14 23  4  0
 15 17  4  0
 15 21  4  0
 16 19  4  0
 16 23  4  0
 17 22  4  0
 18 26  4  0
 19 24  4  0
 20 24  4  0
 22 27  4  0
 28 29  4  0
M  END
$$$$

 Created by Python create_sdf_string function

 29 33  0  0  0  0  0  0  0  0999 V2000
   10.7215   -3.3326   17.6437 C   0  0  0  0  0  0  0  0  0  0  0  0
    9.9489   -3.4675   24.6487 N   0  0  0  0  0  0  0  0  0  0  0  0
   10.0172   -4.4740   17.4101 C   0  0  0  0  0  0  0  0  0  0  0  0
    6.9051   -7.9575   16.4222 C   0  0  0  0  0  0  0  0  0  0  0  0
    8.9969   -6.3552   17.9668 N   0  0  0  0  0  0  0  0  0  0  0  0
   10.6702   -3.9051   22.4070 C   0  0  0  0  0  0  0  0  0  0  0  0
   11.0625   -3.0028   18.8894 C   0  0  0  0  0  0  0  0  0  0  0  0
    5.6180   -7.9194   16.1754 O   0  0  0  0  0  0  0  0  0  0  0  0
    9.7259   -5.3080   18.4485 C   0  0  0  0  0  0  0  0  0  0  0  0
    9.4578   -5.0200   16.3036 N   0  0  0  0  0  0  0  0  0  0  0  0
    5.0287   -8.9365   16.8223 C   0  0  0  0  0  0  0  0  0  0  0  0
    8.7742   -6.1498   16.6764 C   0  0  0  0  0  0  0  0  0  0  0  0
   10.9418   -3.4032   21.2053 O   0  0  0  0  0  0  0  0  0  0  0  0
    1.4797   -8.6258   16.2950 C   0  0  0  0  0  0  0  0  0  0  0  0
    9.2861   -1.2743   25.3585 C   0  0  0  0  0  0  0  0  0  0  0  0
    1.8892  -10.3985   17.7511 N   0  0  0  0  0  0  0  0  0  0  0  0
    9.6210   -0.6952   24.0976 C   0  0  0  0  0  0  0  0  0  0  0  0
    7.0792   -9.0217   17.1429 C   0  0  0  0  0  0  0  0  0  0  0  0
    3.1713  -10.1816   17.6634 C   0  0  0  0  0  0  0  0  0  0  0  0
    2.7878   -8.3822   16.2137 C   0  0  0  0  0  0  0  0  0  0  0  0
    9.4601   -2.6590   25.6528 C   0  0  0  0  0  0  0  0  0  0  0  0
   10.1182   -1.5672   23.1165 C   0  0  0  0  0  0  0  0  0  0  0  0
    1.0552   -9.6360   17.0650 C   0  0  0  0  0  0  0  0  0  0  0  0
    3.6519   -9.1783   16.9039 C   0  0  0  0  0  0  0  0  0  0  0  0
    7.8675   -7.0096   15.9415 C   0  0  0  0  0  0  0  0  0  0  0  0
    5.9733   -9.6553   17.3832 N   0  0  0  0  0  0  0  0  0  0  0  0
   10.2411   -2.9363   23.4301 C   0  0  0  0  0  0  0  0  0  0  0  0
   10.7288   -3.8197   19.9525 C   0  0  0  0  0  0  0  0  0  0  0  0
   10.1189   -5.0054   19.6987 C   0  0  0  0  0  0  0  0  0  0  0  0
  1  3  4  0
  1  7  4  0
  2 21  4  0
  2 27  4  0
  3  9  4  0
  3 10  4  0
  4  8  4  0
  4 18  4  0
  4 25  1  0
  5  9  4  0
  5 12  4  0
  6 13  1  0
  6 27  1  0
  7 28  4  0
  8 11  4  0
  9 29  4  0
 10 12  4  0
 11 24  1  0
 11 26  4  0
 12 25  1  0
 13 28  1  0
 14 20  4  0
 14 23  4  0
 15 17  4  0
 15 21  4  0
 16 19  4  0
 16 23  4  0
 17 22  4  0
 18 26  4  0
 19 24  4  0
 20 24  4  0
 22 27  4  0
 28 29  4  0
M  END
$$$$

 Created by Python create_sdf_string function

 29 33  0  0  0  0  0  0  0  0999 V2000
   10.7215   -3.3326   17.6437 C   0  0  0  0  0  0  0  0  0  0  0  0
    9.9489   -3.4675   24.6487 N   0  0  0  0  0  0  0  0  0  0  0  0
   10.0172   -4.4740   17.4101 C   0  0  0  0  0  0  0  0  0  0  0  0
    6.9051   -7.9575   16.4222 C   0  0  0  0  0  0  0  0  0  0  0  0
    8.9969   -6.3552   17.9668 N   0  0  0  0  0  0  0  0  0  0  0  0
   10.6702   -3.9051   22.4070 C   0  0  0  0  0  0  0  0  0  0  0  0
   11.0625   -3.0028   18.8894 C   0  0  0  0  0  0  0  0  0  0  0  0
    5.6180   -7.9194   16.1754 O   0  0  0  0  0  0  0  0  0  0  0  0
    9.7259   -5.3080   18.4485 C   0  0  0  0  0  0  0  0  0  0  0  0
    9.4578   -5.0200   16.3036 N   0  0  0  0  0  0  0  0  0  0  0  0
    5.0287   -8.9365   16.8223 C   0  0  0  0  0  0  0  0  0  0  0  0
    8.7742   -6.1498   16.6764 C   0  0  0  0  0  0  0  0  0  0  0  0
   10.9418   -3.4032   21.2053 O   0  0  0  0  0  0  0  0  0  0  0  0
    1.4797   -8.6258   16.2950 C   0  0  0  0  0  0  0  0  0  0  0  0
    9.2861   -1.2743   25.3585 C   0  0  0  0  0  0  0  0  0  0  0  0
    1.8892  -10.3985   17.7511 N   0  0  0  0  0  0  0  0  0  0  0  0
    9.6210   -0.6952   24.0976 C   0  0  0  0  0  0  0  0  0  0  0  0
    7.0792   -9.0217   17.1429 C   0  0  0  0  0  0  0  0  0  0  0  0
    3.1713  -10.1816   17.6634 C   0  0  0  0  0  0  0  0  0  0  0  0
    2.7878   -8.3822   16.2137 C   0  0  0  0  0  0  0  0  0  0  0  0
    9.4601   -2.6590   25.6528 C   0  0  0  0  0  0  0  0  0  0  0  0
   10.1182   -1.5672   23.1165 C   0  0  0  0  0  0  0  0  0  0  0  0
    1.0552   -9.6360   17.0650 C   0  0  0  0  0  0  0  0  0  0  0  0
    3.6519   -9.1783   16.9039 C   0  0  0  0  0  0  0  0  0  0  0  0
    7.8675   -7.0096   15.9415 C   0  0  0  0  0  0  0  0  0  0  0  0
    5.9733   -9.6553   17.3832 N   0  0  0  0  0  0  0  0  0  0  0  0
   10.2411   -2.9363   23.4301 C   0  0  0  0  0  0  0  0  0  0  0  0
   10.7288   -3.8197   19.9525 C   0  0  0  0  0  0  0  0  0  0  0  0
   10.1189   -5.0054   19.6987 C   0  0  0  0  0  0  0  0  0  0  0  0
  1  3  4  0
  1  7  4  0
  2 21  4  0
  2 27  4  0
  3  9  4  0
  3 10  4  0
  4  8  4  0
  4 18  4  0
  4 25  1  0
  5  9  4  0
  5 12  4  0
  6 13  1  0
  6 27  1  0
  7 28  4  0
  8 11  4  0
  9 29  4  0
 10 12  4  0
 11 24  1  0
 11 26  4  0
 12 25  1  0
 13 28  1  0
 14 20  4  0
 14 23  4  0
 15 17  4  0
 15 21  4  0
 16 19  4  0
 16 23  4  0
 17 22  4  0
 18 26  4  0
 19 24  4  0
 20 24  4  0
 22 27  4  0
 28 29  4  0
M  END
$$$$

 Created by Python create_sdf_string function

 29 33  0  0  0  0  0  0  0  0999 V2000
   10.7215   -3.3326   17.6437 C   0  0  0  0  0  0  0  0  0  0  0  0
    9.9489   -3.4675   24.6487 N   0  0  0  0  0  0  0  0  0  0  0  0
   10.0172   -4.4740   17.4101 C   0  0  0  0  0  0  0  0  0  0  0  0
    6.9051   -7.9575   16.4222 C   0  0  0  0  0  0  0  0  0  0  0  0
    8.9969   -6.3552   17.9668 N   0  0  0  0  0  0  0  0  0  0  0  0
   10.6702   -3.9051   22.4070 C   0  0  0  0  0  0  0  0  0  0  0  0
   11.0625   -3.0028   18.8894 C   0  0  0  0  0  0  0  0  0  0  0  0
    5.6180   -7.9194   16.1754 O   0  0  0  0  0  0  0  0  0  0  0  0
    9.7259   -5.3080   18.4485 C   0  0  0  0  0  0  0  0  0  0  0  0
    9.4578   -5.0200   16.3036 N   0  0  0  0  0  0  0  0  0  0  0  0
    5.0287   -8.9365   16.8223 C   0  0  0  0  0  0  0  0  0  0  0  0
    8.7742   -6.1498   16.6764 C   0  0  0  0  0  0  0  0  0  0  0  0
   10.9418   -3.4032   21.2053 O   0  0  0  0  0  0  0  0  0  0  0  0
    1.4797   -8.6258   16.2950 C   0  0  0  0  0  0  0  0  0  0  0  0
    9.2861   -1.2743   25.3585 C   0  0  0  0  0  0  0  0  0  0  0  0
    1.8892  -10.3985   17.7511 N   0  0  0  0  0  0  0  0  0  0  0  0
    9.6210   -0.6952   24.0976 C   0  0  0  0  0  0  0  0  0  0  0  0
    7.0792   -9.0217   17.1429 C   0  0  0  0  0  0  0  0  0  0  0  0
    3.1713  -10.1816   17.6634 C   0  0  0  0  0  0  0  0  0  0  0  0
    2.7878   -8.3822   16.2137 C   0  0  0  0  0  0  0  0  0  0  0  0
    9.4601   -2.6590   25.6528 C   0  0  0  0  0  0  0  0  0  0  0  0
   10.1182   -1.5672   23.1165 C   0  0  0  0  0  0  0  0  0  0  0  0
    1.0552   -9.6360   17.0650 C   0  0  0  0  0  0  0  0  0  0  0  0
    3.6519   -9.1783   16.9039 C   0  0  0  0  0  0  0  0  0  0  0  0
    7.8675   -7.0096   15.9415 C   0  0  0  0  0  0  0  0  0  0  0  0
    5.9733   -9.6553   17.3832 N   0  0  0  0  0  0  0  0  0  0  0  0
   10.2411   -2.9363   23.4301 C   0  0  0  0  0  0  0  0  0  0  0  0
   10.7288   -3.8197   19.9525 C   0  0  0  0  0  0  0  0  0  0  0  0
   10.1189   -5.0054   19.6987 C   0  0  0  0  0  0  0  0  0  0  0  0
  1  3  4  0
  1  7  4  0
  2 21  4  0
  2 27  4  0
  3  9  4  0
  3 10  4  0
  4  8  4  0
  4 18  4  0
  4 25  1  0
  5  9  4  0
  5 12  4  0
  6 13  1  0
  6 27  1  0
  7 28  4  0
  8 11  4  0
  9 29  4  0
 10 12  4  0
 11 24  1  0
 11 26  4  0
 12 25  1  0
 13 28  1  0
 14 20  4  0
 14 23  4  0
 15 17  4  0
 15 21  4  0
 16 19  4  0
 16 23  4  0
 17 22  4  0
 18 26  4  0
 19 24  4  0
 20 24  4  0
 22 27  4  0
 28 29  4  0
M  END
$$$$

 Created by Python create_sdf_string function

 29 33  0  0  0  0  0  0  0  0999 V2000
   10.7215   -3.3326   17.6437 C   0  0  0  0  0  0  0  0  0  0  0  0
    9.9489   -3.4675   24.6487 N   0  0  0  0  0  0  0  0  0  0  0  0
   10.0172   -4.4740   17.4101 C   0  0  0  0  0  0  0  0  0  0  0  0
    6.9051   -7.9575   16.4222 C   0  0  0  0  0  0  0  0  0  0  0  0
    8.9969   -6.3552   17.9668 N   0  0  0  0  0  0  0  0  0  0  0  0
   10.6702   -3.9051   22.4070 C   0  0  0  0  0  0  0  0  0  0  0  0
   11.0625   -3.0028   18.8894 C   0  0  0  0  0  0  0  0  0  0  0  0
    5.6180   -7.9194   16.1754 O   0  0  0  0  0  0  0  0  0  0  0  0
    9.7259   -5.3080   18.4485 C   0  0  0  0  0  0  0  0  0  0  0  0
    9.4578   -5.0200   16.3036 N   0  0  0  0  0  0  0  0  0  0  0  0
    5.0287   -8.9365   16.8223 C   0  0  0  0  0  0  0  0  0  0  0  0
    8.7742   -6.1498   16.6764 C   0  0  0  0  0  0  0  0  0  0  0  0
   10.9418   -3.4032   21.2053 O   0  0  0  0  0  0  0  0  0  0  0  0
    1.4797   -8.6258   16.2950 C   0  0  0  0  0  0  0  0  0  0  0  0
    9.2861   -1.2743   25.3585 C   0  0  0  0  0  0  0  0  0  0  0  0
    1.8892  -10.3985   17.7511 N   0  0  0  0  0  0  0  0  0  0  0  0
    9.6210   -0.6952   24.0976 C   0  0  0  0  0  0  0  0  0  0  0  0
    7.0792   -9.0217   17.1429 C   0  0  0  0  0  0  0  0  0  0  0  0
    3.1713  -10.1816   17.6634 C   0  0  0  0  0  0  0  0  0  0  0  0
    2.7878   -8.3822   16.2137 C   0  0  0  0  0  0  0  0  0  0  0  0
    9.4601   -2.6590   25.6528 C   0  0  0  0  0  0  0  0  0  0  0  0
   10.1182   -1.5672   23.1165 C   0  0  0  0  0  0  0  0  0  0  0  0
    1.0552   -9.6360   17.0650 C   0  0  0  0  0  0  0  0  0  0  0  0
    3.6519   -9.1783   16.9039 C   0  0  0  0  0  0  0  0  0  0  0  0
    7.8675   -7.0096   15.9415 C   0  0  0  0  0  0  0  0  0  0  0  0
    5.9733   -9.6553   17.3832 N   0  0  0  0  0  0  0  0  0  0  0  0
   10.2411   -2.9363   23.4301 C   0  0  0  0  0  0  0  0  0  0  0  0
   10.7288   -3.8197   19.9525 C   0  0  0  0  0  0  0  0  0  0  0  0
   10.1189   -5.0054   19.6987 C   0  0  0  0  0  0  0  0  0  0  0  0
  1  3  4  0
  1  7  4  0
  2 21  4  0
  2 27  4  0
  3  9  4  0
  3 10  4  0
  4  8  4  0
  4 18  4  0
  4 25  1  0
  5  9  4  0
  5 12  4  0
  6 13  1  0
  6 27  1  0
  7 28  4  0
  8 11  4  0
  9 29  4  0
 10 12  4  0
 11 24  1  0
 11 26  4  0
 12 25  1  0
 13 28  1  0
 14 20  4  0
 14 23  4  0
 15 17  4  0
 15 21  4  0
 16 19  4  0
 16 23  4  0
 17 22  4  0
 18 26  4  0
 19 24  4  0
 20 24  4  0
 22 27  4  0
 28 29  4  0
M  END
$$$$

 Created by Python create_sdf_string function

 29 33  0  0  0  0  0  0  0  0999 V2000
   10.7215   -3.3326   17.6437 C   0  0  0  0  0  0  0  0  0  0  0  0
    9.9489   -3.4675   24.6487 N   0  0  0  0  0  0  0  0  0  0  0  0
   10.0172   -4.4740   17.4101 C   0  0  0  0  0  0  0  0  0  0  0  0
    6.9051   -7.9575   16.4222 C   0  0  0  0  0  0  0  0  0  0  0  0
    8.9969   -6.3552   17.9668 N   0  0  0  0  0  0  0  0  0  0  0  0
   10.6702   -3.9051   22.4070 C   0  0  0  0  0  0  0  0  0  0  0  0
   11.0625   -3.0028   18.8894 C   0  0  0  0  0  0  0  0  0  0  0  0
    5.6180   -7.9194   16.1754 O   0  0  0  0  0  0  0  0  0  0  0  0
    9.7259   -5.3080   18.4485 C   0  0  0  0  0  0  0  0  0  0  0  0
    9.4578   -5.0200   16.3036 N   0  0  0  0  0  0  0  0  0  0  0  0
    5.0287   -8.9365   16.8223 C   0  0  0  0  0  0  0  0  0  0  0  0
    8.7742   -6.1498   16.6764 C   0  0  0  0  0  0  0  0  0  0  0  0
   10.9418   -3.4032   21.2053 O   0  0  0  0  0  0  0  0  0  0  0  0
    1.4797   -8.6258   16.2950 C   0  0  0  0  0  0  0  0  0  0  0  0
    9.2861   -1.2743   25.3585 C   0  0  0  0  0  0  0  0  0  0  0  0
    1.8892  -10.3985   17.7511 N   0  0  0  0  0  0  0  0  0  0  0  0
    9.6210   -0.6952   24.0976 C   0  0  0  0  0  0  0  0  0  0  0  0
    7.0792   -9.0217   17.1429 C   0  0  0  0  0  0  0  0  0  0  0  0
    3.1713  -10.1816   17.6634 C   0  0  0  0  0  0  0  0  0  0  0  0
    2.7878   -8.3822   16.2137 C   0  0  0  0  0  0  0  0  0  0  0  0
    9.4601   -2.6590   25.6528 C   0  0  0  0  0  0  0  0  0  0  0  0
   10.1182   -1.5672   23.1165 C   0  0  0  0  0  0  0  0  0  0  0  0
    1.0552   -9.6360   17.0650 C   0  0  0  0  0  0  0  0  0  0  0  0
    3.6519   -9.1783   16.9039 C   0  0  0  0  0  0  0  0  0  0  0  0
    7.8675   -7.0096   15.9415 C   0  0  0  0  0  0  0  0  0  0  0  0
    5.9733   -9.6553   17.3832 N   0  0  0  0  0  0  0  0  0  0  0  0
   10.2411   -2.9363   23.4301 C   0  0  0  0  0  0  0  0  0  0  0  0
   10.7288   -3.8197   19.9525 C   0  0  0  0  0  0  0  0  0  0  0  0
   10.1189   -5.0054   19.6987 C   0  0  0  0  0  0  0  0  0  0  0  0
  1  3  4  0
  1  7  4  0
  2 21  4  0
  2 27  4  0
  3  9  4  0
  3 10  4  0
  4  8  4  0
  4 18  4  0
  4 25  1  0
  5  9  4  0
  5 12  4  0
  6 13  1  0
  6 27  1  0
  7 28  4  0
  8 11  4  0
  9 29  4  0
 10 12  4  0
 11 24  1  0
 11 26  4  0
 12 25  1  0
 13 28  1  0
 14 20  4  0
 14 23  4  0
 15 17  4  0
 15 21  4  0
 16 19  4  0
 16 23  4  0
 17 22  4  0
 18 26  4  0
 19 24  4  0
 20 24  4  0
 22 27  4  0
 28 29  4  0
M  END
$$$$

 Created by Python create_sdf_string function

 29 33  0  0  0  0  0  0  0  0999 V2000
   10.7215   -3.3326   17.6437 C   0  0  0  0  0  0  0  0  0  0  0  0
    9.9489   -3.4675   24.6487 N   0  0  0  0  0  0  0  0  0  0  0  0
   10.0172   -4.4740   17.4101 C   0  0  0  0  0  0  0  0  0  0  0  0
    6.9051   -7.9575   16.4222 C   0  0  0  0  0  0  0  0  0  0  0  0
    8.9969   -6.3552   17.9668 N   0  0  0  0  0  0  0  0  0  0  0  0
   10.6702   -3.9051   22.4070 C   0  0  0  0  0  0  0  0  0  0  0  0
   11.0625   -3.0028   18.8894 C   0  0  0  0  0  0  0  0  0  0  0  0
    5.6180   -7.9194   16.1754 O   0  0  0  0  0  0  0  0  0  0  0  0
    9.7259   -5.3080   18.4485 C   0  0  0  0  0  0  0  0  0  0  0  0
    9.4578   -5.0200   16.3036 N   0  0  0  0  0  0  0  0  0  0  0  0
    5.0287   -8.9365   16.8223 C   0  0  0  0  0  0  0  0  0  0  0  0
    8.7742   -6.1498   16.6764 C   0  0  0  0  0  0  0  0  0  0  0  0
   10.9418   -3.4032   21.2053 O   0  0  0  0  0  0  0  0  0  0  0  0
    1.4797   -8.6258   16.2950 C   0  0  0  0  0  0  0  0  0  0  0  0
    9.2861   -1.2743   25.3585 C   0  0  0  0  0  0  0  0  0  0  0  0
    1.8892  -10.3985   17.7511 N   0  0  0  0  0  0  0  0  0  0  0  0
    9.6210   -0.6952   24.0976 C   0  0  0  0  0  0  0  0  0  0  0  0
    7.0792   -9.0217   17.1429 C   0  0  0  0  0  0  0  0  0  0  0  0
    3.1713  -10.1816   17.6634 C   0  0  0  0  0  0  0  0  0  0  0  0
    2.7878   -8.3822   16.2137 C   0  0  0  0  0  0  0  0  0  0  0  0
    9.4601   -2.6590   25.6528 C   0  0  0  0  0  0  0  0  0  0  0  0
   10.1182   -1.5672   23.1165 C   0  0  0  0  0  0  0  0  0  0  0  0
    1.0552   -9.6360   17.0650 C   0  0  0  0  0  0  0  0  0  0  0  0
    3.6519   -9.1783   16.9039 C   0  0  0  0  0  0  0  0  0  0  0  0
    7.8675   -7.0096   15.9415 C   0  0  0  0  0  0  0  0  0  0  0  0
    5.9733   -9.6553   17.3832 N   0  0  0  0  0  0  0  0  0  0  0  0
   10.2411   -2.9363   23.4301 C   0  0  0  0  0  0  0  0  0  0  0  0
   10.7288   -3.8197   19.9525 C   0  0  0  0  0  0  0  0  0  0  0  0
   10.1189   -5.0054   19.6987 C   0  0  0  0  0  0  0  0  0  0  0  0
  1  3  4  0
  1  7  4  0
  2 21  4  0
  2 27  4  0
  3  9  4  0
  3 10  4  0
  4  8  4  0
  4 18  4  0
  4 25  1  0
  5  9  4  0
  5 12  4  0
  6 13  1  0
  6 27  1  0
  7 28  4  0
  8 11  4  0
  9 29  4  0
 10 12  4  0
 11 24  1  0
 11 26  4  0
 12 25  1  0
 13 28  1  0
 14 20  4  0
 14 23  4  0
 15 17  4  0
 15 21  4  0
 16 19  4  0
 16 23  4  0
 17 22  4  0
 18 26  4  0
 19 24  4  0
 20 24  4  0
 22 27  4  0
 28 29  4  0
M  END
$$$$

 Created by Python create_sdf_string function

 29 33  0  0  0  0  0  0  0  0999 V2000
   10.7215   -3.3326   17.6437 C   0  0  0  0  0  0  0  0  0  0  0  0
    9.9489   -3.4675   24.6487 N   0  0  0  0  0  0  0  0  0  0  0  0
   10.0172   -4.4740   17.4101 C   0  0  0  0  0  0  0  0  0  0  0  0
    6.9051   -7.9575   16.4222 C   0  0  0  0  0  0  0  0  0  0  0  0
    8.9969   -6.3552   17.9668 N   0  0  0  0  0  0  0  0  0  0  0  0
   10.6702   -3.9051   22.4070 C   0  0  0  0  0  0  0  0  0  0  0  0
   11.0625   -3.0028   18.8894 C   0  0  0  0  0  0  0  0  0  0  0  0
    5.6180   -7.9194   16.1754 O   0  0  0  0  0  0  0  0  0  0  0  0
    9.7259   -5.3080   18.4485 C   0  0  0  0  0  0  0  0  0  0  0  0
    9.4578   -5.0200   16.3036 N   0  0  0  0  0  0  0  0  0  0  0  0
    5.0287   -8.9365   16.8223 C   0  0  0  0  0  0  0  0  0  0  0  0
    8.7742   -6.1498   16.6764 C   0  0  0  0  0  0  0  0  0  0  0  0
   10.9418   -3.4032   21.2053 O   0  0  0  0  0  0  0  0  0  0  0  0
    1.4797   -8.6258   16.2950 C   0  0  0  0  0  0  0  0  0  0  0  0
    9.2861   -1.2743   25.3585 C   0  0  0  0  0  0  0  0  0  0  0  0
    1.8892  -10.3985   17.7511 N   0  0  0  0  0  0  0  0  0  0  0  0
    9.6210   -0.6952   24.0976 C   0  0  0  0  0  0  0  0  0  0  0  0
    7.0792   -9.0217   17.1429 C   0  0  0  0  0  0  0  0  0  0  0  0
    3.1713  -10.1816   17.6634 C   0  0  0  0  0  0  0  0  0  0  0  0
    2.7878   -8.3822   16.2137 C   0  0  0  0  0  0  0  0  0  0  0  0
    9.4601   -2.6590   25.6528 C   0  0  0  0  0  0  0  0  0  0  0  0
   10.1182   -1.5672   23.1165 C   0  0  0  0  0  0  0  0  0  0  0  0
    1.0552   -9.6360   17.0650 C   0  0  0  0  0  0  0  0  0  0  0  0
    3.6519   -9.1783   16.9039 C   0  0  0  0  0  0  0  0  0  0  0  0
    7.8675   -7.0096   15.9415 C   0  0  0  0  0  0  0  0  0  0  0  0
    5.9733   -9.6553   17.3832 N   0  0  0  0  0  0  0  0  0  0  0  0
   10.2411   -2.9363   23.4301 C   0  0  0  0  0  0  0  0  0  0  0  0
   10.7288   -3.8197   19.9525 C   0  0  0  0  0  0  0  0  0  0  0  0
   10.1189   -5.0054   19.6987 C   0  0  0  0  0  0  0  0  0  0  0  0
  1  3  4  0
  1  7  4  0
  2 21  4  0
  2 27  4  0
  3  9  4  0
  3 10  4  0
  4  8  4  0
  4 18  4  0
  4 25  1  0
  5  9  4  0
  5 12  4  0
  6 13  1  0
  6 27  1  0
  7 28  4  0
  8 11  4  0
  9 29  4  0
 10 12  4  0
 11 24  1  0
 11 26  4  0
 12 25  1  0
 13 28  1  0
 14 20  4  0
 14 23  4  0
 15 17  4  0
 15 21  4  0
 16 19  4  0
 16 23  4  0
 17 22  4  0
 18 26  4  0
 19 24  4  0
 20 24  4  0
 22 27  4  0
 28 29  4  0
M  END
$$$$

 Created by Python create_sdf_string function

 29 33  0  0  0  0  0  0  0  0999 V2000
   10.7215   -3.3326   17.6437 C   0  0  0  0  0  0  0  0  0  0  0  0
    9.9489   -3.4675   24.6487 N   0  0  0  0  0  0  0  0  0  0  0  0
   10.0172   -4.4740   17.4101 C   0  0  0  0  0  0  0  0  0  0  0  0
    6.9051   -7.9575   16.4222 C   0  0  0  0  0  0  0  0  0  0  0  0
    8.9969   -6.3552   17.9668 N   0  0  0  0  0  0  0  0  0  0  0  0
   10.6702   -3.9051   22.4070 C   0  0  0  0  0  0  0  0  0  0  0  0
   11.0625   -3.0028   18.8894 C   0  0  0  0  0  0  0  0  0  0  0  0
    5.6180   -7.9194   16.1754 O   0  0  0  0  0  0  0  0  0  0  0  0
    9.7259   -5.3080   18.4485 C   0  0  0  0  0  0  0  0  0  0  0  0
    9.4578   -5.0200   16.3036 N   0  0  0  0  0  0  0  0  0  0  0  0
    5.0287   -8.9365   16.8223 C   0  0  0  0  0  0  0  0  0  0  0  0
    8.7742   -6.1498   16.6764 C   0  0  0  0  0  0  0  0  0  0  0  0
   10.9418   -3.4032   21.2053 O   0  0  0  0  0  0  0  0  0  0  0  0
    1.4797   -8.6258   16.2950 C   0  0  0  0  0  0  0  0  0  0  0  0
    9.2861   -1.2743   25.3585 C   0  0  0  0  0  0  0  0  0  0  0  0
    1.8892  -10.3985   17.7511 N   0  0  0  0  0  0  0  0  0  0  0  0
    9.6210   -0.6952   24.0976 C   0  0  0  0  0  0  0  0  0  0  0  0
    7.0792   -9.0217   17.1429 C   0  0  0  0  0  0  0  0  0  0  0  0
    3.1713  -10.1816   17.6634 C   0  0  0  0  0  0  0  0  0  0  0  0
    2.7878   -8.3822   16.2137 C   0  0  0  0  0  0  0  0  0  0  0  0
    9.4601   -2.6590   25.6528 C   0  0  0  0  0  0  0  0  0  0  0  0
   10.1182   -1.5672   23.1165 C   0  0  0  0  0  0  0  0  0  0  0  0
    1.0552   -9.6360   17.0650 C   0  0  0  0  0  0  0  0  0  0  0  0
    3.6519   -9.1783   16.9039 C   0  0  0  0  0  0  0  0  0  0  0  0
    7.8675   -7.0096   15.9415 C   0  0  0  0  0  0  0  0  0  0  0  0
    5.9733   -9.6553   17.3832 N   0  0  0  0  0  0  0  0  0  0  0  0
   10.2411   -2.9363   23.4301 C   0  0  0  0  0  0  0  0  0  0  0  0
   10.7288   -3.8197   19.9525 C   0  0  0  0  0  0  0  0  0  0  0  0
   10.1189   -5.0054   19.6987 C   0  0  0  0  0  0  0  0  0  0  0  0
  1  3  4  0
  1  7  4  0
  2 21  4  0
  2 27  4  0
  3  9  4  0
  3 10  4  0
  4  8  4  0
  4 18  4  0
  4 25  1  0
  5  9  4  0
  5 12  4  0
  6 13  1  0
  6 27  1  0
  7 28  4  0
  8 11  4  0
  9 29  4  0
 10 12  4  0
 11 24  1  0
 11 26  4  0
 12 25  1  0
 13 28  1  0
 14 20  4  0
 14 23  4  0
 15 17  4  0
 15 21  4  0
 16 19  4  0
 16 23  4  0
 17 22  4  0
 18 26  4  0
 19 24  4  0
 20 24  4  0
 22 27  4  0
 28 29  4  0
M  END
$$$$

 Created by Python create_sdf_string function

 29 33  0  0  0  0  0  0  0  0999 V2000
   10.7215   -3.3326   17.6437 C   0  0  0  0  0  0  0  0  0  0  0  0
    9.9489   -3.4675   24.6487 N   0  0  0  0  0  0  0  0  0  0  0  0
   10.0172   -4.4740   17.4101 C   0  0  0  0  0  0  0  0  0  0  0  0
    6.9051   -7.9575   16.4222 C   0  0  0  0  0  0  0  0  0  0  0  0
    8.9969   -6.3552   17.9668 N   0  0  0  0  0  0  0  0  0  0  0  0
   10.6702   -3.9051   22.4070 C   0  0  0  0  0  0  0  0  0  0  0  0
   11.0625   -3.0028   18.8894 C   0  0  0  0  0  0  0  0  0  0  0  0
    5.6180   -7.9194   16.1754 O   0  0  0  0  0  0  0  0  0  0  0  0
    9.7259   -5.3080   18.4485 C   0  0  0  0  0  0  0  0  0  0  0  0
    9.4578   -5.0200   16.3036 N   0  0  0  0  0  0  0  0  0  0  0  0
    5.0287   -8.9365   16.8223 C   0  0  0  0  0  0  0  0  0  0  0  0
    8.7742   -6.1498   16.6764 C   0  0  0  0  0  0  0  0  0  0  0  0
   10.9418   -3.4032   21.2053 O   0  0  0  0  0  0  0  0  0  0  0  0
    1.4797   -8.6258   16.2950 C   0  0  0  0  0  0  0  0  0  0  0  0
    9.2861   -1.2743   25.3585 C   0  0  0  0  0  0  0  0  0  0  0  0
    1.8892  -10.3985   17.7511 N   0  0  0  0  0  0  0  0  0  0  0  0
    9.6210   -0.6952   24.0976 C   0  0  0  0  0  0  0  0  0  0  0  0
    7.0792   -9.0217   17.1429 C   0  0  0  0  0  0  0  0  0  0  0  0
    3.1713  -10.1816   17.6634 C   0  0  0  0  0  0  0  0  0  0  0  0
    2.7878   -8.3822   16.2137 C   0  0  0  0  0  0  0  0  0  0  0  0
    9.4601   -2.6590   25.6528 C   0  0  0  0  0  0  0  0  0  0  0  0
   10.1182   -1.5672   23.1165 C   0  0  0  0  0  0  0  0  0  0  0  0
    1.0552   -9.6360   17.0650 C   0  0  0  0  0  0  0  0  0  0  0  0
    3.6519   -9.1783   16.9039 C   0  0  0  0  0  0  0  0  0  0  0  0
    7.8675   -7.0096   15.9415 C   0  0  0  0  0  0  0  0  0  0  0  0
    5.9733   -9.6553   17.3832 N   0  0  0  0  0  0  0  0  0  0  0  0
   10.2411   -2.9363   23.4301 C   0  0  0  0  0  0  0  0  0  0  0  0
   10.7288   -3.8197   19.9525 C   0  0  0  0  0  0  0  0  0  0  0  0
   10.1189   -5.0054   19.6987 C   0  0  0  0  0  0  0  0  0  0  0  0
  1  3  4  0
  1  7  4  0
  2 21  4  0
  2 27  4  0
  3  9  4  0
  3 10  4  0
  4  8  4  0
  4 18  4  0
  4 25  1  0
  5  9  4  0
  5 12  4  0
  6 13  1  0
  6 27  1  0
  7 28  4  0
  8 11  4  0
  9 29  4  0
 10 12  4  0
 11 24  1  0
 11 26  4  0
 12 25  1  0
 13 28  1  0
 14 20  4  0
 14 23  4  0
 15 17  4  0
 15 21  4  0
 16 19  4  0
 16 23  4  0
 17 22  4  0
 18 26  4  0
 19 24  4  0
 20 24  4  0
 22 27  4  0
 28 29  4  0
M  END
$$$$

 Created by Python create_sdf_string function

 29 33  0  0  0  0  0  0  0  0999 V2000
   10.7215   -3.3326   17.6437 C   0  0  0  0  0  0  0  0  0  0  0  0
    9.9489   -3.4675   24.6487 N   0  0  0  0  0  0  0  0  0  0  0  0
   10.0172   -4.4740   17.4101 C   0  0  0  0  0  0  0  0  0  0  0  0
    6.9051   -7.9575   16.4222 C   0  0  0  0  0  0  0  0  0  0  0  0
    8.9969   -6.3552   17.9668 N   0  0  0  0  0  0  0  0  0  0  0  0
   10.6702   -3.9051   22.4070 C   0  0  0  0  0  0  0  0  0  0  0  0
   11.0625   -3.0028   18.8894 C   0  0  0  0  0  0  0  0  0  0  0  0
    5.6180   -7.9194   16.1754 O   0  0  0  0  0  0  0  0  0  0  0  0
    9.7259   -5.3080   18.4485 C   0  0  0  0  0  0  0  0  0  0  0  0
    9.4578   -5.0200   16.3036 N   0  0  0  0  0  0  0  0  0  0  0  0
    5.0287   -8.9365   16.8223 C   0  0  0  0  0  0  0  0  0  0  0  0
    8.7742   -6.1498   16.6764 C   0  0  0  0  0  0  0  0  0  0  0  0
   10.9418   -3.4032   21.2053 O   0  0  0  0  0  0  0  0  0  0  0  0
    1.4797   -8.6258   16.2950 C   0  0  0  0  0  0  0  0  0  0  0  0
    9.2861   -1.2743   25.3585 C   0  0  0  0  0  0  0  0  0  0  0  0
    1.8892  -10.3985   17.7511 N   0  0  0  0  0  0  0  0  0  0  0  0
    9.6210   -0.6952   24.0976 C   0  0  0  0  0  0  0  0  0  0  0  0
    7.0792   -9.0217   17.1429 C   0  0  0  0  0  0  0  0  0  0  0  0
    3.1713  -10.1816   17.6634 C   0  0  0  0  0  0  0  0  0  0  0  0
    2.7878   -8.3822   16.2137 C   0  0  0  0  0  0  0  0  0  0  0  0
    9.4601   -2.6590   25.6528 C   0  0  0  0  0  0  0  0  0  0  0  0
   10.1182   -1.5672   23.1165 C   0  0  0  0  0  0  0  0  0  0  0  0
    1.0552   -9.6360   17.0650 C   0  0  0  0  0  0  0  0  0  0  0  0
    3.6519   -9.1783   16.9039 C   0  0  0  0  0  0  0  0  0  0  0  0
    7.8675   -7.0096   15.9415 C   0  0  0  0  0  0  0  0  0  0  0  0
    5.9733   -9.6553   17.3832 N   0  0  0  0  0  0  0  0  0  0  0  0
   10.2411   -2.9363   23.4301 C   0  0  0  0  0  0  0  0  0  0  0  0
   10.7288   -3.8197   19.9525 C   0  0  0  0  0  0  0  0  0  0  0  0
   10.1189   -5.0054   19.6987 C   0  0  0  0  0  0  0  0  0  0  0  0
  1  3  4  0
  1  7  4  0
  2 21  4  0
  2 27  4  0
  3  9  4  0
  3 10  4  0
  4  8  4  0
  4 18  4  0
  4 25  1  0
  5  9  4  0
  5 12  4  0
  6 13  1  0
  6 27  1  0
  7 28  4  0
  8 11  4  0
  9 29  4  0
 10 12  4  0
 11 24  1  0
 11 26  4  0
 12 25  1  0
 13 28  1  0
 14 20  4  0
 14 23  4  0
 15 17  4  0
 15 21  4  0
 16 19  4  0
 16 23  4  0
 17 22  4  0
 18 26  4  0
 19 24  4  0
 20 24  4  0
 22 27  4  0
 28 29  4  0
M  END
$$$$

 Created by Python create_sdf_string function

 29 33  0  0  0  0  0  0  0  0999 V2000
   10.7215   -3.3326   17.6437 C   0  0  0  0  0  0  0  0  0  0  0  0
    9.9489   -3.4675   24.6487 N   0  0  0  0  0  0  0  0  0  0  0  0
   10.0172   -4.4740   17.4101 C   0  0  0  0  0  0  0  0  0  0  0  0
    6.9051   -7.9575   16.4222 C   0  0  0  0  0  0  0  0  0  0  0  0
    8.9969   -6.3552   17.9668 N   0  0  0  0  0  0  0  0  0  0  0  0
   10.6702   -3.9051   22.4070 C   0  0  0  0  0  0  0  0  0  0  0  0
   11.0625   -3.0028   18.8894 C   0  0  0  0  0  0  0  0  0  0  0  0
    5.6180   -7.9194   16.1754 O   0  0  0  0  0  0  0  0  0  0  0  0
    9.7259   -5.3080   18.4485 C   0  0  0  0  0  0  0  0  0  0  0  0
    9.4578   -5.0200   16.3036 N   0  0  0  0  0  0  0  0  0  0  0  0
    5.0287   -8.9365   16.8223 C   0  0  0  0  0  0  0  0  0  0  0  0
    8.7742   -6.1498   16.6764 C   0  0  0  0  0  0  0  0  0  0  0  0
   10.9418   -3.4032   21.2053 O   0  0  0  0  0  0  0  0  0  0  0  0
    1.4797   -8.6258   16.2950 C   0  0  0  0  0  0  0  0  0  0  0  0
    9.2861   -1.2743   25.3585 C   0  0  0  0  0  0  0  0  0  0  0  0
    1.8892  -10.3985   17.7511 N   0  0  0  0  0  0  0  0  0  0  0  0
    9.6210   -0.6952   24.0976 C   0  0  0  0  0  0  0  0  0  0  0  0
    7.0792   -9.0217   17.1429 C   0  0  0  0  0  0  0  0  0  0  0  0
    3.1713  -10.1816   17.6634 C   0  0  0  0  0  0  0  0  0  0  0  0
    2.7878   -8.3822   16.2137 C   0  0  0  0  0  0  0  0  0  0  0  0
    9.4601   -2.6590   25.6528 C   0  0  0  0  0  0  0  0  0  0  0  0
   10.1182   -1.5672   23.1165 C   0  0  0  0  0  0  0  0  0  0  0  0
    1.0552   -9.6360   17.0650 C   0  0  0  0  0  0  0  0  0  0  0  0
    3.6519   -9.1783   16.9039 C   0  0  0  0  0  0  0  0  0  0  0  0
    7.8675   -7.0096   15.9415 C   0  0  0  0  0  0  0  0  0  0  0  0
    5.9733   -9.6553   17.3832 N   0  0  0  0  0  0  0  0  0  0  0  0
   10.2411   -2.9363   23.4301 C   0  0  0  0  0  0  0  0  0  0  0  0
   10.7288   -3.8197   19.9525 C   0  0  0  0  0  0  0  0  0  0  0  0
   10.1189   -5.0054   19.6987 C   0  0  0  0  0  0  0  0  0  0  0  0
  1  3  4  0
  1  7  4  0
  2 21  4  0
  2 27  4  0
  3  9  4  0
  3 10  4  0
  4  8  4  0
  4 18  4  0
  4 25  1  0
  5  9  4  0
  5 12  4  0
  6 13  1  0
  6 27  1  0
  7 28  4  0
  8 11  4  0
  9 29  4  0
 10 12  4  0
 11 24  1  0
 11 26  4  0
 12 25  1  0
 13 28  1  0
 14 20  4  0
 14 23  4  0
 15 17  4  0
 15 21  4  0
 16 19  4  0
 16 23  4  0
 17 22  4  0
 18 26  4  0
 19 24  4  0
 20 24  4  0
 22 27  4  0
 28 29  4  0
M  END
$$$$

 Created by Python create_sdf_string function

 29 33  0  0  0  0  0  0  0  0999 V2000
   10.7215   -3.3326   17.6437 C   0  0  0  0  0  0  0  0  0  0  0  0
    9.9489   -3.4675   24.6487 N   0  0  0  0  0  0  0  0  0  0  0  0
   10.0172   -4.4740   17.4101 C   0  0  0  0  0  0  0  0  0  0  0  0
    6.9051   -7.9575   16.4222 C   0  0  0  0  0  0  0  0  0  0  0  0
    8.9969   -6.3552   17.9668 N   0  0  0  0  0  0  0  0  0  0  0  0
   10.6702   -3.9051   22.4070 C   0  0  0  0  0  0  0  0  0  0  0  0
   11.0625   -3.0028   18.8894 C   0  0  0  0  0  0  0  0  0  0  0  0
    5.6180   -7.9194   16.1754 O   0  0  0  0  0  0  0  0  0  0  0  0
    9.7259   -5.3080   18.4485 C   0  0  0  0  0  0  0  0  0  0  0  0
    9.4578   -5.0200   16.3036 N   0  0  0  0  0  0  0  0  0  0  0  0
    5.0287   -8.9365   16.8223 C   0  0  0  0  0  0  0  0  0  0  0  0
    8.7742   -6.1498   16.6764 C   0  0  0  0  0  0  0  0  0  0  0  0
   10.9418   -3.4032   21.2053 O   0  0  0  0  0  0  0  0  0  0  0  0
    1.4797   -8.6258   16.2950 C   0  0  0  0  0  0  0  0  0  0  0  0
    9.2861   -1.2743   25.3585 C   0  0  0  0  0  0  0  0  0  0  0  0
    1.8892  -10.3985   17.7511 N   0  0  0  0  0  0  0  0  0  0  0  0
    9.6210   -0.6952   24.0976 C   0  0  0  0  0  0  0  0  0  0  0  0
    7.0792   -9.0217   17.1429 C   0  0  0  0  0  0  0  0  0  0  0  0
    3.1713  -10.1816   17.6634 C   0  0  0  0  0  0  0  0  0  0  0  0
    2.7878   -8.3822   16.2137 C   0  0  0  0  0  0  0  0  0  0  0  0
    9.4601   -2.6590   25.6528 C   0  0  0  0  0  0  0  0  0  0  0  0
   10.1182   -1.5672   23.1165 C   0  0  0  0  0  0  0  0  0  0  0  0
    1.0552   -9.6360   17.0650 C   0  0  0  0  0  0  0  0  0  0  0  0
    3.6519   -9.1783   16.9039 C   0  0  0  0  0  0  0  0  0  0  0  0
    7.8675   -7.0096   15.9415 C   0  0  0  0  0  0  0  0  0  0  0  0
    5.9733   -9.6553   17.3832 N   0  0  0  0  0  0  0  0  0  0  0  0
   10.2411   -2.9363   23.4301 C   0  0  0  0  0  0  0  0  0  0  0  0
   10.7288   -3.8197   19.9525 C   0  0  0  0  0  0  0  0  0  0  0  0
   10.1189   -5.0054   19.6987 C   0  0  0  0  0  0  0  0  0  0  0  0
  1  3  4  0
  1  7  4  0
  2 21  4  0
  2 27  4  0
  3  9  4  0
  3 10  4  0
  4  8  4  0
  4 18  4  0
  4 25  1  0
  5  9  4  0
  5 12  4  0
  6 13  1  0
  6 27  1  0
  7 28  4  0
  8 11  4  0
  9 29  4  0
 10 12  4  0
 11 24  1  0
 11 26  4  0
 12 25  1  0
 13 28  1  0
 14 20  4  0
 14 23  4  0
 15 17  4  0
 15 21  4  0
 16 19  4  0
 16 23  4  0
 17 22  4  0
 18 26  4  0
 19 24  4  0
 20 24  4  0
 22 27  4  0
 28 29  4  0
M  END
$$$$

 Created by Python create_sdf_string function

 29 33  0  0  0  0  0  0  0  0999 V2000
   10.7215   -3.3326   17.6437 C   0  0  0  0  0  0  0  0  0  0  0  0
    9.9489   -3.4675   24.6487 N   0  0  0  0  0  0  0  0  0  0  0  0
   10.0172   -4.4740   17.4101 C   0  0  0  0  0  0  0  0  0  0  0  0
    6.9051   -7.9575   16.4222 C   0  0  0  0  0  0  0  0  0  0  0  0
    8.9969   -6.3552   17.9668 N   0  0  0  0  0  0  0  0  0  0  0  0
   10.6702   -3.9051   22.4070 C   0  0  0  0  0  0  0  0  0  0  0  0
   11.0625   -3.0028   18.8894 C   0  0  0  0  0  0  0  0  0  0  0  0
    5.6180   -7.9194   16.1754 O   0  0  0  0  0  0  0  0  0  0  0  0
    9.7259   -5.3080   18.4485 C   0  0  0  0  0  0  0  0  0  0  0  0
    9.4578   -5.0200   16.3036 N   0  0  0  0  0  0  0  0  0  0  0  0
    5.0287   -8.9365   16.8223 C   0  0  0  0  0  0  0  0  0  0  0  0
    8.7742   -6.1498   16.6764 C   0  0  0  0  0  0  0  0  0  0  0  0
   10.9418   -3.4032   21.2053 O   0  0  0  0  0  0  0  0  0  0  0  0
    1.4797   -8.6258   16.2950 C   0  0  0  0  0  0  0  0  0  0  0  0
    9.2861   -1.2743   25.3585 C   0  0  0  0  0  0  0  0  0  0  0  0
    1.8892  -10.3985   17.7511 N   0  0  0  0  0  0  0  0  0  0  0  0
    9.6210   -0.6952   24.0976 C   0  0  0  0  0  0  0  0  0  0  0  0
    7.0792   -9.0217   17.1429 C   0  0  0  0  0  0  0  0  0  0  0  0
    3.1713  -10.1816   17.6634 C   0  0  0  0  0  0  0  0  0  0  0  0
    2.7878   -8.3822   16.2137 C   0  0  0  0  0  0  0  0  0  0  0  0
    9.4601   -2.6590   25.6528 C   0  0  0  0  0  0  0  0  0  0  0  0
   10.1182   -1.5672   23.1165 C   0  0  0  0  0  0  0  0  0  0  0  0
    1.0552   -9.6360   17.0650 C   0  0  0  0  0  0  0  0  0  0  0  0
    3.6519   -9.1783   16.9039 C   0  0  0  0  0  0  0  0  0  0  0  0
    7.8675   -7.0096   15.9415 C   0  0  0  0  0  0  0  0  0  0  0  0
    5.9733   -9.6553   17.3832 N   0  0  0  0  0  0  0  0  0  0  0  0
   10.2411   -2.9363   23.4301 C   0  0  0  0  0  0  0  0  0  0  0  0
   10.7288   -3.8197   19.9525 C   0  0  0  0  0  0  0  0  0  0  0  0
   10.1189   -5.0054   19.6987 C   0  0  0  0  0  0  0  0  0  0  0  0
  1  3  4  0
  1  7  4  0
  2 21  4  0
  2 27  4  0
  3  9  4  0
  3 10  4  0
  4  8  4  0
  4 18  4  0
  4 25  1  0
  5  9  4  0
  5 12  4  0
  6 13  1  0
  6 27  1  0
  7 28  4  0
  8 11  4  0
  9 29  4  0
 10 12  4  0
 11 24  1  0
 11 26  4  0
 12 25  1  0
 13 28  1  0
 14 20  4  0
 14 23  4  0
 15 17  4  0
 15 21  4  0
 16 19  4  0
 16 23  4  0
 17 22  4  0
 18 26  4  0
 19 24  4  0
 20 24  4  0
 22 27  4  0
 28 29  4  0
M  END
$$$$

 Created by Python create_sdf_string function

 29 33  0  0  0  0  0  0  0  0999 V2000
   10.7215   -3.3326   17.6437 C   0  0  0  0  0  0  0  0  0  0  0  0
    9.9489   -3.4675   24.6487 N   0  0  0  0  0  0  0  0  0  0  0  0
   10.0172   -4.4740   17.4101 C   0  0  0  0  0  0  0  0  0  0  0  0
    6.9051   -7.9575   16.4222 C   0  0  0  0  0  0  0  0  0  0  0  0
    8.9969   -6.3552   17.9668 N   0  0  0  0  0  0  0  0  0  0  0  0
   10.6702   -3.9051   22.4070 C   0  0  0  0  0  0  0  0  0  0  0  0
   11.0625   -3.0028   18.8894 C   0  0  0  0  0  0  0  0  0  0  0  0
    5.6180   -7.9194   16.1754 O   0  0  0  0  0  0  0  0  0  0  0  0
    9.7259   -5.3080   18.4485 C   0  0  0  0  0  0  0  0  0  0  0  0
    9.4578   -5.0200   16.3036 N   0  0  0  0  0  0  0  0  0  0  0  0
    5.0287   -8.9365   16.8223 C   0  0  0  0  0  0  0  0  0  0  0  0
    8.7742   -6.1498   16.6764 C   0  0  0  0  0  0  0  0  0  0  0  0
   10.9418   -3.4032   21.2053 O   0  0  0  0  0  0  0  0  0  0  0  0
    1.4797   -8.6258   16.2950 C   0  0  0  0  0  0  0  0  0  0  0  0
    9.2861   -1.2743   25.3585 C   0  0  0  0  0  0  0  0  0  0  0  0
    1.8892  -10.3985   17.7511 N   0  0  0  0  0  0  0  0  0  0  0  0
    9.6210   -0.6952   24.0976 C   0  0  0  0  0  0  0  0  0  0  0  0
    7.0792   -9.0217   17.1429 C   0  0  0  0  0  0  0  0  0  0  0  0
    3.1713  -10.1816   17.6634 C   0  0  0  0  0  0  0  0  0  0  0  0
    2.7878   -8.3822   16.2137 C   0  0  0  0  0  0  0  0  0  0  0  0
    9.4601   -2.6590   25.6528 C   0  0  0  0  0  0  0  0  0  0  0  0
   10.1182   -1.5672   23.1165 C   0  0  0  0  0  0  0  0  0  0  0  0
    1.0552   -9.6360   17.0650 C   0  0  0  0  0  0  0  0  0  0  0  0
    3.6519   -9.1783   16.9039 C   0  0  0  0  0  0  0  0  0  0  0  0
    7.8675   -7.0096   15.9415 C   0  0  0  0  0  0  0  0  0  0  0  0
    5.9733   -9.6553   17.3832 N   0  0  0  0  0  0  0  0  0  0  0  0
   10.2411   -2.9363   23.4301 C   0  0  0  0  0  0  0  0  0  0  0  0
   10.7288   -3.8197   19.9525 C   0  0  0  0  0  0  0  0  0  0  0  0
   10.1189   -5.0054   19.6987 C   0  0  0  0  0  0  0  0  0  0  0  0
  1  3  4  0
  1  7  4  0
  2 21  4  0
  2 27  4  0
  3  9  4  0
  3 10  4  0
  4  8  4  0
  4 18  4  0
  4 25  1  0
  5  9  4  0
  5 12  4  0
  6 13  1  0
  6 27  1  0
  7 28  4  0
  8 11  4  0
  9 29  4  0
 10 12  4  0
 11 24  1  0
 11 26  4  0
 12 25  1  0
 13 28  1  0
 14 20  4  0
 14 23  4  0
 15 17  4  0
 15 21  4  0
 16 19  4  0
 16 23  4  0
 17 22  4  0
 18 26  4  0
 19 24  4  0
 20 24  4  0
 22 27  4  0
 28 29  4  0
M  END
$$$$

 Created by Python create_sdf_string function

 29 33  0  0  0  0  0  0  0  0999 V2000
   10.7215   -3.3326   17.6437 C   0  0  0  0  0  0  0  0  0  0  0  0
    9.9489   -3.4675   24.6487 N   0  0  0  0  0  0  0  0  0  0  0  0
   10.0172   -4.4740   17.4101 C   0  0  0  0  0  0  0  0  0  0  0  0
    6.9051   -7.9575   16.4222 C   0  0  0  0  0  0  0  0  0  0  0  0
    8.9969   -6.3552   17.9668 N   0  0  0  0  0  0  0  0  0  0  0  0
   10.6702   -3.9051   22.4070 C   0  0  0  0  0  0  0  0  0  0  0  0
   11.0625   -3.0028   18.8894 C   0  0  0  0  0  0  0  0  0  0  0  0
    5.6180   -7.9194   16.1754 O   0  0  0  0  0  0  0  0  0  0  0  0
    9.7259   -5.3080   18.4485 C   0  0  0  0  0  0  0  0  0  0  0  0
    9.4578   -5.0200   16.3036 N   0  0  0  0  0  0  0  0  0  0  0  0
    5.0287   -8.9365   16.8223 C   0  0  0  0  0  0  0  0  0  0  0  0
    8.7742   -6.1498   16.6764 C   0  0  0  0  0  0  0  0  0  0  0  0
   10.9418   -3.4032   21.2053 O   0  0  0  0  0  0  0  0  0  0  0  0
    1.4797   -8.6258   16.2950 C   0  0  0  0  0  0  0  0  0  0  0  0
    9.2861   -1.2743   25.3585 C   0  0  0  0  0  0  0  0  0  0  0  0
    1.8892  -10.3985   17.7511 N   0  0  0  0  0  0  0  0  0  0  0  0
    9.6210   -0.6952   24.0976 C   0  0  0  0  0  0  0  0  0  0  0  0
    7.0792   -9.0217   17.1429 C   0  0  0  0  0  0  0  0  0  0  0  0
    3.1713  -10.1816   17.6634 C   0  0  0  0  0  0  0  0  0  0  0  0
    2.7878   -8.3822   16.2137 C   0  0  0  0  0  0  0  0  0  0  0  0
    9.4601   -2.6590   25.6528 C   0  0  0  0  0  0  0  0  0  0  0  0
   10.1182   -1.5672   23.1165 C   0  0  0  0  0  0  0  0  0  0  0  0
    1.0552   -9.6360   17.0650 C   0  0  0  0  0  0  0  0  0  0  0  0
    3.6519   -9.1783   16.9039 C   0  0  0  0  0  0  0  0  0  0  0  0
    7.8675   -7.0096   15.9415 C   0  0  0  0  0  0  0  0  0  0  0  0
    5.9733   -9.6553   17.3832 N   0  0  0  0  0  0  0  0  0  0  0  0
   10.2411   -2.9363   23.4301 C   0  0  0  0  0  0  0  0  0  0  0  0
   10.7288   -3.8197   19.9525 C   0  0  0  0  0  0  0  0  0  0  0  0
   10.1189   -5.0054   19.6987 C   0  0  0  0  0  0  0  0  0  0  0  0
  1  3  4  0
  1  7  4  0
  2 21  4  0
  2 27  4  0
  3  9  4  0
  3 10  4  0
  4  8  4  0
  4 18  4  0
  4 25  1  0
  5  9  4  0
  5 12  4  0
  6 13  1  0
  6 27  1  0
  7 28  4  0
  8 11  4  0
  9 29  4  0
 10 12  4  0
 11 24  1  0
 11 26  4  0
 12 25  1  0
 13 28  1  0
 14 20  4  0
 14 23  4  0
 15 17  4  0
 15 21  4  0
 16 19  4  0
 16 23  4  0
 17 22  4  0
 18 26  4  0
 19 24  4  0
 20 24  4  0
 22 27  4  0
 28 29  4  0
M  END
$$$$

 Created by Python create_sdf_string function

 29 33  0  0  0  0  0  0  0  0999 V2000
   10.7215   -3.3326   17.6437 C   0  0  0  0  0  0  0  0  0  0  0  0
    9.9489   -3.4675   24.6487 N   0  0  0  0  0  0  0  0  0  0  0  0
   10.0172   -4.4740   17.4101 C   0  0  0  0  0  0  0  0  0  0  0  0
    6.9051   -7.9575   16.4222 C   0  0  0  0  0  0  0  0  0  0  0  0
    8.9969   -6.3552   17.9668 N   0  0  0  0  0  0  0  0  0  0  0  0
   10.6702   -3.9051   22.4070 C   0  0  0  0  0  0  0  0  0  0  0  0
   11.0625   -3.0028   18.8894 C   0  0  0  0  0  0  0  0  0  0  0  0
    5.6180   -7.9194   16.1754 O   0  0  0  0  0  0  0  0  0  0  0  0
    9.7259   -5.3080   18.4485 C   0  0  0  0  0  0  0  0  0  0  0  0
    9.4578   -5.0200   16.3036 N   0  0  0  0  0  0  0  0  0  0  0  0
    5.0287   -8.9365   16.8223 C   0  0  0  0  0  0  0  0  0  0  0  0
    8.7742   -6.1498   16.6764 C   0  0  0  0  0  0  0  0  0  0  0  0
   10.9418   -3.4032   21.2053 O   0  0  0  0  0  0  0  0  0  0  0  0
    1.4797   -8.6258   16.2950 C   0  0  0  0  0  0  0  0  0  0  0  0
    9.2861   -1.2743   25.3585 C   0  0  0  0  0  0  0  0  0  0  0  0
    1.8892  -10.3985   17.7511 N   0  0  0  0  0  0  0  0  0  0  0  0
    9.6210   -0.6952   24.0976 C   0  0  0  0  0  0  0  0  0  0  0  0
    7.0792   -9.0217   17.1429 C   0  0  0  0  0  0  0  0  0  0  0  0
    3.1713  -10.1816   17.6634 C   0  0  0  0  0  0  0  0  0  0  0  0
    2.7878   -8.3822   16.2137 C   0  0  0  0  0  0  0  0  0  0  0  0
    9.4601   -2.6590   25.6528 C   0  0  0  0  0  0  0  0  0  0  0  0
   10.1182   -1.5672   23.1165 C   0  0  0  0  0  0  0  0  0  0  0  0
    1.0552   -9.6360   17.0650 C   0  0  0  0  0  0  0  0  0  0  0  0
    3.6519   -9.1783   16.9039 C   0  0  0  0  0  0  0  0  0  0  0  0
    7.8675   -7.0096   15.9415 C   0  0  0  0  0  0  0  0  0  0  0  0
    5.9733   -9.6553   17.3832 N   0  0  0  0  0  0  0  0  0  0  0  0
   10.2411   -2.9363   23.4301 C   0  0  0  0  0  0  0  0  0  0  0  0
   10.7288   -3.8197   19.9525 C   0  0  0  0  0  0  0  0  0  0  0  0
   10.1189   -5.0054   19.6987 C   0  0  0  0  0  0  0  0  0  0  0  0
  1  3  4  0
  1  7  4  0
  2 21  4  0
  2 27  4  0
  3  9  4  0
  3 10  4  0
  4  8  4  0
  4 18  4  0
  4 25  1  0
  5  9  4  0
  5 12  4  0
  6 13  1  0
  6 27  1  0
  7 28  4  0
  8 11  4  0
  9 29  4  0
 10 12  4  0
 11 24  1  0
 11 26  4  0
 12 25  1  0
 13 28  1  0
 14 20  4  0
 14 23  4  0
 15 17  4  0
 15 21  4  0
 16 19  4  0
 16 23  4  0
 17 22  4  0
 18 26  4  0
 19 24  4  0
 20 24  4  0
 22 27  4  0
 28 29  4  0
M  END
$$$$

 Created by Python create_sdf_string function

 29 33  0  0  0  0  0  0  0  0999 V2000
   10.7215   -3.3326   17.6437 C   0  0  0  0  0  0  0  0  0  0  0  0
    9.9489   -3.4675   24.6487 N   0  0  0  0  0  0  0  0  0  0  0  0
   10.0172   -4.4740   17.4101 C   0  0  0  0  0  0  0  0  0  0  0  0
    6.9051   -7.9575   16.4222 C   0  0  0  0  0  0  0  0  0  0  0  0
    8.9969   -6.3552   17.9668 N   0  0  0  0  0  0  0  0  0  0  0  0
   10.6702   -3.9051   22.4070 C   0  0  0  0  0  0  0  0  0  0  0  0
   11.0625   -3.0028   18.8894 C   0  0  0  0  0  0  0  0  0  0  0  0
    5.6180   -7.9194   16.1754 O   0  0  0  0  0  0  0  0  0  0  0  0
    9.7259   -5.3080   18.4485 C   0  0  0  0  0  0  0  0  0  0  0  0
    9.4578   -5.0200   16.3036 N   0  0  0  0  0  0  0  0  0  0  0  0
    5.0287   -8.9365   16.8223 C   0  0  0  0  0  0  0  0  0  0  0  0
    8.7742   -6.1498   16.6764 C   0  0  0  0  0  0  0  0  0  0  0  0
   10.9418   -3.4032   21.2053 O   0  0  0  0  0  0  0  0  0  0  0  0
    1.4797   -8.6258   16.2950 C   0  0  0  0  0  0  0  0  0  0  0  0
    9.2861   -1.2743   25.3585 C   0  0  0  0  0  0  0  0  0  0  0  0
    1.8892  -10.3985   17.7511 N   0  0  0  0  0  0  0  0  0  0  0  0
    9.6210   -0.6952   24.0976 C   0  0  0  0  0  0  0  0  0  0  0  0
    7.0792   -9.0217   17.1429 C   0  0  0  0  0  0  0  0  0  0  0  0
    3.1713  -10.1816   17.6634 C   0  0  0  0  0  0  0  0  0  0  0  0
    2.7878   -8.3822   16.2137 C   0  0  0  0  0  0  0  0  0  0  0  0
    9.4601   -2.6590   25.6528 C   0  0  0  0  0  0  0  0  0  0  0  0
   10.1182   -1.5672   23.1165 C   0  0  0  0  0  0  0  0  0  0  0  0
    1.0552   -9.6360   17.0650 C   0  0  0  0  0  0  0  0  0  0  0  0
    3.6519   -9.1783   16.9039 C   0  0  0  0  0  0  0  0  0  0  0  0
    7.8675   -7.0096   15.9415 C   0  0  0  0  0  0  0  0  0  0  0  0
    5.9733   -9.6553   17.3832 N   0  0  0  0  0  0  0  0  0  0  0  0
   10.2411   -2.9363   23.4301 C   0  0  0  0  0  0  0  0  0  0  0  0
   10.7288   -3.8197   19.9525 C   0  0  0  0  0  0  0  0  0  0  0  0
   10.1189   -5.0054   19.6987 C   0  0  0  0  0  0  0  0  0  0  0  0
  1  3  4  0
  1  7  4  0
  2 21  4  0
  2 27  4  0
  3  9  4  0
  3 10  4  0
  4  8  4  0
  4 18  4  0
  4 25  1  0
  5  9  4  0
  5 12  4  0
  6 13  1  0
  6 27  1  0
  7 28  4  0
  8 11  4  0
  9 29  4  0
 10 12  4  0
 11 24  1  0
 11 26  4  0
 12 25  1  0
 13 28  1  0
 14 20  4  0
 14 23  4  0
 15 17  4  0
 15 21  4  0
 16 19  4  0
 16 23  4  0
 17 22  4  0
 18 26  4  0
 19 24  4  0
 20 24  4  0
 22 27  4  0
 28 29  4  0
M  END
$$$$

 Created by Python create_sdf_string function

 29 33  0  0  0  0  0  0  0  0999 V2000
   10.7215   -3.3326   17.6437 C   0  0  0  0  0  0  0  0  0  0  0  0
    9.9489   -3.4675   24.6487 N   0  0  0  0  0  0  0  0  0  0  0  0
   10.0172   -4.4740   17.4101 C   0  0  0  0  0  0  0  0  0  0  0  0
    6.9051   -7.9575   16.4222 C   0  0  0  0  0  0  0  0  0  0  0  0
    8.9969   -6.3552   17.9668 N   0  0  0  0  0  0  0  0  0  0  0  0
   10.6702   -3.9051   22.4070 C   0  0  0  0  0  0  0  0  0  0  0  0
   11.0625   -3.0028   18.8894 C   0  0  0  0  0  0  0  0  0  0  0  0
    5.6180   -7.9194   16.1754 O   0  0  0  0  0  0  0  0  0  0  0  0
    9.7259   -5.3080   18.4485 C   0  0  0  0  0  0  0  0  0  0  0  0
    9.4578   -5.0200   16.3036 N   0  0  0  0  0  0  0  0  0  0  0  0
    5.0287   -8.9365   16.8223 C   0  0  0  0  0  0  0  0  0  0  0  0
    8.7742   -6.1498   16.6764 C   0  0  0  0  0  0  0  0  0  0  0  0
   10.9418   -3.4032   21.2053 O   0  0  0  0  0  0  0  0  0  0  0  0
    1.4797   -8.6258   16.2950 C   0  0  0  0  0  0  0  0  0  0  0  0
    9.2861   -1.2743   25.3585 C   0  0  0  0  0  0  0  0  0  0  0  0
    1.8892  -10.3985   17.7511 N   0  0  0  0  0  0  0  0  0  0  0  0
    9.6210   -0.6952   24.0976 C   0  0  0  0  0  0  0  0  0  0  0  0
    7.0792   -9.0217   17.1429 C   0  0  0  0  0  0  0  0  0  0  0  0
    3.1713  -10.1816   17.6634 C   0  0  0  0  0  0  0  0  0  0  0  0
    2.7878   -8.3822   16.2137 C   0  0  0  0  0  0  0  0  0  0  0  0
    9.4601   -2.6590   25.6528 C   0  0  0  0  0  0  0  0  0  0  0  0
   10.1182   -1.5672   23.1165 C   0  0  0  0  0  0  0  0  0  0  0  0
    1.0552   -9.6360   17.0650 C   0  0  0  0  0  0  0  0  0  0  0  0
    3.6519   -9.1783   16.9039 C   0  0  0  0  0  0  0  0  0  0  0  0
    7.8675   -7.0096   15.9415 C   0  0  0  0  0  0  0  0  0  0  0  0
    5.9733   -9.6553   17.3832 N   0  0  0  0  0  0  0  0  0  0  0  0
   10.2411   -2.9363   23.4301 C   0  0  0  0  0  0  0  0  0  0  0  0
   10.7288   -3.8197   19.9525 C   0  0  0  0  0  0  0  0  0  0  0  0
   10.1189   -5.0054   19.6987 C   0  0  0  0  0  0  0  0  0  0  0  0
  1  3  4  0
  1  7  4  0
  2 21  4  0
  2 27  4  0
  3  9  4  0
  3 10  4  0
  4  8  4  0
  4 18  4  0
  4 25  1  0
  5  9  4  0
  5 12  4  0
  6 13  1  0
  6 27  1  0
  7 28  4  0
  8 11  4  0
  9 29  4  0
 10 12  4  0
 11 24  1  0
 11 26  4  0
 12 25  1  0
 13 28  1  0
 14 20  4  0
 14 23  4  0
 15 17  4  0
 15 21  4  0
 16 19  4  0
 16 23  4  0
 17 22  4  0
 18 26  4  0
 19 24  4  0
 20 24  4  0
 22 27  4  0
 28 29  4  0
M  END
$$$$

 Created by Python create_sdf_string function

 29 33  0  0  0  0  0  0  0  0999 V2000
   10.7215   -3.3326   17.6437 C   0  0  0  0  0  0  0  0  0  0  0  0
    9.9489   -3.4675   24.6487 N   0  0  0  0  0  0  0  0  0  0  0  0
   10.0172   -4.4740   17.4101 C   0  0  0  0  0  0  0  0  0  0  0  0
    6.9051   -7.9575   16.4222 C   0  0  0  0  0  0  0  0  0  0  0  0
    8.9969   -6.3552   17.9668 N   0  0  0  0  0  0  0  0  0  0  0  0
   10.6702   -3.9051   22.4070 C   0  0  0  0  0  0  0  0  0  0  0  0
   11.0625   -3.0028   18.8894 C   0  0  0  0  0  0  0  0  0  0  0  0
    5.6180   -7.9194   16.1754 O   0  0  0  0  0  0  0  0  0  0  0  0
    9.7259   -5.3080   18.4485 C   0  0  0  0  0  0  0  0  0  0  0  0
    9.4578   -5.0200   16.3036 N   0  0  0  0  0  0  0  0  0  0  0  0
    5.0287   -8.9365   16.8223 C   0  0  0  0  0  0  0  0  0  0  0  0
    8.7742   -6.1498   16.6764 C   0  0  0  0  0  0  0  0  0  0  0  0
   10.9418   -3.4032   21.2053 O   0  0  0  0  0  0  0  0  0  0  0  0
    1.4797   -8.6258   16.2950 C   0  0  0  0  0  0  0  0  0  0  0  0
    9.2861   -1.2743   25.3585 C   0  0  0  0  0  0  0  0  0  0  0  0
    1.8892  -10.3985   17.7511 N   0  0  0  0  0  0  0  0  0  0  0  0
    9.6210   -0.6952   24.0976 C   0  0  0  0  0  0  0  0  0  0  0  0
    7.0792   -9.0217   17.1429 C   0  0  0  0  0  0  0  0  0  0  0  0
    3.1713  -10.1816   17.6634 C   0  0  0  0  0  0  0  0  0  0  0  0
    2.7878   -8.3822   16.2137 C   0  0  0  0  0  0  0  0  0  0  0  0
    9.4601   -2.6590   25.6528 C   0  0  0  0  0  0  0  0  0  0  0  0
   10.1182   -1.5672   23.1165 C   0  0  0  0  0  0  0  0  0  0  0  0
    1.0552   -9.6360   17.0650 C   0  0  0  0  0  0  0  0  0  0  0  0
    3.6519   -9.1783   16.9039 C   0  0  0  0  0  0  0  0  0  0  0  0
    7.8675   -7.0096   15.9415 C   0  0  0  0  0  0  0  0  0  0  0  0
    5.9733   -9.6553   17.3832 N   0  0  0  0  0  0  0  0  0  0  0  0
   10.2411   -2.9363   23.4301 C   0  0  0  0  0  0  0  0  0  0  0  0
   10.7288   -3.8197   19.9525 C   0  0  0  0  0  0  0  0  0  0  0  0
   10.1189   -5.0054   19.6987 C   0  0  0  0  0  0  0  0  0  0  0  0
  1  3  4  0
  1  7  4  0
  2 21  4  0
  2 27  4  0
  3  9  4  0
  3 10  4  0
  4  8  4  0
  4 18  4  0
  4 25  1  0
  5  9  4  0
  5 12  4  0
  6 13  1  0
  6 27  1  0
  7 28  4  0
  8 11  4  0
  9 29  4  0
 10 12  4  0
 11 24  1  0
 11 26  4  0
 12 25  1  0
 13 28  1  0
 14 20  4  0
 14 23  4  0
 15 17  4  0
 15 21  4  0
 16 19  4  0
 16 23  4  0
 17 22  4  0
 18 26  4  0
 19 24  4  0
 20 24  4  0
 22 27  4  0
 28 29  4  0
M  END
$$$$

 Created by Python create_sdf_string function

 29 33  0  0  0  0  0  0  0  0999 V2000
   10.7215   -3.3326   17.6437 C   0  0  0  0  0  0  0  0  0  0  0  0
    9.9489   -3.4675   24.6487 N   0  0  0  0  0  0  0  0  0  0  0  0
   10.0172   -4.4740   17.4101 C   0  0  0  0  0  0  0  0  0  0  0  0
    6.9051   -7.9575   16.4222 C   0  0  0  0  0  0  0  0  0  0  0  0
    8.9969   -6.3552   17.9668 N   0  0  0  0  0  0  0  0  0  0  0  0
   10.6702   -3.9051   22.4070 C   0  0  0  0  0  0  0  0  0  0  0  0
   11.0625   -3.0028   18.8894 C   0  0  0  0  0  0  0  0  0  0  0  0
    5.6180   -7.9194   16.1754 O   0  0  0  0  0  0  0  0  0  0  0  0
    9.7259   -5.3080   18.4485 C   0  0  0  0  0  0  0  0  0  0  0  0
    9.4578   -5.0200   16.3036 N   0  0  0  0  0  0  0  0  0  0  0  0
    5.0287   -8.9365   16.8223 C   0  0  0  0  0  0  0  0  0  0  0  0
    8.7742   -6.1498   16.6764 C   0  0  0  0  0  0  0  0  0  0  0  0
   10.9418   -3.4032   21.2053 O   0  0  0  0  0  0  0  0  0  0  0  0
    1.4797   -8.6258   16.2950 C   0  0  0  0  0  0  0  0  0  0  0  0
    9.2861   -1.2743   25.3585 C   0  0  0  0  0  0  0  0  0  0  0  0
    1.8892  -10.3985   17.7511 N   0  0  0  0  0  0  0  0  0  0  0  0
    9.6210   -0.6952   24.0976 C   0  0  0  0  0  0  0  0  0  0  0  0
    7.0792   -9.0217   17.1429 C   0  0  0  0  0  0  0  0  0  0  0  0
    3.1713  -10.1816   17.6634 C   0  0  0  0  0  0  0  0  0  0  0  0
    2.7878   -8.3822   16.2137 C   0  0  0  0  0  0  0  0  0  0  0  0
    9.4601   -2.6590   25.6528 C   0  0  0  0  0  0  0  0  0  0  0  0
   10.1182   -1.5672   23.1165 C   0  0  0  0  0  0  0  0  0  0  0  0
    1.0552   -9.6360   17.0650 C   0  0  0  0  0  0  0  0  0  0  0  0
    3.6519   -9.1783   16.9039 C   0  0  0  0  0  0  0  0  0  0  0  0
    7.8675   -7.0096   15.9415 C   0  0  0  0  0  0  0  0  0  0  0  0
    5.9733   -9.6553   17.3832 N   0  0  0  0  0  0  0  0  0  0  0  0
   10.2411   -2.9363   23.4301 C   0  0  0  0  0  0  0  0  0  0  0  0
   10.7288   -3.8197   19.9525 C   0  0  0  0  0  0  0  0  0  0  0  0
   10.1189   -5.0054   19.6987 C   0  0  0  0  0  0  0  0  0  0  0  0
  1  3  4  0
  1  7  4  0
  2 21  4  0
  2 27  4  0
  3  9  4  0
  3 10  4  0
  4  8  4  0
  4 18  4  0
  4 25  1  0
  5  9  4  0
  5 12  4  0
  6 13  1  0
  6 27  1  0
  7 28  4  0
  8 11  4  0
  9 29  4  0
 10 12  4  0
 11 24  1  0
 11 26  4  0
 12 25  1  0
 13 28  1  0
 14 20  4  0
 14 23  4  0
 15 17  4  0
 15 21  4  0
 16 19  4  0
 16 23  4  0
 17 22  4  0
 18 26  4  0
 19 24  4  0
 20 24  4  0
 22 27  4  0
 28 29  4  0
M  END
$$$$

 Created by Python create_sdf_string function

 29 33  0  0  0  0  0  0  0  0999 V2000
   10.7215   -3.3326   17.6437 C   0  0  0  0  0  0  0  0  0  0  0  0
    9.9489   -3.4675   24.6487 N   0  0  0  0  0  0  0  0  0  0  0  0
   10.0172   -4.4740   17.4101 C   0  0  0  0  0  0  0  0  0  0  0  0
    6.9051   -7.9575   16.4222 C   0  0  0  0  0  0  0  0  0  0  0  0
    8.9969   -6.3552   17.9668 N   0  0  0  0  0  0  0  0  0  0  0  0
   10.6702   -3.9051   22.4070 C   0  0  0  0  0  0  0  0  0  0  0  0
   11.0625   -3.0028   18.8894 C   0  0  0  0  0  0  0  0  0  0  0  0
    5.6180   -7.9194   16.1754 O   0  0  0  0  0  0  0  0  0  0  0  0
    9.7259   -5.3080   18.4485 C   0  0  0  0  0  0  0  0  0  0  0  0
    9.4578   -5.0200   16.3036 N   0  0  0  0  0  0  0  0  0  0  0  0
    5.0287   -8.9365   16.8223 C   0  0  0  0  0  0  0  0  0  0  0  0
    8.7742   -6.1498   16.6764 C   0  0  0  0  0  0  0  0  0  0  0  0
   10.9418   -3.4032   21.2053 O   0  0  0  0  0  0  0  0  0  0  0  0
    1.4797   -8.6258   16.2950 C   0  0  0  0  0  0  0  0  0  0  0  0
    9.2861   -1.2743   25.3585 C   0  0  0  0  0  0  0  0  0  0  0  0
    1.8892  -10.3985   17.7511 N   0  0  0  0  0  0  0  0  0  0  0  0
    9.6210   -0.6952   24.0976 C   0  0  0  0  0  0  0  0  0  0  0  0
    7.0792   -9.0217   17.1429 C   0  0  0  0  0  0  0  0  0  0  0  0
    3.1713  -10.1816   17.6634 C   0  0  0  0  0  0  0  0  0  0  0  0
    2.7878   -8.3822   16.2137 C   0  0  0  0  0  0  0  0  0  0  0  0
    9.4601   -2.6590   25.6528 C   0  0  0  0  0  0  0  0  0  0  0  0
   10.1182   -1.5672   23.1165 C   0  0  0  0  0  0  0  0  0  0  0  0
    1.0552   -9.6360   17.0650 C   0  0  0  0  0  0  0  0  0  0  0  0
    3.6519   -9.1783   16.9039 C   0  0  0  0  0  0  0  0  0  0  0  0
    7.8675   -7.0096   15.9415 C   0  0  0  0  0  0  0  0  0  0  0  0
    5.9733   -9.6553   17.3832 N   0  0  0  0  0  0  0  0  0  0  0  0
   10.2411   -2.9363   23.4301 C   0  0  0  0  0  0  0  0  0  0  0  0
   10.7288   -3.8197   19.9525 C   0  0  0  0  0  0  0  0  0  0  0  0
   10.1189   -5.0054   19.6987 C   0  0  0  0  0  0  0  0  0  0  0  0
  1  3  4  0
  1  7  4  0
  2 21  4  0
  2 27  4  0
  3  9  4  0
  3 10  4  0
  4  8  4  0
  4 18  4  0
  4 25  1  0
  5  9  4  0
  5 12  4  0
  6 13  1  0
  6 27  1  0
  7 28  4  0
  8 11  4  0
  9 29  4  0
 10 12  4  0
 11 24  1  0
 11 26  4  0
 12 25  1  0
 13 28  1  0
 14 20  4  0
 14 23  4  0
 15 17  4  0
 15 21  4  0
 16 19  4  0
 16 23  4  0
 17 22  4  0
 18 26  4  0
 19 24  4  0
 20 24  4  0
 22 27  4  0
 28 29  4  0
M  END
$$$$

 Created by Python create_sdf_string function

 29 33  0  0  0  0  0  0  0  0999 V2000
   10.7215   -3.3326   17.6437 C   0  0  0  0  0  0  0  0  0  0  0  0
    9.9489   -3.4675   24.6487 N   0  0  0  0  0  0  0  0  0  0  0  0
   10.0172   -4.4740   17.4101 C   0  0  0  0  0  0  0  0  0  0  0  0
    6.9051   -7.9575   16.4222 C   0  0  0  0  0  0  0  0  0  0  0  0
    8.9969   -6.3552   17.9668 N   0  0  0  0  0  0  0  0  0  0  0  0
   10.6702   -3.9051   22.4070 C   0  0  0  0  0  0  0  0  0  0  0  0
   11.0625   -3.0028   18.8894 C   0  0  0  0  0  0  0  0  0  0  0  0
    5.6180   -7.9194   16.1754 O   0  0  0  0  0  0  0  0  0  0  0  0
    9.7259   -5.3080   18.4485 C   0  0  0  0  0  0  0  0  0  0  0  0
    9.4578   -5.0200   16.3036 N   0  0  0  0  0  0  0  0  0  0  0  0
    5.0287   -8.9365   16.8223 C   0  0  0  0  0  0  0  0  0  0  0  0
    8.7742   -6.1498   16.6764 C   0  0  0  0  0  0  0  0  0  0  0  0
   10.9418   -3.4032   21.2053 O   0  0  0  0  0  0  0  0  0  0  0  0
    1.4797   -8.6258   16.2950 C   0  0  0  0  0  0  0  0  0  0  0  0
    9.2861   -1.2743   25.3585 C   0  0  0  0  0  0  0  0  0  0  0  0
    1.8892  -10.3985   17.7511 N   0  0  0  0  0  0  0  0  0  0  0  0
    9.6210   -0.6952   24.0976 C   0  0  0  0  0  0  0  0  0  0  0  0
    7.0792   -9.0217   17.1429 C   0  0  0  0  0  0  0  0  0  0  0  0
    3.1713  -10.1816   17.6634 C   0  0  0  0  0  0  0  0  0  0  0  0
    2.7878   -8.3822   16.2137 C   0  0  0  0  0  0  0  0  0  0  0  0
    9.4601   -2.6590   25.6528 C   0  0  0  0  0  0  0  0  0  0  0  0
   10.1182   -1.5672   23.1165 C   0  0  0  0  0  0  0  0  0  0  0  0
    1.0552   -9.6360   17.0650 C   0  0  0  0  0  0  0  0  0  0  0  0
    3.6519   -9.1783   16.9039 C   0  0  0  0  0  0  0  0  0  0  0  0
    7.8675   -7.0096   15.9415 C   0  0  0  0  0  0  0  0  0  0  0  0
    5.9733   -9.6553   17.3832 N   0  0  0  0  0  0  0  0  0  0  0  0
   10.2411   -2.9363   23.4301 C   0  0  0  0  0  0  0  0  0  0  0  0
   10.7288   -3.8197   19.9525 C   0  0  0  0  0  0  0  0  0  0  0  0
   10.1189   -5.0054   19.6987 C   0  0  0  0  0  0  0  0  0  0  0  0
  1  3  4  0
  1  7  4  0
  2 21  4  0
  2 27  4  0
  3  9  4  0
  3 10  4  0
  4  8  4  0
  4 18  4  0
  4 25  1  0
  5  9  4  0
  5 12  4  0
  6 13  1  0
  6 27  1  0
  7 28  4  0
  8 11  4  0
  9 29  4  0
 10 12  4  0
 11 24  1  0
 11 26  4  0
 12 25  1  0
 13 28  1  0
 14 20  4  0
 14 23  4  0
 15 17  4  0
 15 21  4  0
 16 19  4  0
 16 23  4  0
 17 22  4  0
 18 26  4  0
 19 24  4  0
 20 24  4  0
 22 27  4  0
 28 29  4  0
M  END
$$$$

 Created by Python create_sdf_string function

 29 33  0  0  0  0  0  0  0  0999 V2000
   10.7215   -3.3326   17.6437 C   0  0  0  0  0  0  0  0  0  0  0  0
    9.9489   -3.4675   24.6487 N   0  0  0  0  0  0  0  0  0  0  0  0
   10.0172   -4.4740   17.4101 C   0  0  0  0  0  0  0  0  0  0  0  0
    6.9051   -7.9575   16.4222 C   0  0  0  0  0  0  0  0  0  0  0  0
    8.9969   -6.3552   17.9668 N   0  0  0  0  0  0  0  0  0  0  0  0
   10.6702   -3.9051   22.4070 C   0  0  0  0  0  0  0  0  0  0  0  0
   11.0625   -3.0028   18.8894 C   0  0  0  0  0  0  0  0  0  0  0  0
    5.6180   -7.9194   16.1754 O   0  0  0  0  0  0  0  0  0  0  0  0
    9.7259   -5.3080   18.4485 C   0  0  0  0  0  0  0  0  0  0  0  0
    9.4578   -5.0200   16.3036 N   0  0  0  0  0  0  0  0  0  0  0  0
    5.0287   -8.9365   16.8223 C   0  0  0  0  0  0  0  0  0  0  0  0
    8.7742   -6.1498   16.6764 C   0  0  0  0  0  0  0  0  0  0  0  0
   10.9418   -3.4032   21.2053 O   0  0  0  0  0  0  0  0  0  0  0  0
    1.4797   -8.6258   16.2950 C   0  0  0  0  0  0  0  0  0  0  0  0
    9.2861   -1.2743   25.3585 C   0  0  0  0  0  0  0  0  0  0  0  0
    1.8892  -10.3985   17.7511 N   0  0  0  0  0  0  0  0  0  0  0  0
    9.6210   -0.6952   24.0976 C   0  0  0  0  0  0  0  0  0  0  0  0
    7.0792   -9.0217   17.1429 C   0  0  0  0  0  0  0  0  0  0  0  0
    3.1713  -10.1816   17.6634 C   0  0  0  0  0  0  0  0  0  0  0  0
    2.7878   -8.3822   16.2137 C   0  0  0  0  0  0  0  0  0  0  0  0
    9.4601   -2.6590   25.6528 C   0  0  0  0  0  0  0  0  0  0  0  0
   10.1182   -1.5672   23.1165 C   0  0  0  0  0  0  0  0  0  0  0  0
    1.0552   -9.6360   17.0650 C   0  0  0  0  0  0  0  0  0  0  0  0
    3.6519   -9.1783   16.9039 C   0  0  0  0  0  0  0  0  0  0  0  0
    7.8675   -7.0096   15.9415 C   0  0  0  0  0  0  0  0  0  0  0  0
    5.9733   -9.6553   17.3832 N   0  0  0  0  0  0  0  0  0  0  0  0
   10.2411   -2.9363   23.4301 C   0  0  0  0  0  0  0  0  0  0  0  0
   10.7288   -3.8197   19.9525 C   0  0  0  0  0  0  0  0  0  0  0  0
   10.1189   -5.0054   19.6987 C   0  0  0  0  0  0  0  0  0  0  0  0
  1  3  4  0
  1  7  4  0
  2 21  4  0
  2 27  4  0
  3  9  4  0
  3 10  4  0
  4  8  4  0
  4 18  4  0
  4 25  1  0
  5  9  4  0
  5 12  4  0
  6 13  1  0
  6 27  1  0
  7 28  4  0
  8 11  4  0
  9 29  4  0
 10 12  4  0
 11 24  1  0
 11 26  4  0
 12 25  1  0
 13 28  1  0
 14 20  4  0
 14 23  4  0
 15 17  4  0
 15 21  4  0
 16 19  4  0
 16 23  4  0
 17 22  4  0
 18 26  4  0
 19 24  4  0
 20 24  4  0
 22 27  4  0
 28 29  4  0
M  END
$$$$

 Created by Python create_sdf_string function

 29 33  0  0  0  0  0  0  0  0999 V2000
   10.7215   -3.3326   17.6437 C   0  0  0  0  0  0  0  0  0  0  0  0
    9.9489   -3.4675   24.6487 N   0  0  0  0  0  0  0  0  0  0  0  0
   10.0172   -4.4740   17.4101 C   0  0  0  0  0  0  0  0  0  0  0  0
    6.9051   -7.9575   16.4222 C   0  0  0  0  0  0  0  0  0  0  0  0
    8.9969   -6.3552   17.9668 N   0  0  0  0  0  0  0  0  0  0  0  0
   10.6702   -3.9051   22.4070 C   0  0  0  0  0  0  0  0  0  0  0  0
   11.0625   -3.0028   18.8894 C   0  0  0  0  0  0  0  0  0  0  0  0
    5.6180   -7.9194   16.1754 O   0  0  0  0  0  0  0  0  0  0  0  0
    9.7259   -5.3080   18.4485 C   0  0  0  0  0  0  0  0  0  0  0  0
    9.4578   -5.0200   16.3036 N   0  0  0  0  0  0  0  0  0  0  0  0
    5.0287   -8.9365   16.8223 C   0  0  0  0  0  0  0  0  0  0  0  0
    8.7742   -6.1498   16.6764 C   0  0  0  0  0  0  0  0  0  0  0  0
   10.9418   -3.4032   21.2053 O   0  0  0  0  0  0  0  0  0  0  0  0
    1.4797   -8.6258   16.2950 C   0  0  0  0  0  0  0  0  0  0  0  0
    9.2861   -1.2743   25.3585 C   0  0  0  0  0  0  0  0  0  0  0  0
    1.8892  -10.3985   17.7511 N   0  0  0  0  0  0  0  0  0  0  0  0
    9.6210   -0.6952   24.0976 C   0  0  0  0  0  0  0  0  0  0  0  0
    7.0792   -9.0217   17.1429 C   0  0  0  0  0  0  0  0  0  0  0  0
    3.1713  -10.1816   17.6634 C   0  0  0  0  0  0  0  0  0  0  0  0
    2.7878   -8.3822   16.2137 C   0  0  0  0  0  0  0  0  0  0  0  0
    9.4601   -2.6590   25.6528 C   0  0  0  0  0  0  0  0  0  0  0  0
   10.1182   -1.5672   23.1165 C   0  0  0  0  0  0  0  0  0  0  0  0
    1.0552   -9.6360   17.0650 C   0  0  0  0  0  0  0  0  0  0  0  0
    3.6519   -9.1783   16.9039 C   0  0  0  0  0  0  0  0  0  0  0  0
    7.8675   -7.0096   15.9415 C   0  0  0  0  0  0  0  0  0  0  0  0
    5.9733   -9.6553   17.3832 N   0  0  0  0  0  0  0  0  0  0  0  0
   10.2411   -2.9363   23.4301 C   0  0  0  0  0  0  0  0  0  0  0  0
   10.7288   -3.8197   19.9525 C   0  0  0  0  0  0  0  0  0  0  0  0
   10.1189   -5.0054   19.6987 C   0  0  0  0  0  0  0  0  0  0  0  0
  1  3  4  0
  1  7  4  0
  2 21  4  0
  2 27  4  0
  3  9  4  0
  3 10  4  0
  4  8  4  0
  4 18  4  0
  4 25  1  0
  5  9  4  0
  5 12  4  0
  6 13  1  0
  6 27  1  0
  7 28  4  0
  8 11  4  0
  9 29  4  0
 10 12  4  0
 11 24  1  0
 11 26  4  0
 12 25  1  0
 13 28  1  0
 14 20  4  0
 14 23  4  0
 15 17  4  0
 15 21  4  0
 16 19  4  0
 16 23  4  0
 17 22  4  0
 18 26  4  0
 19 24  4  0
 20 24  4  0
 22 27  4  0
 28 29  4  0
M  END
$$$$

 Created by Python create_sdf_string function

 29 33  0  0  0  0  0  0  0  0999 V2000
   10.7215   -3.3326   17.6437 C   0  0  0  0  0  0  0  0  0  0  0  0
    9.9489   -3.4675   24.6487 N   0  0  0  0  0  0  0  0  0  0  0  0
   10.0172   -4.4740   17.4101 C   0  0  0  0  0  0  0  0  0  0  0  0
    6.9051   -7.9575   16.4222 C   0  0  0  0  0  0  0  0  0  0  0  0
    8.9969   -6.3552   17.9668 N   0  0  0  0  0  0  0  0  0  0  0  0
   10.6702   -3.9051   22.4070 C   0  0  0  0  0  0  0  0  0  0  0  0
   11.0625   -3.0028   18.8894 C   0  0  0  0  0  0  0  0  0  0  0  0
    5.6180   -7.9194   16.1754 O   0  0  0  0  0  0  0  0  0  0  0  0
    9.7259   -5.3080   18.4485 C   0  0  0  0  0  0  0  0  0  0  0  0
    9.4578   -5.0200   16.3036 N   0  0  0  0  0  0  0  0  0  0  0  0
    5.0287   -8.9365   16.8223 C   0  0  0  0  0  0  0  0  0  0  0  0
    8.7742   -6.1498   16.6764 C   0  0  0  0  0  0  0  0  0  0  0  0
   10.9418   -3.4032   21.2053 O   0  0  0  0  0  0  0  0  0  0  0  0
    1.4797   -8.6258   16.2950 C   0  0  0  0  0  0  0  0  0  0  0  0
    9.2861   -1.2743   25.3585 C   0  0  0  0  0  0  0  0  0  0  0  0
    1.8892  -10.3985   17.7511 N   0  0  0  0  0  0  0  0  0  0  0  0
    9.6210   -0.6952   24.0976 C   0  0  0  0  0  0  0  0  0  0  0  0
    7.0792   -9.0217   17.1429 C   0  0  0  0  0  0  0  0  0  0  0  0
    3.1713  -10.1816   17.6634 C   0  0  0  0  0  0  0  0  0  0  0  0
    2.7878   -8.3822   16.2137 C   0  0  0  0  0  0  0  0  0  0  0  0
    9.4601   -2.6590   25.6528 C   0  0  0  0  0  0  0  0  0  0  0  0
   10.1182   -1.5672   23.1165 C   0  0  0  0  0  0  0  0  0  0  0  0
    1.0552   -9.6360   17.0650 C   0  0  0  0  0  0  0  0  0  0  0  0
    3.6519   -9.1783   16.9039 C   0  0  0  0  0  0  0  0  0  0  0  0
    7.8675   -7.0096   15.9415 C   0  0  0  0  0  0  0  0  0  0  0  0
    5.9733   -9.6553   17.3832 N   0  0  0  0  0  0  0  0  0  0  0  0
   10.2411   -2.9363   23.4301 C   0  0  0  0  0  0  0  0  0  0  0  0
   10.7288   -3.8197   19.9525 C   0  0  0  0  0  0  0  0  0  0  0  0
   10.1189   -5.0054   19.6987 C   0  0  0  0  0  0  0  0  0  0  0  0
  1  3  4  0
  1  7  4  0
  2 21  4  0
  2 27  4  0
  3  9  4  0
  3 10  4  0
  4  8  4  0
  4 18  4  0
  4 25  1  0
  5  9  4  0
  5 12  4  0
  6 13  1  0
  6 27  1  0
  7 28  4  0
  8 11  4  0
  9 29  4  0
 10 12  4  0
 11 24  1  0
 11 26  4  0
 12 25  1  0
 13 28  1  0
 14 20  4  0
 14 23  4  0
 15 17  4  0
 15 21  4  0
 16 19  4  0
 16 23  4  0
 17 22  4  0
 18 26  4  0
 19 24  4  0
 20 24  4  0
 22 27  4  0
 28 29  4  0
M  END
$$$$

 Created by Python create_sdf_string function

 29 33  0  0  0  0  0  0  0  0999 V2000
   10.7215   -3.3326   17.6437 C   0  0  0  0  0  0  0  0  0  0  0  0
    9.9489   -3.4675   24.6487 N   0  0  0  0  0  0  0  0  0  0  0  0
   10.0172   -4.4740   17.4101 C   0  0  0  0  0  0  0  0  0  0  0  0
    6.9051   -7.9575   16.4222 C   0  0  0  0  0  0  0  0  0  0  0  0
    8.9969   -6.3552   17.9668 N   0  0  0  0  0  0  0  0  0  0  0  0
   10.6702   -3.9051   22.4070 C   0  0  0  0  0  0  0  0  0  0  0  0
   11.0625   -3.0028   18.8894 C   0  0  0  0  0  0  0  0  0  0  0  0
    5.6180   -7.9194   16.1754 O   0  0  0  0  0  0  0  0  0  0  0  0
    9.7259   -5.3080   18.4485 C   0  0  0  0  0  0  0  0  0  0  0  0
    9.4578   -5.0200   16.3036 N   0  0  0  0  0  0  0  0  0  0  0  0
    5.0287   -8.9365   16.8223 C   0  0  0  0  0  0  0  0  0  0  0  0
    8.7742   -6.1498   16.6764 C   0  0  0  0  0  0  0  0  0  0  0  0
   10.9418   -3.4032   21.2053 O   0  0  0  0  0  0  0  0  0  0  0  0
    1.4797   -8.6258   16.2950 C   0  0  0  0  0  0  0  0  0  0  0  0
    9.2861   -1.2743   25.3585 C   0  0  0  0  0  0  0  0  0  0  0  0
    1.8892  -10.3985   17.7511 N   0  0  0  0  0  0  0  0  0  0  0  0
    9.6210   -0.6952   24.0976 C   0  0  0  0  0  0  0  0  0  0  0  0
    7.0792   -9.0217   17.1429 C   0  0  0  0  0  0  0  0  0  0  0  0
    3.1713  -10.1816   17.6634 C   0  0  0  0  0  0  0  0  0  0  0  0
    2.7878   -8.3822   16.2137 C   0  0  0  0  0  0  0  0  0  0  0  0
    9.4601   -2.6590   25.6528 C   0  0  0  0  0  0  0  0  0  0  0  0
   10.1182   -1.5672   23.1165 C   0  0  0  0  0  0  0  0  0  0  0  0
    1.0552   -9.6360   17.0650 C   0  0  0  0  0  0  0  0  0  0  0  0
    3.6519   -9.1783   16.9039 C   0  0  0  0  0  0  0  0  0  0  0  0
    7.8675   -7.0096   15.9415 C   0  0  0  0  0  0  0  0  0  0  0  0
    5.9733   -9.6553   17.3832 N   0  0  0  0  0  0  0  0  0  0  0  0
   10.2411   -2.9363   23.4301 C   0  0  0  0  0  0  0  0  0  0  0  0
   10.7288   -3.8197   19.9525 C   0  0  0  0  0  0  0  0  0  0  0  0
   10.1189   -5.0054   19.6987 C   0  0  0  0  0  0  0  0  0  0  0  0
  1  3  4  0
  1  7  4  0
  2 21  4  0
  2 27  4  0
  3  9  4  0
  3 10  4  0
  4  8  4  0
  4 18  4  0
  4 25  1  0
  5  9  4  0
  5 12  4  0
  6 13  1  0
  6 27  1  0
  7 28  4  0
  8 11  4  0
  9 29  4  0
 10 12  4  0
 11 24  1  0
 11 26  4  0
 12 25  1  0
 13 28  1  0
 14 20  4  0
 14 23  4  0
 15 17  4  0
 15 21  4  0
 16 19  4  0
 16 23  4  0
 17 22  4  0
 18 26  4  0
 19 24  4  0
 20 24  4  0
 22 27  4  0
 28 29  4  0
M  END
$$$$

 Created by Python create_sdf_string function

 29 33  0  0  0  0  0  0  0  0999 V2000
   10.7215   -3.3326   17.6437 C   0  0  0  0  0  0  0  0  0  0  0  0
    9.9489   -3.4675   24.6487 N   0  0  0  0  0  0  0  0  0  0  0  0
   10.0172   -4.4740   17.4101 C   0  0  0  0  0  0  0  0  0  0  0  0
    6.9051   -7.9575   16.4222 C   0  0  0  0  0  0  0  0  0  0  0  0
    8.9969   -6.3552   17.9668 N   0  0  0  0  0  0  0  0  0  0  0  0
   10.6702   -3.9051   22.4070 C   0  0  0  0  0  0  0  0  0  0  0  0
   11.0625   -3.0028   18.8894 C   0  0  0  0  0  0  0  0  0  0  0  0
    5.6180   -7.9194   16.1754 O   0  0  0  0  0  0  0  0  0  0  0  0
    9.7259   -5.3080   18.4485 C   0  0  0  0  0  0  0  0  0  0  0  0
    9.4578   -5.0200   16.3036 N   0  0  0  0  0  0  0  0  0  0  0  0
    5.0287   -8.9365   16.8223 C   0  0  0  0  0  0  0  0  0  0  0  0
    8.7742   -6.1498   16.6764 C   0  0  0  0  0  0  0  0  0  0  0  0
   10.9418   -3.4032   21.2053 O   0  0  0  0  0  0  0  0  0  0  0  0
    1.4797   -8.6258   16.2950 C   0  0  0  0  0  0  0  0  0  0  0  0
    9.2861   -1.2743   25.3585 C   0  0  0  0  0  0  0  0  0  0  0  0
    1.8892  -10.3985   17.7511 N   0  0  0  0  0  0  0  0  0  0  0  0
    9.6210   -0.6952   24.0976 C   0  0  0  0  0  0  0  0  0  0  0  0
    7.0792   -9.0217   17.1429 C   0  0  0  0  0  0  0  0  0  0  0  0
    3.1713  -10.1816   17.6634 C   0  0  0  0  0  0  0  0  0  0  0  0
    2.7878   -8.3822   16.2137 C   0  0  0  0  0  0  0  0  0  0  0  0
    9.4601   -2.6590   25.6528 C   0  0  0  0  0  0  0  0  0  0  0  0
   10.1182   -1.5672   23.1165 C   0  0  0  0  0  0  0  0  0  0  0  0
    1.0552   -9.6360   17.0650 C   0  0  0  0  0  0  0  0  0  0  0  0
    3.6519   -9.1783   16.9039 C   0  0  0  0  0  0  0  0  0  0  0  0
    7.8675   -7.0096   15.9415 C   0  0  0  0  0  0  0  0  0  0  0  0
    5.9733   -9.6553   17.3832 N   0  0  0  0  0  0  0  0  0  0  0  0
   10.2411   -2.9363   23.4301 C   0  0  0  0  0  0  0  0  0  0  0  0
   10.7288   -3.8197   19.9525 C   0  0  0  0  0  0  0  0  0  0  0  0
   10.1189   -5.0054   19.6987 C   0  0  0  0  0  0  0  0  0  0  0  0
  1  3  4  0
  1  7  4  0
  2 21  4  0
  2 27  4  0
  3  9  4  0
  3 10  4  0
  4  8  4  0
  4 18  4  0
  4 25  1  0
  5  9  4  0
  5 12  4  0
  6 13  1  0
  6 27  1  0
  7 28  4  0
  8 11  4  0
  9 29  4  0
 10 12  4  0
 11 24  1  0
 11 26  4  0
 12 25  1  0
 13 28  1  0
 14 20  4  0
 14 23  4  0
 15 17  4  0
 15 21  4  0
 16 19  4  0
 16 23  4  0
 17 22  4  0
 18 26  4  0
 19 24  4  0
 20 24  4  0
 22 27  4  0
 28 29  4  0
M  END
$$$$

 Created by Python create_sdf_string function

 29 33  0  0  0  0  0  0  0  0999 V2000
   10.7215   -3.3326   17.6437 C   0  0  0  0  0  0  0  0  0  0  0  0
    9.9489   -3.4675   24.6487 N   0  0  0  0  0  0  0  0  0  0  0  0
   10.0172   -4.4740   17.4101 C   0  0  0  0  0  0  0  0  0  0  0  0
    6.9051   -7.9575   16.4222 C   0  0  0  0  0  0  0  0  0  0  0  0
    8.9969   -6.3552   17.9668 N   0  0  0  0  0  0  0  0  0  0  0  0
   10.6702   -3.9051   22.4070 C   0  0  0  0  0  0  0  0  0  0  0  0
   11.0625   -3.0028   18.8894 C   0  0  0  0  0  0  0  0  0  0  0  0
    5.6180   -7.9194   16.1754 O   0  0  0  0  0  0  0  0  0  0  0  0
    9.7259   -5.3080   18.4485 C   0  0  0  0  0  0  0  0  0  0  0  0
    9.4578   -5.0200   16.3036 N   0  0  0  0  0  0  0  0  0  0  0  0
    5.0287   -8.9365   16.8223 C   0  0  0  0  0  0  0  0  0  0  0  0
    8.7742   -6.1498   16.6764 C   0  0  0  0  0  0  0  0  0  0  0  0
   10.9418   -3.4032   21.2053 O   0  0  0  0  0  0  0  0  0  0  0  0
    1.4797   -8.6258   16.2950 C   0  0  0  0  0  0  0  0  0  0  0  0
    9.2861   -1.2743   25.3585 C   0  0  0  0  0  0  0  0  0  0  0  0
    1.8892  -10.3985   17.7511 N   0  0  0  0  0  0  0  0  0  0  0  0
    9.6210   -0.6952   24.0976 C   0  0  0  0  0  0  0  0  0  0  0  0
    7.0792   -9.0217   17.1429 C   0  0  0  0  0  0  0  0  0  0  0  0
    3.1713  -10.1816   17.6634 C   0  0  0  0  0  0  0  0  0  0  0  0
    2.7878   -8.3822   16.2137 C   0  0  0  0  0  0  0  0  0  0  0  0
    9.4601   -2.6590   25.6528 C   0  0  0  0  0  0  0  0  0  0  0  0
   10.1182   -1.5672   23.1165 C   0  0  0  0  0  0  0  0  0  0  0  0
    1.0552   -9.6360   17.0650 C   0  0  0  0  0  0  0  0  0  0  0  0
    3.6519   -9.1783   16.9039 C   0  0  0  0  0  0  0  0  0  0  0  0
    7.8675   -7.0096   15.9415 C   0  0  0  0  0  0  0  0  0  0  0  0
    5.9733   -9.6553   17.3832 N   0  0  0  0  0  0  0  0  0  0  0  0
   10.2411   -2.9363   23.4301 C   0  0  0  0  0  0  0  0  0  0  0  0
   10.7288   -3.8197   19.9525 C   0  0  0  0  0  0  0  0  0  0  0  0
   10.1189   -5.0054   19.6987 C   0  0  0  0  0  0  0  0  0  0  0  0
  1  3  4  0
  1  7  4  0
  2 21  4  0
  2 27  4  0
  3  9  4  0
  3 10  4  0
  4  8  4  0
  4 18  4  0
  4 25  1  0
  5  9  4  0
  5 12  4  0
  6 13  1  0
  6 27  1  0
  7 28  4  0
  8 11  4  0
  9 29  4  0
 10 12  4  0
 11 24  1  0
 11 26  4  0
 12 25  1  0
 13 28  1  0
 14 20  4  0
 14 23  4  0
 15 17  4  0
 15 21  4  0
 16 19  4  0
 16 23  4  0
 17 22  4  0
 18 26  4  0
 19 24  4  0
 20 24  4  0
 22 27  4  0
 28 29  4  0
M  END
$$$$

 Created by Python create_sdf_string function

 29 33  0  0  0  0  0  0  0  0999 V2000
   10.7215   -3.3326   17.6437 C   0  0  0  0  0  0  0  0  0  0  0  0
    9.9489   -3.4675   24.6487 N   0  0  0  0  0  0  0  0  0  0  0  0
   10.0172   -4.4740   17.4101 C   0  0  0  0  0  0  0  0  0  0  0  0
    6.9051   -7.9575   16.4222 C   0  0  0  0  0  0  0  0  0  0  0  0
    8.9969   -6.3552   17.9668 N   0  0  0  0  0  0  0  0  0  0  0  0
   10.6702   -3.9051   22.4070 C   0  0  0  0  0  0  0  0  0  0  0  0
   11.0625   -3.0028   18.8894 C   0  0  0  0  0  0  0  0  0  0  0  0
    5.6180   -7.9194   16.1754 O   0  0  0  0  0  0  0  0  0  0  0  0
    9.7259   -5.3080   18.4485 C   0  0  0  0  0  0  0  0  0  0  0  0
    9.4578   -5.0200   16.3036 N   0  0  0  0  0  0  0  0  0  0  0  0
    5.0287   -8.9365   16.8223 C   0  0  0  0  0  0  0  0  0  0  0  0
    8.7742   -6.1498   16.6764 C   0  0  0  0  0  0  0  0  0  0  0  0
   10.9418   -3.4032   21.2053 O   0  0  0  0  0  0  0  0  0  0  0  0
    1.4797   -8.6258   16.2950 C   0  0  0  0  0  0  0  0  0  0  0  0
    9.2861   -1.2743   25.3585 C   0  0  0  0  0  0  0  0  0  0  0  0
    1.8892  -10.3985   17.7511 N   0  0  0  0  0  0  0  0  0  0  0  0
    9.6210   -0.6952   24.0976 C   0  0  0  0  0  0  0  0  0  0  0  0
    7.0792   -9.0217   17.1429 C   0  0  0  0  0  0  0  0  0  0  0  0
    3.1713  -10.1816   17.6634 C   0  0  0  0  0  0  0  0  0  0  0  0
    2.7878   -8.3822   16.2137 C   0  0  0  0  0  0  0  0  0  0  0  0
    9.4601   -2.6590   25.6528 C   0  0  0  0  0  0  0  0  0  0  0  0
   10.1182   -1.5672   23.1165 C   0  0  0  0  0  0  0  0  0  0  0  0
    1.0552   -9.6360   17.0650 C   0  0  0  0  0  0  0  0  0  0  0  0
    3.6519   -9.1783   16.9039 C   0  0  0  0  0  0  0  0  0  0  0  0
    7.8675   -7.0096   15.9415 C   0  0  0  0  0  0  0  0  0  0  0  0
    5.9733   -9.6553   17.3832 N   0  0  0  0  0  0  0  0  0  0  0  0
   10.2411   -2.9363   23.4301 C   0  0  0  0  0  0  0  0  0  0  0  0
   10.7288   -3.8197   19.9525 C   0  0  0  0  0  0  0  0  0  0  0  0
   10.1189   -5.0054   19.6987 C   0  0  0  0  0  0  0  0  0  0  0  0
  1  3  4  0
  1  7  4  0
  2 21  4  0
  2 27  4  0
  3  9  4  0
  3 10  4  0
  4  8  4  0
  4 18  4  0
  4 25  1  0
  5  9  4  0
  5 12  4  0
  6 13  1  0
  6 27  1  0
  7 28  4  0
  8 11  4  0
  9 29  4  0
 10 12  4  0
 11 24  1  0
 11 26  4  0
 12 25  1  0
 13 28  1  0
 14 20  4  0
 14 23  4  0
 15 17  4  0
 15 21  4  0
 16 19  4  0
 16 23  4  0
 17 22  4  0
 18 26  4  0
 19 24  4  0
 20 24  4  0
 22 27  4  0
 28 29  4  0
M  END
$$$$

 Created by Python create_sdf_string function

 29 33  0  0  0  0  0  0  0  0999 V2000
   10.7215   -3.3326   17.6437 C   0  0  0  0  0  0  0  0  0  0  0  0
    9.9489   -3.4675   24.6487 N   0  0  0  0  0  0  0  0  0  0  0  0
   10.0172   -4.4740   17.4101 C   0  0  0  0  0  0  0  0  0  0  0  0
    6.9051   -7.9575   16.4222 C   0  0  0  0  0  0  0  0  0  0  0  0
    8.9969   -6.3552   17.9668 N   0  0  0  0  0  0  0  0  0  0  0  0
   10.6702   -3.9051   22.4070 C   0  0  0  0  0  0  0  0  0  0  0  0
   11.0625   -3.0028   18.8894 C   0  0  0  0  0  0  0  0  0  0  0  0
    5.6180   -7.9194   16.1754 O   0  0  0  0  0  0  0  0  0  0  0  0
    9.7259   -5.3080   18.4485 C   0  0  0  0  0  0  0  0  0  0  0  0
    9.4578   -5.0200   16.3036 N   0  0  0  0  0  0  0  0  0  0  0  0
    5.0287   -8.9365   16.8223 C   0  0  0  0  0  0  0  0  0  0  0  0
    8.7742   -6.1498   16.6764 C   0  0  0  0  0  0  0  0  0  0  0  0
   10.9418   -3.4032   21.2053 O   0  0  0  0  0  0  0  0  0  0  0  0
    1.4797   -8.6258   16.2950 C   0  0  0  0  0  0  0  0  0  0  0  0
    9.2861   -1.2743   25.3585 C   0  0  0  0  0  0  0  0  0  0  0  0
    1.8892  -10.3985   17.7511 N   0  0  0  0  0  0  0  0  0  0  0  0
    9.6210   -0.6952   24.0976 C   0  0  0  0  0  0  0  0  0  0  0  0
    7.0792   -9.0217   17.1429 C   0  0  0  0  0  0  0  0  0  0  0  0
    3.1713  -10.1816   17.6634 C   0  0  0  0  0  0  0  0  0  0  0  0
    2.7878   -8.3822   16.2137 C   0  0  0  0  0  0  0  0  0  0  0  0
    9.4601   -2.6590   25.6528 C   0  0  0  0  0  0  0  0  0  0  0  0
   10.1182   -1.5672   23.1165 C   0  0  0  0  0  0  0  0  0  0  0  0
    1.0552   -9.6360   17.0650 C   0  0  0  0  0  0  0  0  0  0  0  0
    3.6519   -9.1783   16.9039 C   0  0  0  0  0  0  0  0  0  0  0  0
    7.8675   -7.0096   15.9415 C   0  0  0  0  0  0  0  0  0  0  0  0
    5.9733   -9.6553   17.3832 N   0  0  0  0  0  0  0  0  0  0  0  0
   10.2411   -2.9363   23.4301 C   0  0  0  0  0  0  0  0  0  0  0  0
   10.7288   -3.8197   19.9525 C   0  0  0  0  0  0  0  0  0  0  0  0
   10.1189   -5.0054   19.6987 C   0  0  0  0  0  0  0  0  0  0  0  0
  1  3  4  0
  1  7  4  0
  2 21  4  0
  2 27  4  0
  3  9  4  0
  3 10  4  0
  4  8  4  0
  4 18  4  0
  4 25  1  0
  5  9  4  0
  5 12  4  0
  6 13  1  0
  6 27  1  0
  7 28  4  0
  8 11  4  0
  9 29  4  0
 10 12  4  0
 11 24  1  0
 11 26  4  0
 12 25  1  0
 13 28  1  0
 14 20  4  0
 14 23  4  0
 15 17  4  0
 15 21  4  0
 16 19  4  0
 16 23  4  0
 17 22  4  0
 18 26  4  0
 19 24  4  0
 20 24  4  0
 22 27  4  0
 28 29  4  0
M  END
$$$$

 Created by Python create_sdf_string function

 29 33  0  0  0  0  0  0  0  0999 V2000
   10.7215   -3.3326   17.6437 C   0  0  0  0  0  0  0  0  0  0  0  0
    9.9489   -3.4675   24.6487 N   0  0  0  0  0  0  0  0  0  0  0  0
   10.0172   -4.4740   17.4101 C   0  0  0  0  0  0  0  0  0  0  0  0
    6.9051   -7.9575   16.4222 C   0  0  0  0  0  0  0  0  0  0  0  0
    8.9969   -6.3552   17.9668 N   0  0  0  0  0  0  0  0  0  0  0  0
   10.6702   -3.9051   22.4070 C   0  0  0  0  0  0  0  0  0  0  0  0
   11.0625   -3.0028   18.8894 C   0  0  0  0  0  0  0  0  0  0  0  0
    5.6180   -7.9194   16.1754 O   0  0  0  0  0  0  0  0  0  0  0  0
    9.7259   -5.3080   18.4485 C   0  0  0  0  0  0  0  0  0  0  0  0
    9.4578   -5.0200   16.3036 N   0  0  0  0  0  0  0  0  0  0  0  0
    5.0287   -8.9365   16.8223 C   0  0  0  0  0  0  0  0  0  0  0  0
    8.7742   -6.1498   16.6764 C   0  0  0  0  0  0  0  0  0  0  0  0
   10.9418   -3.4032   21.2053 O   0  0  0  0  0  0  0  0  0  0  0  0
    1.4797   -8.6258   16.2950 C   0  0  0  0  0  0  0  0  0  0  0  0
    9.2861   -1.2743   25.3585 C   0  0  0  0  0  0  0  0  0  0  0  0
    1.8892  -10.3985   17.7511 N   0  0  0  0  0  0  0  0  0  0  0  0
    9.6210   -0.6952   24.0976 C   0  0  0  0  0  0  0  0  0  0  0  0
    7.0792   -9.0217   17.1429 C   0  0  0  0  0  0  0  0  0  0  0  0
    3.1713  -10.1816   17.6634 C   0  0  0  0  0  0  0  0  0  0  0  0
    2.7878   -8.3822   16.2137 C   0  0  0  0  0  0  0  0  0  0  0  0
    9.4601   -2.6590   25.6528 C   0  0  0  0  0  0  0  0  0  0  0  0
   10.1182   -1.5672   23.1165 C   0  0  0  0  0  0  0  0  0  0  0  0
    1.0552   -9.6360   17.0650 C   0  0  0  0  0  0  0  0  0  0  0  0
    3.6519   -9.1783   16.9039 C   0  0  0  0  0  0  0  0  0  0  0  0
    7.8675   -7.0096   15.9415 C   0  0  0  0  0  0  0  0  0  0  0  0
    5.9733   -9.6553   17.3832 N   0  0  0  0  0  0  0  0  0  0  0  0
   10.2411   -2.9363   23.4301 C   0  0  0  0  0  0  0  0  0  0  0  0
   10.7288   -3.8197   19.9525 C   0  0  0  0  0  0  0  0  0  0  0  0
   10.1189   -5.0054   19.6987 C   0  0  0  0  0  0  0  0  0  0  0  0
  1  3  4  0
  1  7  4  0
  2 21  4  0
  2 27  4  0
  3  9  4  0
  3 10  4  0
  4  8  4  0
  4 18  4  0
  4 25  1  0
  5  9  4  0
  5 12  4  0
  6 13  1  0
  6 27  1  0
  7 28  4  0
  8 11  4  0
  9 29  4  0
 10 12  4  0
 11 24  1  0
 11 26  4  0
 12 25  1  0
 13 28  1  0
 14 20  4  0
 14 23  4  0
 15 17  4  0
 15 21  4  0
 16 19  4  0
 16 23  4  0
 17 22  4  0
 18 26  4  0
 19 24  4  0
 20 24  4  0
 22 27  4  0
 28 29  4  0
M  END
$$$$

 Created by Python create_sdf_string function

 29 33  0  0  0  0  0  0  0  0999 V2000
   10.7215   -3.3326   17.6437 C   0  0  0  0  0  0  0  0  0  0  0  0
    9.9489   -3.4675   24.6487 N   0  0  0  0  0  0  0  0  0  0  0  0
   10.0172   -4.4740   17.4101 C   0  0  0  0  0  0  0  0  0  0  0  0
    6.9051   -7.9575   16.4222 C   0  0  0  0  0  0  0  0  0  0  0  0
    8.9969   -6.3552   17.9668 N   0  0  0  0  0  0  0  0  0  0  0  0
   10.6702   -3.9051   22.4070 C   0  0  0  0  0  0  0  0  0  0  0  0
   11.0625   -3.0028   18.8894 C   0  0  0  0  0  0  0  0  0  0  0  0
    5.6180   -7.9194   16.1754 O   0  0  0  0  0  0  0  0  0  0  0  0
    9.7259   -5.3080   18.4485 C   0  0  0  0  0  0  0  0  0  0  0  0
    9.4578   -5.0200   16.3036 N   0  0  0  0  0  0  0  0  0  0  0  0
    5.0287   -8.9365   16.8223 C   0  0  0  0  0  0  0  0  0  0  0  0
    8.7742   -6.1498   16.6764 C   0  0  0  0  0  0  0  0  0  0  0  0
   10.9418   -3.4032   21.2053 O   0  0  0  0  0  0  0  0  0  0  0  0
    1.4797   -8.6258   16.2950 C   0  0  0  0  0  0  0  0  0  0  0  0
    9.2861   -1.2743   25.3585 C   0  0  0  0  0  0  0  0  0  0  0  0
    1.8892  -10.3985   17.7511 N   0  0  0  0  0  0  0  0  0  0  0  0
    9.6210   -0.6952   24.0976 C   0  0  0  0  0  0  0  0  0  0  0  0
    7.0792   -9.0217   17.1429 C   0  0  0  0  0  0  0  0  0  0  0  0
    3.1713  -10.1816   17.6634 C   0  0  0  0  0  0  0  0  0  0  0  0
    2.7878   -8.3822   16.2137 C   0  0  0  0  0  0  0  0  0  0  0  0
    9.4601   -2.6590   25.6528 C   0  0  0  0  0  0  0  0  0  0  0  0
   10.1182   -1.5672   23.1165 C   0  0  0  0  0  0  0  0  0  0  0  0
    1.0552   -9.6360   17.0650 C   0  0  0  0  0  0  0  0  0  0  0  0
    3.6519   -9.1783   16.9039 C   0  0  0  0  0  0  0  0  0  0  0  0
    7.8675   -7.0096   15.9415 C   0  0  0  0  0  0  0  0  0  0  0  0
    5.9733   -9.6553   17.3832 N   0  0  0  0  0  0  0  0  0  0  0  0
   10.2411   -2.9363   23.4301 C   0  0  0  0  0  0  0  0  0  0  0  0
   10.7288   -3.8197   19.9525 C   0  0  0  0  0  0  0  0  0  0  0  0
   10.1189   -5.0054   19.6987 C   0  0  0  0  0  0  0  0  0  0  0  0
  1  3  4  0
  1  7  4  0
  2 21  4  0
  2 27  4  0
  3  9  4  0
  3 10  4  0
  4  8  4  0
  4 18  4  0
  4 25  1  0
  5  9  4  0
  5 12  4  0
  6 13  1  0
  6 27  1  0
  7 28  4  0
  8 11  4  0
  9 29  4  0
 10 12  4  0
 11 24  1  0
 11 26  4  0
 12 25  1  0
 13 28  1  0
 14 20  4  0
 14 23  4  0
 15 17  4  0
 15 21  4  0
 16 19  4  0
 16 23  4  0
 17 22  4  0
 18 26  4  0
 19 24  4  0
 20 24  4  0
 22 27  4  0
 28 29  4  0
M  END
$$$$

 Created by Python create_sdf_string function

 29 33  0  0  0  0  0  0  0  0999 V2000
   10.7215   -3.3326   17.6437 C   0  0  0  0  0  0  0  0  0  0  0  0
    9.9489   -3.4675   24.6487 N   0  0  0  0  0  0  0  0  0  0  0  0
   10.0172   -4.4740   17.4101 C   0  0  0  0  0  0  0  0  0  0  0  0
    6.9051   -7.9575   16.4222 C   0  0  0  0  0  0  0  0  0  0  0  0
    8.9969   -6.3552   17.9668 N   0  0  0  0  0  0  0  0  0  0  0  0
   10.6702   -3.9051   22.4070 C   0  0  0  0  0  0  0  0  0  0  0  0
   11.0625   -3.0028   18.8894 C   0  0  0  0  0  0  0  0  0  0  0  0
    5.6180   -7.9194   16.1754 O   0  0  0  0  0  0  0  0  0  0  0  0
    9.7259   -5.3080   18.4485 C   0  0  0  0  0  0  0  0  0  0  0  0
    9.4578   -5.0200   16.3036 N   0  0  0  0  0  0  0  0  0  0  0  0
    5.0287   -8.9365   16.8223 C   0  0  0  0  0  0  0  0  0  0  0  0
    8.7742   -6.1498   16.6764 C   0  0  0  0  0  0  0  0  0  0  0  0
   10.9418   -3.4032   21.2053 O   0  0  0  0  0  0  0  0  0  0  0  0
    1.4797   -8.6258   16.2950 C   0  0  0  0  0  0  0  0  0  0  0  0
    9.2861   -1.2743   25.3585 C   0  0  0  0  0  0  0  0  0  0  0  0
    1.8892  -10.3985   17.7511 N   0  0  0  0  0  0  0  0  0  0  0  0
    9.6210   -0.6952   24.0976 C   0  0  0  0  0  0  0  0  0  0  0  0
    7.0792   -9.0217   17.1429 C   0  0  0  0  0  0  0  0  0  0  0  0
    3.1713  -10.1816   17.6634 C   0  0  0  0  0  0  0  0  0  0  0  0
    2.7878   -8.3822   16.2137 C   0  0  0  0  0  0  0  0  0  0  0  0
    9.4601   -2.6590   25.6528 C   0  0  0  0  0  0  0  0  0  0  0  0
   10.1182   -1.5672   23.1165 C   0  0  0  0  0  0  0  0  0  0  0  0
    1.0552   -9.6360   17.0650 C   0  0  0  0  0  0  0  0  0  0  0  0
    3.6519   -9.1783   16.9039 C   0  0  0  0  0  0  0  0  0  0  0  0
    7.8675   -7.0096   15.9415 C   0  0  0  0  0  0  0  0  0  0  0  0
    5.9733   -9.6553   17.3832 N   0  0  0  0  0  0  0  0  0  0  0  0
   10.2411   -2.9363   23.4301 C   0  0  0  0  0  0  0  0  0  0  0  0
   10.7288   -3.8197   19.9525 C   0  0  0  0  0  0  0  0  0  0  0  0
   10.1189   -5.0054   19.6987 C   0  0  0  0  0  0  0  0  0  0  0  0
  1  3  4  0
  1  7  4  0
  2 21  4  0
  2 27  4  0
  3  9  4  0
  3 10  4  0
  4  8  4  0
  4 18  4  0
  4 25  1  0
  5  9  4  0
  5 12  4  0
  6 13  1  0
  6 27  1  0
  7 28  4  0
  8 11  4  0
  9 29  4  0
 10 12  4  0
 11 24  1  0
 11 26  4  0
 12 25  1  0
 13 28  1  0
 14 20  4  0
 14 23  4  0
 15 17  4  0
 15 21  4  0
 16 19  4  0
 16 23  4  0
 17 22  4  0
 18 26  4  0
 19 24  4  0
 20 24  4  0
 22 27  4  0
 28 29  4  0
M  END
$$$$

 Created by Python create_sdf_string function

 29 33  0  0  0  0  0  0  0  0999 V2000
   10.7215   -3.3326   17.6437 C   0  0  0  0  0  0  0  0  0  0  0  0
    9.9489   -3.4675   24.6487 N   0  0  0  0  0  0  0  0  0  0  0  0
   10.0172   -4.4740   17.4101 C   0  0  0  0  0  0  0  0  0  0  0  0
    6.9051   -7.9575   16.4222 C   0  0  0  0  0  0  0  0  0  0  0  0
    8.9969   -6.3552   17.9668 N   0  0  0  0  0  0  0  0  0  0  0  0
   10.6702   -3.9051   22.4070 C   0  0  0  0  0  0  0  0  0  0  0  0
   11.0625   -3.0028   18.8894 C   0  0  0  0  0  0  0  0  0  0  0  0
    5.6180   -7.9194   16.1754 O   0  0  0  0  0  0  0  0  0  0  0  0
    9.7259   -5.3080   18.4485 C   0  0  0  0  0  0  0  0  0  0  0  0
    9.4578   -5.0200   16.3036 N   0  0  0  0  0  0  0  0  0  0  0  0
    5.0287   -8.9365   16.8223 C   0  0  0  0  0  0  0  0  0  0  0  0
    8.7742   -6.1498   16.6764 C   0  0  0  0  0  0  0  0  0  0  0  0
   10.9418   -3.4032   21.2053 O   0  0  0  0  0  0  0  0  0  0  0  0
    1.4797   -8.6258   16.2950 C   0  0  0  0  0  0  0  0  0  0  0  0
    9.2861   -1.2743   25.3585 C   0  0  0  0  0  0  0  0  0  0  0  0
    1.8892  -10.3985   17.7511 N   0  0  0  0  0  0  0  0  0  0  0  0
    9.6210   -0.6952   24.0976 C   0  0  0  0  0  0  0  0  0  0  0  0
    7.0792   -9.0217   17.1429 C   0  0  0  0  0  0  0  0  0  0  0  0
    3.1713  -10.1816   17.6634 C   0  0  0  0  0  0  0  0  0  0  0  0
    2.7878   -8.3822   16.2137 C   0  0  0  0  0  0  0  0  0  0  0  0
    9.4601   -2.6590   25.6528 C   0  0  0  0  0  0  0  0  0  0  0  0
   10.1182   -1.5672   23.1165 C   0  0  0  0  0  0  0  0  0  0  0  0
    1.0552   -9.6360   17.0650 C   0  0  0  0  0  0  0  0  0  0  0  0
    3.6519   -9.1783   16.9039 C   0  0  0  0  0  0  0  0  0  0  0  0
    7.8675   -7.0096   15.9415 C   0  0  0  0  0  0  0  0  0  0  0  0
    5.9733   -9.6553   17.3832 N   0  0  0  0  0  0  0  0  0  0  0  0
   10.2411   -2.9363   23.4301 C   0  0  0  0  0  0  0  0  0  0  0  0
   10.7288   -3.8197   19.9525 C   0  0  0  0  0  0  0  0  0  0  0  0
   10.1189   -5.0054   19.6987 C   0  0  0  0  0  0  0  0  0  0  0  0
  1  3  4  0
  1  7  4  0
  2 21  4  0
  2 27  4  0
  3  9  4  0
  3 10  4  0
  4  8  4  0
  4 18  4  0
  4 25  1  0
  5  9  4  0
  5 12  4  0
  6 13  1  0
  6 27  1  0
  7 28  4  0
  8 11  4  0
  9 29  4  0
 10 12  4  0
 11 24  1  0
 11 26  4  0
 12 25  1  0
 13 28  1  0
 14 20  4  0
 14 23  4  0
 15 17  4  0
 15 21  4  0
 16 19  4  0
 16 23  4  0
 17 22  4  0
 18 26  4  0
 19 24  4  0
 20 24  4  0
 22 27  4  0
 28 29  4  0
M  END
$$$$

 Created by Python create_sdf_string function

 29 33  0  0  0  0  0  0  0  0999 V2000
   10.7215   -3.3326   17.6437 C   0  0  0  0  0  0  0  0  0  0  0  0
    9.9489   -3.4675   24.6487 N   0  0  0  0  0  0  0  0  0  0  0  0
   10.0172   -4.4740   17.4101 C   0  0  0  0  0  0  0  0  0  0  0  0
    6.9051   -7.9575   16.4222 C   0  0  0  0  0  0  0  0  0  0  0  0
    8.9969   -6.3552   17.9668 N   0  0  0  0  0  0  0  0  0  0  0  0
   10.6702   -3.9051   22.4070 C   0  0  0  0  0  0  0  0  0  0  0  0
   11.0625   -3.0028   18.8894 C   0  0  0  0  0  0  0  0  0  0  0  0
    5.6180   -7.9194   16.1754 O   0  0  0  0  0  0  0  0  0  0  0  0
    9.7259   -5.3080   18.4485 C   0  0  0  0  0  0  0  0  0  0  0  0
    9.4578   -5.0200   16.3036 N   0  0  0  0  0  0  0  0  0  0  0  0
    5.0287   -8.9365   16.8223 C   0  0  0  0  0  0  0  0  0  0  0  0
    8.7742   -6.1498   16.6764 C   0  0  0  0  0  0  0  0  0  0  0  0
   10.9418   -3.4032   21.2053 O   0  0  0  0  0  0  0  0  0  0  0  0
    1.4797   -8.6258   16.2950 C   0  0  0  0  0  0  0  0  0  0  0  0
    9.2861   -1.2743   25.3585 C   0  0  0  0  0  0  0  0  0  0  0  0
    1.8892  -10.3985   17.7511 N   0  0  0  0  0  0  0  0  0  0  0  0
    9.6210   -0.6952   24.0976 C   0  0  0  0  0  0  0  0  0  0  0  0
    7.0792   -9.0217   17.1429 C   0  0  0  0  0  0  0  0  0  0  0  0
    3.1713  -10.1816   17.6634 C   0  0  0  0  0  0  0  0  0  0  0  0
    2.7878   -8.3822   16.2137 C   0  0  0  0  0  0  0  0  0  0  0  0
    9.4601   -2.6590   25.6528 C   0  0  0  0  0  0  0  0  0  0  0  0
   10.1182   -1.5672   23.1165 C   0  0  0  0  0  0  0  0  0  0  0  0
    1.0552   -9.6360   17.0650 C   0  0  0  0  0  0  0  0  0  0  0  0
    3.6519   -9.1783   16.9039 C   0  0  0  0  0  0  0  0  0  0  0  0
    7.8675   -7.0096   15.9415 C   0  0  0  0  0  0  0  0  0  0  0  0
    5.9733   -9.6553   17.3832 N   0  0  0  0  0  0  0  0  0  0  0  0
   10.2411   -2.9363   23.4301 C   0  0  0  0  0  0  0  0  0  0  0  0
   10.7288   -3.8197   19.9525 C   0  0  0  0  0  0  0  0  0  0  0  0
   10.1189   -5.0054   19.6987 C   0  0  0  0  0  0  0  0  0  0  0  0
  1  3  4  0
  1  7  4  0
  2 21  4  0
  2 27  4  0
  3  9  4  0
  3 10  4  0
  4  8  4  0
  4 18  4  0
  4 25  1  0
  5  9  4  0
  5 12  4  0
  6 13  1  0
  6 27  1  0
  7 28  4  0
  8 11  4  0
  9 29  4  0
 10 12  4  0
 11 24  1  0
 11 26  4  0
 12 25  1  0
 13 28  1  0
 14 20  4  0
 14 23  4  0
 15 17  4  0
 15 21  4  0
 16 19  4  0
 16 23  4  0
 17 22  4  0
 18 26  4  0
 19 24  4  0
 20 24  4  0
 22 27  4  0
 28 29  4  0
M  END
$$$$

 Created by Python create_sdf_string function

 29 33  0  0  0  0  0  0  0  0999 V2000
   10.7215   -3.3326   17.6437 C   0  0  0  0  0  0  0  0  0  0  0  0
    9.9489   -3.4675   24.6487 N   0  0  0  0  0  0  0  0  0  0  0  0
   10.0172   -4.4740   17.4101 C   0  0  0  0  0  0  0  0  0  0  0  0
    6.9051   -7.9575   16.4222 C   0  0  0  0  0  0  0  0  0  0  0  0
    8.9969   -6.3552   17.9668 N   0  0  0  0  0  0  0  0  0  0  0  0
   10.6702   -3.9051   22.4070 C   0  0  0  0  0  0  0  0  0  0  0  0
   11.0625   -3.0028   18.8894 C   0  0  0  0  0  0  0  0  0  0  0  0
    5.6180   -7.9194   16.1754 O   0  0  0  0  0  0  0  0  0  0  0  0
    9.7259   -5.3080   18.4485 C   0  0  0  0  0  0  0  0  0  0  0  0
    9.4578   -5.0200   16.3036 N   0  0  0  0  0  0  0  0  0  0  0  0
    5.0287   -8.9365   16.8223 C   0  0  0  0  0  0  0  0  0  0  0  0
    8.7742   -6.1498   16.6764 C   0  0  0  0  0  0  0  0  0  0  0  0
   10.9418   -3.4032   21.2053 O   0  0  0  0  0  0  0  0  0  0  0  0
    1.4797   -8.6258   16.2950 C   0  0  0  0  0  0  0  0  0  0  0  0
    9.2861   -1.2743   25.3585 C   0  0  0  0  0  0  0  0  0  0  0  0
    1.8892  -10.3985   17.7511 N   0  0  0  0  0  0  0  0  0  0  0  0
    9.6210   -0.6952   24.0976 C   0  0  0  0  0  0  0  0  0  0  0  0
    7.0792   -9.0217   17.1429 C   0  0  0  0  0  0  0  0  0  0  0  0
    3.1713  -10.1816   17.6634 C   0  0  0  0  0  0  0  0  0  0  0  0
    2.7878   -8.3822   16.2137 C   0  0  0  0  0  0  0  0  0  0  0  0
    9.4601   -2.6590   25.6528 C   0  0  0  0  0  0  0  0  0  0  0  0
   10.1182   -1.5672   23.1165 C   0  0  0  0  0  0  0  0  0  0  0  0
    1.0552   -9.6360   17.0650 C   0  0  0  0  0  0  0  0  0  0  0  0
    3.6519   -9.1783   16.9039 C   0  0  0  0  0  0  0  0  0  0  0  0
    7.8675   -7.0096   15.9415 C   0  0  0  0  0  0  0  0  0  0  0  0
    5.9733   -9.6553   17.3832 N   0  0  0  0  0  0  0  0  0  0  0  0
   10.2411   -2.9363   23.4301 C   0  0  0  0  0  0  0  0  0  0  0  0
   10.7288   -3.8197   19.9525 C   0  0  0  0  0  0  0  0  0  0  0  0
   10.1189   -5.0054   19.6987 C   0  0  0  0  0  0  0  0  0  0  0  0
  1  3  4  0
  1  7  4  0
  2 21  4  0
  2 27  4  0
  3  9  4  0
  3 10  4  0
  4  8  4  0
  4 18  4  0
  4 25  1  0
  5  9  4  0
  5 12  4  0
  6 13  1  0
  6 27  1  0
  7 28  4  0
  8 11  4  0
  9 29  4  0
 10 12  4  0
 11 24  1  0
 11 26  4  0
 12 25  1  0
 13 28  1  0
 14 20  4  0
 14 23  4  0
 15 17  4  0
 15 21  4  0
 16 19  4  0
 16 23  4  0
 17 22  4  0
 18 26  4  0
 19 24  4  0
 20 24  4  0
 22 27  4  0
 28 29  4  0
M  END
$$$$

 Created by Python create_sdf_string function

 29 33  0  0  0  0  0  0  0  0999 V2000
   10.7215   -3.3326   17.6437 C   0  0  0  0  0  0  0  0  0  0  0  0
    9.9489   -3.4675   24.6487 N   0  0  0  0  0  0  0  0  0  0  0  0
   10.0172   -4.4740   17.4101 C   0  0  0  0  0  0  0  0  0  0  0  0
    6.9051   -7.9575   16.4222 C   0  0  0  0  0  0  0  0  0  0  0  0
    8.9969   -6.3552   17.9668 N   0  0  0  0  0  0  0  0  0  0  0  0
   10.6702   -3.9051   22.4070 C   0  0  0  0  0  0  0  0  0  0  0  0
   11.0625   -3.0028   18.8894 C   0  0  0  0  0  0  0  0  0  0  0  0
    5.6180   -7.9194   16.1754 O   0  0  0  0  0  0  0  0  0  0  0  0
    9.7259   -5.3080   18.4485 C   0  0  0  0  0  0  0  0  0  0  0  0
    9.4578   -5.0200   16.3036 N   0  0  0  0  0  0  0  0  0  0  0  0
    5.0287   -8.9365   16.8223 C   0  0  0  0  0  0  0  0  0  0  0  0
    8.7742   -6.1498   16.6764 C   0  0  0  0  0  0  0  0  0  0  0  0
   10.9418   -3.4032   21.2053 O   0  0  0  0  0  0  0  0  0  0  0  0
    1.4797   -8.6258   16.2950 C   0  0  0  0  0  0  0  0  0  0  0  0
    9.2861   -1.2743   25.3585 C   0  0  0  0  0  0  0  0  0  0  0  0
    1.8892  -10.3985   17.7511 N   0  0  0  0  0  0  0  0  0  0  0  0
    9.6210   -0.6952   24.0976 C   0  0  0  0  0  0  0  0  0  0  0  0
    7.0792   -9.0217   17.1429 C   0  0  0  0  0  0  0  0  0  0  0  0
    3.1713  -10.1816   17.6634 C   0  0  0  0  0  0  0  0  0  0  0  0
    2.7878   -8.3822   16.2137 C   0  0  0  0  0  0  0  0  0  0  0  0
    9.4601   -2.6590   25.6528 C   0  0  0  0  0  0  0  0  0  0  0  0
   10.1182   -1.5672   23.1165 C   0  0  0  0  0  0  0  0  0  0  0  0
    1.0552   -9.6360   17.0650 C   0  0  0  0  0  0  0  0  0  0  0  0
    3.6519   -9.1783   16.9039 C   0  0  0  0  0  0  0  0  0  0  0  0
    7.8675   -7.0096   15.9415 C   0  0  0  0  0  0  0  0  0  0  0  0
    5.9733   -9.6553   17.3832 N   0  0  0  0  0  0  0  0  0  0  0  0
   10.2411   -2.9363   23.4301 C   0  0  0  0  0  0  0  0  0  0  0  0
   10.7288   -3.8197   19.9525 C   0  0  0  0  0  0  0  0  0  0  0  0
   10.1189   -5.0054   19.6987 C   0  0  0  0  0  0  0  0  0  0  0  0
  1  3  4  0
  1  7  4  0
  2 21  4  0
  2 27  4  0
  3  9  4  0
  3 10  4  0
  4  8  4  0
  4 18  4  0
  4 25  1  0
  5  9  4  0
  5 12  4  0
  6 13  1  0
  6 27  1  0
  7 28  4  0
  8 11  4  0
  9 29  4  0
 10 12  4  0
 11 24  1  0
 11 26  4  0
 12 25  1  0
 13 28  1  0
 14 20  4  0
 14 23  4  0
 15 17  4  0
 15 21  4  0
 16 19  4  0
 16 23  4  0
 17 22  4  0
 18 26  4  0
 19 24  4  0
 20 24  4  0
 22 27  4  0
 28 29  4  0
M  END
$$$$

 Created by Python create_sdf_string function

 29 33  0  0  0  0  0  0  0  0999 V2000
   10.7215   -3.3326   17.6437 C   0  0  0  0  0  0  0  0  0  0  0  0
    9.9489   -3.4675   24.6487 N   0  0  0  0  0  0  0  0  0  0  0  0
   10.0172   -4.4740   17.4101 C   0  0  0  0  0  0  0  0  0  0  0  0
    6.9051   -7.9575   16.4222 C   0  0  0  0  0  0  0  0  0  0  0  0
    8.9969   -6.3552   17.9668 N   0  0  0  0  0  0  0  0  0  0  0  0
   10.6702   -3.9051   22.4070 C   0  0  0  0  0  0  0  0  0  0  0  0
   11.0625   -3.0028   18.8894 C   0  0  0  0  0  0  0  0  0  0  0  0
    5.6180   -7.9194   16.1754 O   0  0  0  0  0  0  0  0  0  0  0  0
    9.7259   -5.3080   18.4485 C   0  0  0  0  0  0  0  0  0  0  0  0
    9.4578   -5.0200   16.3036 N   0  0  0  0  0  0  0  0  0  0  0  0
    5.0287   -8.9365   16.8223 C   0  0  0  0  0  0  0  0  0  0  0  0
    8.7742   -6.1498   16.6764 C   0  0  0  0  0  0  0  0  0  0  0  0
   10.9418   -3.4032   21.2053 O   0  0  0  0  0  0  0  0  0  0  0  0
    1.4797   -8.6258   16.2950 C   0  0  0  0  0  0  0  0  0  0  0  0
    9.2861   -1.2743   25.3585 C   0  0  0  0  0  0  0  0  0  0  0  0
    1.8892  -10.3985   17.7511 N   0  0  0  0  0  0  0  0  0  0  0  0
    9.6210   -0.6952   24.0976 C   0  0  0  0  0  0  0  0  0  0  0  0
    7.0792   -9.0217   17.1429 C   0  0  0  0  0  0  0  0  0  0  0  0
    3.1713  -10.1816   17.6634 C   0  0  0  0  0  0  0  0  0  0  0  0
    2.7878   -8.3822   16.2137 C   0  0  0  0  0  0  0  0  0  0  0  0
    9.4601   -2.6590   25.6528 C   0  0  0  0  0  0  0  0  0  0  0  0
   10.1182   -1.5672   23.1165 C   0  0  0  0  0  0  0  0  0  0  0  0
    1.0552   -9.6360   17.0650 C   0  0  0  0  0  0  0  0  0  0  0  0
    3.6519   -9.1783   16.9039 C   0  0  0  0  0  0  0  0  0  0  0  0
    7.8675   -7.0096   15.9415 C   0  0  0  0  0  0  0  0  0  0  0  0
    5.9733   -9.6553   17.3832 N   0  0  0  0  0  0  0  0  0  0  0  0
   10.2411   -2.9363   23.4301 C   0  0  0  0  0  0  0  0  0  0  0  0
   10.7288   -3.8197   19.9525 C   0  0  0  0  0  0  0  0  0  0  0  0
   10.1189   -5.0054   19.6987 C   0  0  0  0  0  0  0  0  0  0  0  0
  1  3  4  0
  1  7  4  0
  2 21  4  0
  2 27  4  0
  3  9  4  0
  3 10  4  0
  4  8  4  0
  4 18  4  0
  4 25  1  0
  5  9  4  0
  5 12  4  0
  6 13  1  0
  6 27  1  0
  7 28  4  0
  8 11  4  0
  9 29  4  0
 10 12  4  0
 11 24  1  0
 11 26  4  0
 12 25  1  0
 13 28  1  0
 14 20  4  0
 14 23  4  0
 15 17  4  0
 15 21  4  0
 16 19  4  0
 16 23  4  0
 17 22  4  0
 18 26  4  0
 19 24  4  0
 20 24  4  0
 22 27  4  0
 28 29  4  0
M  END
$$$$

 Created by Python create_sdf_string function

 29 33  0  0  0  0  0  0  0  0999 V2000
   10.7215   -3.3326   17.6437 C   0  0  0  0  0  0  0  0  0  0  0  0
    9.9489   -3.4675   24.6487 N   0  0  0  0  0  0  0  0  0  0  0  0
   10.0172   -4.4740   17.4101 C   0  0  0  0  0  0  0  0  0  0  0  0
    6.9051   -7.9575   16.4222 C   0  0  0  0  0  0  0  0  0  0  0  0
    8.9969   -6.3552   17.9668 N   0  0  0  0  0  0  0  0  0  0  0  0
   10.6702   -3.9051   22.4070 C   0  0  0  0  0  0  0  0  0  0  0  0
   11.0625   -3.0028   18.8894 C   0  0  0  0  0  0  0  0  0  0  0  0
    5.6180   -7.9194   16.1754 O   0  0  0  0  0  0  0  0  0  0  0  0
    9.7259   -5.3080   18.4485 C   0  0  0  0  0  0  0  0  0  0  0  0
    9.4578   -5.0200   16.3036 N   0  0  0  0  0  0  0  0  0  0  0  0
    5.0287   -8.9365   16.8223 C   0  0  0  0  0  0  0  0  0  0  0  0
    8.7742   -6.1498   16.6764 C   0  0  0  0  0  0  0  0  0  0  0  0
   10.9418   -3.4032   21.2053 O   0  0  0  0  0  0  0  0  0  0  0  0
    1.4797   -8.6258   16.2950 C   0  0  0  0  0  0  0  0  0  0  0  0
    9.2861   -1.2743   25.3585 C   0  0  0  0  0  0  0  0  0  0  0  0
    1.8892  -10.3985   17.7511 N   0  0  0  0  0  0  0  0  0  0  0  0
    9.6210   -0.6952   24.0976 C   0  0  0  0  0  0  0  0  0  0  0  0
    7.0792   -9.0217   17.1429 C   0  0  0  0  0  0  0  0  0  0  0  0
    3.1713  -10.1816   17.6634 C   0  0  0  0  0  0  0  0  0  0  0  0
    2.7878   -8.3822   16.2137 C   0  0  0  0  0  0  0  0  0  0  0  0
    9.4601   -2.6590   25.6528 C   0  0  0  0  0  0  0  0  0  0  0  0
   10.1182   -1.5672   23.1165 C   0  0  0  0  0  0  0  0  0  0  0  0
    1.0552   -9.6360   17.0650 C   0  0  0  0  0  0  0  0  0  0  0  0
    3.6519   -9.1783   16.9039 C   0  0  0  0  0  0  0  0  0  0  0  0
    7.8675   -7.0096   15.9415 C   0  0  0  0  0  0  0  0  0  0  0  0
    5.9733   -9.6553   17.3832 N   0  0  0  0  0  0  0  0  0  0  0  0
   10.2411   -2.9363   23.4301 C   0  0  0  0  0  0  0  0  0  0  0  0
   10.7288   -3.8197   19.9525 C   0  0  0  0  0  0  0  0  0  0  0  0
   10.1189   -5.0054   19.6987 C   0  0  0  0  0  0  0  0  0  0  0  0
  1  3  4  0
  1  7  4  0
  2 21  4  0
  2 27  4  0
  3  9  4  0
  3 10  4  0
  4  8  4  0
  4 18  4  0
  4 25  1  0
  5  9  4  0
  5 12  4  0
  6 13  1  0
  6 27  1  0
  7 28  4  0
  8 11  4  0
  9 29  4  0
 10 12  4  0
 11 24  1  0
 11 26  4  0
 12 25  1  0
 13 28  1  0
 14 20  4  0
 14 23  4  0
 15 17  4  0
 15 21  4  0
 16 19  4  0
 16 23  4  0
 17 22  4  0
 18 26  4  0
 19 24  4  0
 20 24  4  0
 22 27  4  0
 28 29  4  0
M  END
$$$$

 Created by Python create_sdf_string function

 29 33  0  0  0  0  0  0  0  0999 V2000
   10.7215   -3.3326   17.6437 C   0  0  0  0  0  0  0  0  0  0  0  0
    9.9489   -3.4675   24.6487 N   0  0  0  0  0  0  0  0  0  0  0  0
   10.0172   -4.4740   17.4101 C   0  0  0  0  0  0  0  0  0  0  0  0
    6.9051   -7.9575   16.4222 C   0  0  0  0  0  0  0  0  0  0  0  0
    8.9969   -6.3552   17.9668 N   0  0  0  0  0  0  0  0  0  0  0  0
   10.6702   -3.9051   22.4070 C   0  0  0  0  0  0  0  0  0  0  0  0
   11.0625   -3.0028   18.8894 C   0  0  0  0  0  0  0  0  0  0  0  0
    5.6180   -7.9194   16.1754 O   0  0  0  0  0  0  0  0  0  0  0  0
    9.7259   -5.3080   18.4485 C   0  0  0  0  0  0  0  0  0  0  0  0
    9.4578   -5.0200   16.3036 N   0  0  0  0  0  0  0  0  0  0  0  0
    5.0287   -8.9365   16.8223 C   0  0  0  0  0  0  0  0  0  0  0  0
    8.7742   -6.1498   16.6764 C   0  0  0  0  0  0  0  0  0  0  0  0
   10.9418   -3.4032   21.2053 O   0  0  0  0  0  0  0  0  0  0  0  0
    1.4797   -8.6258   16.2950 C   0  0  0  0  0  0  0  0  0  0  0  0
    9.2861   -1.2743   25.3585 C   0  0  0  0  0  0  0  0  0  0  0  0
    1.8892  -10.3985   17.7511 N   0  0  0  0  0  0  0  0  0  0  0  0
    9.6210   -0.6952   24.0976 C   0  0  0  0  0  0  0  0  0  0  0  0
    7.0792   -9.0217   17.1429 C   0  0  0  0  0  0  0  0  0  0  0  0
    3.1713  -10.1816   17.6634 C   0  0  0  0  0  0  0  0  0  0  0  0
    2.7878   -8.3822   16.2137 C   0  0  0  0  0  0  0  0  0  0  0  0
    9.4601   -2.6590   25.6528 C   0  0  0  0  0  0  0  0  0  0  0  0
   10.1182   -1.5672   23.1165 C   0  0  0  0  0  0  0  0  0  0  0  0
    1.0552   -9.6360   17.0650 C   0  0  0  0  0  0  0  0  0  0  0  0
    3.6519   -9.1783   16.9039 C   0  0  0  0  0  0  0  0  0  0  0  0
    7.8675   -7.0096   15.9415 C   0  0  0  0  0  0  0  0  0  0  0  0
    5.9733   -9.6553   17.3832 N   0  0  0  0  0  0  0  0  0  0  0  0
   10.2411   -2.9363   23.4301 C   0  0  0  0  0  0  0  0  0  0  0  0
   10.7288   -3.8197   19.9525 C   0  0  0  0  0  0  0  0  0  0  0  0
   10.1189   -5.0054   19.6987 C   0  0  0  0  0  0  0  0  0  0  0  0
  1  3  4  0
  1  7  4  0
  2 21  4  0
  2 27  4  0
  3  9  4  0
  3 10  4  0
  4  8  4  0
  4 18  4  0
  4 25  1  0
  5  9  4  0
  5 12  4  0
  6 13  1  0
  6 27  1  0
  7 28  4  0
  8 11  4  0
  9 29  4  0
 10 12  4  0
 11 24  1  0
 11 26  4  0
 12 25  1  0
 13 28  1  0
 14 20  4  0
 14 23  4  0
 15 17  4  0
 15 21  4  0
 16 19  4  0
 16 23  4  0
 17 22  4  0
 18 26  4  0
 19 24  4  0
 20 24  4  0
 22 27  4  0
 28 29  4  0
M  END
$$$$

 Created by Python create_sdf_string function

 29 33  0  0  0  0  0  0  0  0999 V2000
   10.7215   -3.3326   17.6437 C   0  0  0  0  0  0  0  0  0  0  0  0
    9.9489   -3.4675   24.6487 N   0  0  0  0  0  0  0  0  0  0  0  0
   10.0172   -4.4740   17.4101 C   0  0  0  0  0  0  0  0  0  0  0  0
    6.9051   -7.9575   16.4222 C   0  0  0  0  0  0  0  0  0  0  0  0
    8.9969   -6.3552   17.9668 N   0  0  0  0  0  0  0  0  0  0  0  0
   10.6702   -3.9051   22.4070 C   0  0  0  0  0  0  0  0  0  0  0  0
   11.0625   -3.0028   18.8894 C   0  0  0  0  0  0  0  0  0  0  0  0
    5.6180   -7.9194   16.1754 O   0  0  0  0  0  0  0  0  0  0  0  0
    9.7259   -5.3080   18.4485 C   0  0  0  0  0  0  0  0  0  0  0  0
    9.4578   -5.0200   16.3036 N   0  0  0  0  0  0  0  0  0  0  0  0
    5.0287   -8.9365   16.8223 C   0  0  0  0  0  0  0  0  0  0  0  0
    8.7742   -6.1498   16.6764 C   0  0  0  0  0  0  0  0  0  0  0  0
   10.9418   -3.4032   21.2053 O   0  0  0  0  0  0  0  0  0  0  0  0
    1.4797   -8.6258   16.2950 C   0  0  0  0  0  0  0  0  0  0  0  0
    9.2861   -1.2743   25.3585 C   0  0  0  0  0  0  0  0  0  0  0  0
    1.8892  -10.3985   17.7511 N   0  0  0  0  0  0  0  0  0  0  0  0
    9.6210   -0.6952   24.0976 C   0  0  0  0  0  0  0  0  0  0  0  0
    7.0792   -9.0217   17.1429 C   0  0  0  0  0  0  0  0  0  0  0  0
    3.1713  -10.1816   17.6634 C   0  0  0  0  0  0  0  0  0  0  0  0
    2.7878   -8.3822   16.2137 C   0  0  0  0  0  0  0  0  0  0  0  0
    9.4601   -2.6590   25.6528 C   0  0  0  0  0  0  0  0  0  0  0  0
   10.1182   -1.5672   23.1165 C   0  0  0  0  0  0  0  0  0  0  0  0
    1.0552   -9.6360   17.0650 C   0  0  0  0  0  0  0  0  0  0  0  0
    3.6519   -9.1783   16.9039 C   0  0  0  0  0  0  0  0  0  0  0  0
    7.8675   -7.0096   15.9415 C   0  0  0  0  0  0  0  0  0  0  0  0
    5.9733   -9.6553   17.3832 N   0  0  0  0  0  0  0  0  0  0  0  0
   10.2411   -2.9363   23.4301 C   0  0  0  0  0  0  0  0  0  0  0  0
   10.7288   -3.8197   19.9525 C   0  0  0  0  0  0  0  0  0  0  0  0
   10.1189   -5.0054   19.6987 C   0  0  0  0  0  0  0  0  0  0  0  0
  1  3  4  0
  1  7  4  0
  2 21  4  0
  2 27  4  0
  3  9  4  0
  3 10  4  0
  4  8  4  0
  4 18  4  0
  4 25  1  0
  5  9  4  0
  5 12  4  0
  6 13  1  0
  6 27  1  0
  7 28  4  0
  8 11  4  0
  9 29  4  0
 10 12  4  0
 11 24  1  0
 11 26  4  0
 12 25  1  0
 13 28  1  0
 14 20  4  0
 14 23  4  0
 15 17  4  0
 15 21  4  0
 16 19  4  0
 16 23  4  0
 17 22  4  0
 18 26  4  0
 19 24  4  0
 20 24  4  0
 22 27  4  0
 28 29  4  0
M  END
$$$$

 Created by Python create_sdf_string function

 29 33  0  0  0  0  0  0  0  0999 V2000
   10.7215   -3.3326   17.6437 C   0  0  0  0  0  0  0  0  0  0  0  0
    9.9489   -3.4675   24.6487 N   0  0  0  0  0  0  0  0  0  0  0  0
   10.0172   -4.4740   17.4101 C   0  0  0  0  0  0  0  0  0  0  0  0
    6.9051   -7.9575   16.4222 C   0  0  0  0  0  0  0  0  0  0  0  0
    8.9969   -6.3552   17.9668 N   0  0  0  0  0  0  0  0  0  0  0  0
   10.6702   -3.9051   22.4070 C   0  0  0  0  0  0  0  0  0  0  0  0
   11.0625   -3.0028   18.8894 C   0  0  0  0  0  0  0  0  0  0  0  0
    5.6180   -7.9194   16.1754 O   0  0  0  0  0  0  0  0  0  0  0  0
    9.7259   -5.3080   18.4485 C   0  0  0  0  0  0  0  0  0  0  0  0
    9.4578   -5.0200   16.3036 N   0  0  0  0  0  0  0  0  0  0  0  0
    5.0287   -8.9365   16.8223 C   0  0  0  0  0  0  0  0  0  0  0  0
    8.7742   -6.1498   16.6764 C   0  0  0  0  0  0  0  0  0  0  0  0
   10.9418   -3.4032   21.2053 O   0  0  0  0  0  0  0  0  0  0  0  0
    1.4797   -8.6258   16.2950 C   0  0  0  0  0  0  0  0  0  0  0  0
    9.2861   -1.2743   25.3585 C   0  0  0  0  0  0  0  0  0  0  0  0
    1.8892  -10.3985   17.7511 N   0  0  0  0  0  0  0  0  0  0  0  0
    9.6210   -0.6952   24.0976 C   0  0  0  0  0  0  0  0  0  0  0  0
    7.0792   -9.0217   17.1429 C   0  0  0  0  0  0  0  0  0  0  0  0
    3.1713  -10.1816   17.6634 C   0  0  0  0  0  0  0  0  0  0  0  0
    2.7878   -8.3822   16.2137 C   0  0  0  0  0  0  0  0  0  0  0  0
    9.4601   -2.6590   25.6528 C   0  0  0  0  0  0  0  0  0  0  0  0
   10.1182   -1.5672   23.1165 C   0  0  0  0  0  0  0  0  0  0  0  0
    1.0552   -9.6360   17.0650 C   0  0  0  0  0  0  0  0  0  0  0  0
    3.6519   -9.1783   16.9039 C   0  0  0  0  0  0  0  0  0  0  0  0
    7.8675   -7.0096   15.9415 C   0  0  0  0  0  0  0  0  0  0  0  0
    5.9733   -9.6553   17.3832 N   0  0  0  0  0  0  0  0  0  0  0  0
   10.2411   -2.9363   23.4301 C   0  0  0  0  0  0  0  0  0  0  0  0
   10.7288   -3.8197   19.9525 C   0  0  0  0  0  0  0  0  0  0  0  0
   10.1189   -5.0054   19.6987 C   0  0  0  0  0  0  0  0  0  0  0  0
  1  3  4  0
  1  7  4  0
  2 21  4  0
  2 27  4  0
  3  9  4  0
  3 10  4  0
  4  8  4  0
  4 18  4  0
  4 25  1  0
  5  9  4  0
  5 12  4  0
  6 13  1  0
  6 27  1  0
  7 28  4  0
  8 11  4  0
  9 29  4  0
 10 12  4  0
 11 24  1  0
 11 26  4  0
 12 25  1  0
 13 28  1  0
 14 20  4  0
 14 23  4  0
 15 17  4  0
 15 21  4  0
 16 19  4  0
 16 23  4  0
 17 22  4  0
 18 26  4  0
 19 24  4  0
 20 24  4  0
 22 27  4  0
 28 29  4  0
M  END
$$$$

 Created by Python create_sdf_string function

 29 33  0  0  0  0  0  0  0  0999 V2000
   10.7215   -3.3326   17.6437 C   0  0  0  0  0  0  0  0  0  0  0  0
    9.9489   -3.4675   24.6487 N   0  0  0  0  0  0  0  0  0  0  0  0
   10.0172   -4.4740   17.4101 C   0  0  0  0  0  0  0  0  0  0  0  0
    6.9051   -7.9575   16.4222 C   0  0  0  0  0  0  0  0  0  0  0  0
    8.9969   -6.3552   17.9668 N   0  0  0  0  0  0  0  0  0  0  0  0
   10.6702   -3.9051   22.4070 C   0  0  0  0  0  0  0  0  0  0  0  0
   11.0625   -3.0028   18.8894 C   0  0  0  0  0  0  0  0  0  0  0  0
    5.6180   -7.9194   16.1754 O   0  0  0  0  0  0  0  0  0  0  0  0
    9.7259   -5.3080   18.4485 C   0  0  0  0  0  0  0  0  0  0  0  0
    9.4578   -5.0200   16.3036 N   0  0  0  0  0  0  0  0  0  0  0  0
    5.0287   -8.9365   16.8223 C   0  0  0  0  0  0  0  0  0  0  0  0
    8.7742   -6.1498   16.6764 C   0  0  0  0  0  0  0  0  0  0  0  0
   10.9418   -3.4032   21.2053 O   0  0  0  0  0  0  0  0  0  0  0  0
    1.4797   -8.6258   16.2950 C   0  0  0  0  0  0  0  0  0  0  0  0
    9.2861   -1.2743   25.3585 C   0  0  0  0  0  0  0  0  0  0  0  0
    1.8892  -10.3985   17.7511 N   0  0  0  0  0  0  0  0  0  0  0  0
    9.6210   -0.6952   24.0976 C   0  0  0  0  0  0  0  0  0  0  0  0
    7.0792   -9.0217   17.1429 C   0  0  0  0  0  0  0  0  0  0  0  0
    3.1713  -10.1816   17.6634 C   0  0  0  0  0  0  0  0  0  0  0  0
    2.7878   -8.3822   16.2137 C   0  0  0  0  0  0  0  0  0  0  0  0
    9.4601   -2.6590   25.6528 C   0  0  0  0  0  0  0  0  0  0  0  0
   10.1182   -1.5672   23.1165 C   0  0  0  0  0  0  0  0  0  0  0  0
    1.0552   -9.6360   17.0650 C   0  0  0  0  0  0  0  0  0  0  0  0
    3.6519   -9.1783   16.9039 C   0  0  0  0  0  0  0  0  0  0  0  0
    7.8675   -7.0096   15.9415 C   0  0  0  0  0  0  0  0  0  0  0  0
    5.9733   -9.6553   17.3832 N   0  0  0  0  0  0  0  0  0  0  0  0
   10.2411   -2.9363   23.4301 C   0  0  0  0  0  0  0  0  0  0  0  0
   10.7288   -3.8197   19.9525 C   0  0  0  0  0  0  0  0  0  0  0  0
   10.1189   -5.0054   19.6987 C   0  0  0  0  0  0  0  0  0  0  0  0
  1  3  4  0
  1  7  4  0
  2 21  4  0
  2 27  4  0
  3  9  4  0
  3 10  4  0
  4  8  4  0
  4 18  4  0
  4 25  1  0
  5  9  4  0
  5 12  4  0
  6 13  1  0
  6 27  1  0
  7 28  4  0
  8 11  4  0
  9 29  4  0
 10 12  4  0
 11 24  1  0
 11 26  4  0
 12 25  1  0
 13 28  1  0
 14 20  4  0
 14 23  4  0
 15 17  4  0
 15 21  4  0
 16 19  4  0
 16 23  4  0
 17 22  4  0
 18 26  4  0
 19 24  4  0
 20 24  4  0
 22 27  4  0
 28 29  4  0
M  END
$$$$

 Created by Python create_sdf_string function

 29 33  0  0  0  0  0  0  0  0999 V2000
   10.7215   -3.3326   17.6437 C   0  0  0  0  0  0  0  0  0  0  0  0
    9.9489   -3.4675   24.6487 N   0  0  0  0  0  0  0  0  0  0  0  0
   10.0172   -4.4740   17.4101 C   0  0  0  0  0  0  0  0  0  0  0  0
    6.9051   -7.9575   16.4222 C   0  0  0  0  0  0  0  0  0  0  0  0
    8.9969   -6.3552   17.9668 N   0  0  0  0  0  0  0  0  0  0  0  0
   10.6702   -3.9051   22.4070 C   0  0  0  0  0  0  0  0  0  0  0  0
   11.0625   -3.0028   18.8894 C   0  0  0  0  0  0  0  0  0  0  0  0
    5.6180   -7.9194   16.1754 O   0  0  0  0  0  0  0  0  0  0  0  0
    9.7259   -5.3080   18.4485 C   0  0  0  0  0  0  0  0  0  0  0  0
    9.4578   -5.0200   16.3036 N   0  0  0  0  0  0  0  0  0  0  0  0
    5.0287   -8.9365   16.8223 C   0  0  0  0  0  0  0  0  0  0  0  0
    8.7742   -6.1498   16.6764 C   0  0  0  0  0  0  0  0  0  0  0  0
   10.9418   -3.4032   21.2053 O   0  0  0  0  0  0  0  0  0  0  0  0
    1.4797   -8.6258   16.2950 C   0  0  0  0  0  0  0  0  0  0  0  0
    9.2861   -1.2743   25.3585 C   0  0  0  0  0  0  0  0  0  0  0  0
    1.8892  -10.3985   17.7511 N   0  0  0  0  0  0  0  0  0  0  0  0
    9.6210   -0.6952   24.0976 C   0  0  0  0  0  0  0  0  0  0  0  0
    7.0792   -9.0217   17.1429 C   0  0  0  0  0  0  0  0  0  0  0  0
    3.1713  -10.1816   17.6634 C   0  0  0  0  0  0  0  0  0  0  0  0
    2.7878   -8.3822   16.2137 C   0  0  0  0  0  0  0  0  0  0  0  0
    9.4601   -2.6590   25.6528 C   0  0  0  0  0  0  0  0  0  0  0  0
   10.1182   -1.5672   23.1165 C   0  0  0  0  0  0  0  0  0  0  0  0
    1.0552   -9.6360   17.0650 C   0  0  0  0  0  0  0  0  0  0  0  0
    3.6519   -9.1783   16.9039 C   0  0  0  0  0  0  0  0  0  0  0  0
    7.8675   -7.0096   15.9415 C   0  0  0  0  0  0  0  0  0  0  0  0
    5.9733   -9.6553   17.3832 N   0  0  0  0  0  0  0  0  0  0  0  0
   10.2411   -2.9363   23.4301 C   0  0  0  0  0  0  0  0  0  0  0  0
   10.7288   -3.8197   19.9525 C   0  0  0  0  0  0  0  0  0  0  0  0
   10.1189   -5.0054   19.6987 C   0  0  0  0  0  0  0  0  0  0  0  0
  1  3  4  0
  1  7  4  0
  2 21  4  0
  2 27  4  0
  3  9  4  0
  3 10  4  0
  4  8  4  0
  4 18  4  0
  4 25  1  0
  5  9  4  0
  5 12  4  0
  6 13  1  0
  6 27  1  0
  7 28  4  0
  8 11  4  0
  9 29  4  0
 10 12  4  0
 11 24  1  0
 11 26  4  0
 12 25  1  0
 13 28  1  0
 14 20  4  0
 14 23  4  0
 15 17  4  0
 15 21  4  0
 16 19  4  0
 16 23  4  0
 17 22  4  0
 18 26  4  0
 19 24  4  0
 20 24  4  0
 22 27  4  0
 28 29  4  0
M  END
$$$$

 Created by Python create_sdf_string function

 29 33  0  0  0  0  0  0  0  0999 V2000
   10.7215   -3.3326   17.6437 C   0  0  0  0  0  0  0  0  0  0  0  0
    9.9489   -3.4675   24.6487 N   0  0  0  0  0  0  0  0  0  0  0  0
   10.0172   -4.4740   17.4101 C   0  0  0  0  0  0  0  0  0  0  0  0
    6.9051   -7.9575   16.4222 C   0  0  0  0  0  0  0  0  0  0  0  0
    8.9969   -6.3552   17.9668 N   0  0  0  0  0  0  0  0  0  0  0  0
   10.6702   -3.9051   22.4070 C   0  0  0  0  0  0  0  0  0  0  0  0
   11.0625   -3.0028   18.8894 C   0  0  0  0  0  0  0  0  0  0  0  0
    5.6180   -7.9194   16.1754 O   0  0  0  0  0  0  0  0  0  0  0  0
    9.7259   -5.3080   18.4485 C   0  0  0  0  0  0  0  0  0  0  0  0
    9.4578   -5.0200   16.3036 N   0  0  0  0  0  0  0  0  0  0  0  0
    5.0287   -8.9365   16.8223 C   0  0  0  0  0  0  0  0  0  0  0  0
    8.7742   -6.1498   16.6764 C   0  0  0  0  0  0  0  0  0  0  0  0
   10.9418   -3.4032   21.2053 O   0  0  0  0  0  0  0  0  0  0  0  0
    1.4797   -8.6258   16.2950 C   0  0  0  0  0  0  0  0  0  0  0  0
    9.2861   -1.2743   25.3585 C   0  0  0  0  0  0  0  0  0  0  0  0
    1.8892  -10.3985   17.7511 N   0  0  0  0  0  0  0  0  0  0  0  0
    9.6210   -0.6952   24.0976 C   0  0  0  0  0  0  0  0  0  0  0  0
    7.0792   -9.0217   17.1429 C   0  0  0  0  0  0  0  0  0  0  0  0
    3.1713  -10.1816   17.6634 C   0  0  0  0  0  0  0  0  0  0  0  0
    2.7878   -8.3822   16.2137 C   0  0  0  0  0  0  0  0  0  0  0  0
    9.4601   -2.6590   25.6528 C   0  0  0  0  0  0  0  0  0  0  0  0
   10.1182   -1.5672   23.1165 C   0  0  0  0  0  0  0  0  0  0  0  0
    1.0552   -9.6360   17.0650 C   0  0  0  0  0  0  0  0  0  0  0  0
    3.6519   -9.1783   16.9039 C   0  0  0  0  0  0  0  0  0  0  0  0
    7.8675   -7.0096   15.9415 C   0  0  0  0  0  0  0  0  0  0  0  0
    5.9733   -9.6553   17.3832 N   0  0  0  0  0  0  0  0  0  0  0  0
   10.2411   -2.9363   23.4301 C   0  0  0  0  0  0  0  0  0  0  0  0
   10.7288   -3.8197   19.9525 C   0  0  0  0  0  0  0  0  0  0  0  0
   10.1189   -5.0054   19.6987 C   0  0  0  0  0  0  0  0  0  0  0  0
  1  3  4  0
  1  7  4  0
  2 21  4  0
  2 27  4  0
  3  9  4  0
  3 10  4  0
  4  8  4  0
  4 18  4  0
  4 25  1  0
  5  9  4  0
  5 12  4  0
  6 13  1  0
  6 27  1  0
  7 28  4  0
  8 11  4  0
  9 29  4  0
 10 12  4  0
 11 24  1  0
 11 26  4  0
 12 25  1  0
 13 28  1  0
 14 20  4  0
 14 23  4  0
 15 17  4  0
 15 21  4  0
 16 19  4  0
 16 23  4  0
 17 22  4  0
 18 26  4  0
 19 24  4  0
 20 24  4  0
 22 27  4  0
 28 29  4  0
M  END
$$$$

 Created by Python create_sdf_string function

 29 33  0  0  0  0  0  0  0  0999 V2000
   10.7215   -3.3326   17.6437 C   0  0  0  0  0  0  0  0  0  0  0  0
    9.9489   -3.4675   24.6487 N   0  0  0  0  0  0  0  0  0  0  0  0
   10.0172   -4.4740   17.4101 C   0  0  0  0  0  0  0  0  0  0  0  0
    6.9051   -7.9575   16.4222 C   0  0  0  0  0  0  0  0  0  0  0  0
    8.9969   -6.3552   17.9668 N   0  0  0  0  0  0  0  0  0  0  0  0
   10.6702   -3.9051   22.4070 C   0  0  0  0  0  0  0  0  0  0  0  0
   11.0625   -3.0028   18.8894 C   0  0  0  0  0  0  0  0  0  0  0  0
    5.6180   -7.9194   16.1754 O   0  0  0  0  0  0  0  0  0  0  0  0
    9.7259   -5.3080   18.4485 C   0  0  0  0  0  0  0  0  0  0  0  0
    9.4578   -5.0200   16.3036 N   0  0  0  0  0  0  0  0  0  0  0  0
    5.0287   -8.9365   16.8223 C   0  0  0  0  0  0  0  0  0  0  0  0
    8.7742   -6.1498   16.6764 C   0  0  0  0  0  0  0  0  0  0  0  0
   10.9418   -3.4032   21.2053 O   0  0  0  0  0  0  0  0  0  0  0  0
    1.4797   -8.6258   16.2950 C   0  0  0  0  0  0  0  0  0  0  0  0
    9.2861   -1.2743   25.3585 C   0  0  0  0  0  0  0  0  0  0  0  0
    1.8892  -10.3985   17.7511 N   0  0  0  0  0  0  0  0  0  0  0  0
    9.6210   -0.6952   24.0976 C   0  0  0  0  0  0  0  0  0  0  0  0
    7.0792   -9.0217   17.1429 C   0  0  0  0  0  0  0  0  0  0  0  0
    3.1713  -10.1816   17.6634 C   0  0  0  0  0  0  0  0  0  0  0  0
    2.7878   -8.3822   16.2137 C   0  0  0  0  0  0  0  0  0  0  0  0
    9.4601   -2.6590   25.6528 C   0  0  0  0  0  0  0  0  0  0  0  0
   10.1182   -1.5672   23.1165 C   0  0  0  0  0  0  0  0  0  0  0  0
    1.0552   -9.6360   17.0650 C   0  0  0  0  0  0  0  0  0  0  0  0
    3.6519   -9.1783   16.9039 C   0  0  0  0  0  0  0  0  0  0  0  0
    7.8675   -7.0096   15.9415 C   0  0  0  0  0  0  0  0  0  0  0  0
    5.9733   -9.6553   17.3832 N   0  0  0  0  0  0  0  0  0  0  0  0
   10.2411   -2.9363   23.4301 C   0  0  0  0  0  0  0  0  0  0  0  0
   10.7288   -3.8197   19.9525 C   0  0  0  0  0  0  0  0  0  0  0  0
   10.1189   -5.0054   19.6987 C   0  0  0  0  0  0  0  0  0  0  0  0
  1  3  4  0
  1  7  4  0
  2 21  4  0
  2 27  4  0
  3  9  4  0
  3 10  4  0
  4  8  4  0
  4 18  4  0
  4 25  1  0
  5  9  4  0
  5 12  4  0
  6 13  1  0
  6 27  1  0
  7 28  4  0
  8 11  4  0
  9 29  4  0
 10 12  4  0
 11 24  1  0
 11 26  4  0
 12 25  1  0
 13 28  1  0
 14 20  4  0
 14 23  4  0
 15 17  4  0
 15 21  4  0
 16 19  4  0
 16 23  4  0
 17 22  4  0
 18 26  4  0
 19 24  4  0
 20 24  4  0
 22 27  4  0
 28 29  4  0
M  END
$$$$

 Created by Python create_sdf_string function

 29 33  0  0  0  0  0  0  0  0999 V2000
   10.7215   -3.3326   17.6437 C   0  0  0  0  0  0  0  0  0  0  0  0
    9.9489   -3.4675   24.6487 N   0  0  0  0  0  0  0  0  0  0  0  0
   10.0172   -4.4740   17.4101 C   0  0  0  0  0  0  0  0  0  0  0  0
    6.9051   -7.9575   16.4222 C   0  0  0  0  0  0  0  0  0  0  0  0
    8.9969   -6.3552   17.9668 N   0  0  0  0  0  0  0  0  0  0  0  0
   10.6702   -3.9051   22.4070 C   0  0  0  0  0  0  0  0  0  0  0  0
   11.0625   -3.0028   18.8894 C   0  0  0  0  0  0  0  0  0  0  0  0
    5.6180   -7.9194   16.1754 O   0  0  0  0  0  0  0  0  0  0  0  0
    9.7259   -5.3080   18.4485 C   0  0  0  0  0  0  0  0  0  0  0  0
    9.4578   -5.0200   16.3036 N   0  0  0  0  0  0  0  0  0  0  0  0
    5.0287   -8.9365   16.8223 C   0  0  0  0  0  0  0  0  0  0  0  0
    8.7742   -6.1498   16.6764 C   0  0  0  0  0  0  0  0  0  0  0  0
   10.9418   -3.4032   21.2053 O   0  0  0  0  0  0  0  0  0  0  0  0
    1.4797   -8.6258   16.2950 C   0  0  0  0  0  0  0  0  0  0  0  0
    9.2861   -1.2743   25.3585 C   0  0  0  0  0  0  0  0  0  0  0  0
    1.8892  -10.3985   17.7511 N   0  0  0  0  0  0  0  0  0  0  0  0
    9.6210   -0.6952   24.0976 C   0  0  0  0  0  0  0  0  0  0  0  0
    7.0792   -9.0217   17.1429 C   0  0  0  0  0  0  0  0  0  0  0  0
    3.1713  -10.1816   17.6634 C   0  0  0  0  0  0  0  0  0  0  0  0
    2.7878   -8.3822   16.2137 C   0  0  0  0  0  0  0  0  0  0  0  0
    9.4601   -2.6590   25.6528 C   0  0  0  0  0  0  0  0  0  0  0  0
   10.1182   -1.5672   23.1165 C   0  0  0  0  0  0  0  0  0  0  0  0
    1.0552   -9.6360   17.0650 C   0  0  0  0  0  0  0  0  0  0  0  0
    3.6519   -9.1783   16.9039 C   0  0  0  0  0  0  0  0  0  0  0  0
    7.8675   -7.0096   15.9415 C   0  0  0  0  0  0  0  0  0  0  0  0
    5.9733   -9.6553   17.3832 N   0  0  0  0  0  0  0  0  0  0  0  0
   10.2411   -2.9363   23.4301 C   0  0  0  0  0  0  0  0  0  0  0  0
   10.7288   -3.8197   19.9525 C   0  0  0  0  0  0  0  0  0  0  0  0
   10.1189   -5.0054   19.6987 C   0  0  0  0  0  0  0  0  0  0  0  0
  1  3  4  0
  1  7  4  0
  2 21  4  0
  2 27  4  0
  3  9  4  0
  3 10  4  0
  4  8  4  0
  4 18  4  0
  4 25  1  0
  5  9  4  0
  5 12  4  0
  6 13  1  0
  6 27  1  0
  7 28  4  0
  8 11  4  0
  9 29  4  0
 10 12  4  0
 11 24  1  0
 11 26  4  0
 12 25  1  0
 13 28  1  0
 14 20  4  0
 14 23  4  0
 15 17  4  0
 15 21  4  0
 16 19  4  0
 16 23  4  0
 17 22  4  0
 18 26  4  0
 19 24  4  0
 20 24  4  0
 22 27  4  0
 28 29  4  0
M  END
$$$$

 Created by Python create_sdf_string function

 29 33  0  0  0  0  0  0  0  0999 V2000
   10.7215   -3.3326   17.6437 C   0  0  0  0  0  0  0  0  0  0  0  0
    9.9489   -3.4675   24.6487 N   0  0  0  0  0  0  0  0  0  0  0  0
   10.0172   -4.4740   17.4101 C   0  0  0  0  0  0  0  0  0  0  0  0
    6.9051   -7.9575   16.4222 C   0  0  0  0  0  0  0  0  0  0  0  0
    8.9969   -6.3552   17.9668 N   0  0  0  0  0  0  0  0  0  0  0  0
   10.6702   -3.9051   22.4070 C   0  0  0  0  0  0  0  0  0  0  0  0
   11.0625   -3.0028   18.8894 C   0  0  0  0  0  0  0  0  0  0  0  0
    5.6180   -7.9194   16.1754 O   0  0  0  0  0  0  0  0  0  0  0  0
    9.7259   -5.3080   18.4485 C   0  0  0  0  0  0  0  0  0  0  0  0
    9.4578   -5.0200   16.3036 N   0  0  0  0  0  0  0  0  0  0  0  0
    5.0287   -8.9365   16.8223 C   0  0  0  0  0  0  0  0  0  0  0  0
    8.7742   -6.1498   16.6764 C   0  0  0  0  0  0  0  0  0  0  0  0
   10.9418   -3.4032   21.2053 O   0  0  0  0  0  0  0  0  0  0  0  0
    1.4797   -8.6258   16.2950 C   0  0  0  0  0  0  0  0  0  0  0  0
    9.2861   -1.2743   25.3585 C   0  0  0  0  0  0  0  0  0  0  0  0
    1.8892  -10.3985   17.7511 N   0  0  0  0  0  0  0  0  0  0  0  0
    9.6210   -0.6952   24.0976 C   0  0  0  0  0  0  0  0  0  0  0  0
    7.0792   -9.0217   17.1429 C   0  0  0  0  0  0  0  0  0  0  0  0
    3.1713  -10.1816   17.6634 C   0  0  0  0  0  0  0  0  0  0  0  0
    2.7878   -8.3822   16.2137 C   0  0  0  0  0  0  0  0  0  0  0  0
    9.4601   -2.6590   25.6528 C   0  0  0  0  0  0  0  0  0  0  0  0
   10.1182   -1.5672   23.1165 C   0  0  0  0  0  0  0  0  0  0  0  0
    1.0552   -9.6360   17.0650 C   0  0  0  0  0  0  0  0  0  0  0  0
    3.6519   -9.1783   16.9039 C   0  0  0  0  0  0  0  0  0  0  0  0
    7.8675   -7.0096   15.9415 C   0  0  0  0  0  0  0  0  0  0  0  0
    5.9733   -9.6553   17.3832 N   0  0  0  0  0  0  0  0  0  0  0  0
   10.2411   -2.9363   23.4301 C   0  0  0  0  0  0  0  0  0  0  0  0
   10.7288   -3.8197   19.9525 C   0  0  0  0  0  0  0  0  0  0  0  0
   10.1189   -5.0054   19.6987 C   0  0  0  0  0  0  0  0  0  0  0  0
  1  3  4  0
  1  7  4  0
  2 21  4  0
  2 27  4  0
  3  9  4  0
  3 10  4  0
  4  8  4  0
  4 18  4  0
  4 25  1  0
  5  9  4  0
  5 12  4  0
  6 13  1  0
  6 27  1  0
  7 28  4  0
  8 11  4  0
  9 29  4  0
 10 12  4  0
 11 24  1  0
 11 26  4  0
 12 25  1  0
 13 28  1  0
 14 20  4  0
 14 23  4  0
 15 17  4  0
 15 21  4  0
 16 19  4  0
 16 23  4  0
 17 22  4  0
 18 26  4  0
 19 24  4  0
 20 24  4  0
 22 27  4  0
 28 29  4  0
M  END
$$$$

 Created by Python create_sdf_string function

 29 33  0  0  0  0  0  0  0  0999 V2000
   10.7215   -3.3326   17.6437 C   0  0  0  0  0  0  0  0  0  0  0  0
    9.9489   -3.4675   24.6487 N   0  0  0  0  0  0  0  0  0  0  0  0
   10.0172   -4.4740   17.4101 C   0  0  0  0  0  0  0  0  0  0  0  0
    6.9051   -7.9575   16.4222 C   0  0  0  0  0  0  0  0  0  0  0  0
    8.9969   -6.3552   17.9668 N   0  0  0  0  0  0  0  0  0  0  0  0
   10.6702   -3.9051   22.4070 C   0  0  0  0  0  0  0  0  0  0  0  0
   11.0625   -3.0028   18.8894 C   0  0  0  0  0  0  0  0  0  0  0  0
    5.6180   -7.9194   16.1754 O   0  0  0  0  0  0  0  0  0  0  0  0
    9.7259   -5.3080   18.4485 C   0  0  0  0  0  0  0  0  0  0  0  0
    9.4578   -5.0200   16.3036 N   0  0  0  0  0  0  0  0  0  0  0  0
    5.0287   -8.9365   16.8223 C   0  0  0  0  0  0  0  0  0  0  0  0
    8.7742   -6.1498   16.6764 C   0  0  0  0  0  0  0  0  0  0  0  0
   10.9418   -3.4032   21.2053 O   0  0  0  0  0  0  0  0  0  0  0  0
    1.4797   -8.6258   16.2950 C   0  0  0  0  0  0  0  0  0  0  0  0
    9.2861   -1.2743   25.3585 C   0  0  0  0  0  0  0  0  0  0  0  0
    1.8892  -10.3985   17.7511 N   0  0  0  0  0  0  0  0  0  0  0  0
    9.6210   -0.6952   24.0976 C   0  0  0  0  0  0  0  0  0  0  0  0
    7.0792   -9.0217   17.1429 C   0  0  0  0  0  0  0  0  0  0  0  0
    3.1713  -10.1816   17.6634 C   0  0  0  0  0  0  0  0  0  0  0  0
    2.7878   -8.3822   16.2137 C   0  0  0  0  0  0  0  0  0  0  0  0
    9.4601   -2.6590   25.6528 C   0  0  0  0  0  0  0  0  0  0  0  0
   10.1182   -1.5672   23.1165 C   0  0  0  0  0  0  0  0  0  0  0  0
    1.0552   -9.6360   17.0650 C   0  0  0  0  0  0  0  0  0  0  0  0
    3.6519   -9.1783   16.9039 C   0  0  0  0  0  0  0  0  0  0  0  0
    7.8675   -7.0096   15.9415 C   0  0  0  0  0  0  0  0  0  0  0  0
    5.9733   -9.6553   17.3832 N   0  0  0  0  0  0  0  0  0  0  0  0
   10.2411   -2.9363   23.4301 C   0  0  0  0  0  0  0  0  0  0  0  0
   10.7288   -3.8197   19.9525 C   0  0  0  0  0  0  0  0  0  0  0  0
   10.1189   -5.0054   19.6987 C   0  0  0  0  0  0  0  0  0  0  0  0
  1  3  4  0
  1  7  4  0
  2 21  4  0
  2 27  4  0
  3  9  4  0
  3 10  4  0
  4  8  4  0
  4 18  4  0
  4 25  1  0
  5  9  4  0
  5 12  4  0
  6 13  1  0
  6 27  1  0
  7 28  4  0
  8 11  4  0
  9 29  4  0
 10 12  4  0
 11 24  1  0
 11 26  4  0
 12 25  1  0
 13 28  1  0
 14 20  4  0
 14 23  4  0
 15 17  4  0
 15 21  4  0
 16 19  4  0
 16 23  4  0
 17 22  4  0
 18 26  4  0
 19 24  4  0
 20 24  4  0
 22 27  4  0
 28 29  4  0
M  END
$$$$

 Created by Python create_sdf_string function

 29 33  0  0  0  0  0  0  0  0999 V2000
   10.7215   -3.3326   17.6437 C   0  0  0  0  0  0  0  0  0  0  0  0
    9.9489   -3.4675   24.6487 N   0  0  0  0  0  0  0  0  0  0  0  0
   10.0172   -4.4740   17.4101 C   0  0  0  0  0  0  0  0  0  0  0  0
    6.9051   -7.9575   16.4222 C   0  0  0  0  0  0  0  0  0  0  0  0
    8.9969   -6.3552   17.9668 N   0  0  0  0  0  0  0  0  0  0  0  0
   10.6702   -3.9051   22.4070 C   0  0  0  0  0  0  0  0  0  0  0  0
   11.0625   -3.0028   18.8894 C   0  0  0  0  0  0  0  0  0  0  0  0
    5.6180   -7.9194   16.1754 O   0  0  0  0  0  0  0  0  0  0  0  0
    9.7259   -5.3080   18.4485 C   0  0  0  0  0  0  0  0  0  0  0  0
    9.4578   -5.0200   16.3036 N   0  0  0  0  0  0  0  0  0  0  0  0
    5.0287   -8.9365   16.8223 C   0  0  0  0  0  0  0  0  0  0  0  0
    8.7742   -6.1498   16.6764 C   0  0  0  0  0  0  0  0  0  0  0  0
   10.9418   -3.4032   21.2053 O   0  0  0  0  0  0  0  0  0  0  0  0
    1.4797   -8.6258   16.2950 C   0  0  0  0  0  0  0  0  0  0  0  0
    9.2861   -1.2743   25.3585 C   0  0  0  0  0  0  0  0  0  0  0  0
    1.8892  -10.3985   17.7511 N   0  0  0  0  0  0  0  0  0  0  0  0
    9.6210   -0.6952   24.0976 C   0  0  0  0  0  0  0  0  0  0  0  0
    7.0792   -9.0217   17.1429 C   0  0  0  0  0  0  0  0  0  0  0  0
    3.1713  -10.1816   17.6634 C   0  0  0  0  0  0  0  0  0  0  0  0
    2.7878   -8.3822   16.2137 C   0  0  0  0  0  0  0  0  0  0  0  0
    9.4601   -2.6590   25.6528 C   0  0  0  0  0  0  0  0  0  0  0  0
   10.1182   -1.5672   23.1165 C   0  0  0  0  0  0  0  0  0  0  0  0
    1.0552   -9.6360   17.0650 C   0  0  0  0  0  0  0  0  0  0  0  0
    3.6519   -9.1783   16.9039 C   0  0  0  0  0  0  0  0  0  0  0  0
    7.8675   -7.0096   15.9415 C   0  0  0  0  0  0  0  0  0  0  0  0
    5.9733   -9.6553   17.3832 N   0  0  0  0  0  0  0  0  0  0  0  0
   10.2411   -2.9363   23.4301 C   0  0  0  0  0  0  0  0  0  0  0  0
   10.7288   -3.8197   19.9525 C   0  0  0  0  0  0  0  0  0  0  0  0
   10.1189   -5.0054   19.6987 C   0  0  0  0  0  0  0  0  0  0  0  0
  1  3  4  0
  1  7  4  0
  2 21  4  0
  2 27  4  0
  3  9  4  0
  3 10  4  0
  4  8  4  0
  4 18  4  0
  4 25  1  0
  5  9  4  0
  5 12  4  0
  6 13  1  0
  6 27  1  0
  7 28  4  0
  8 11  4  0
  9 29  4  0
 10 12  4  0
 11 24  1  0
 11 26  4  0
 12 25  1  0
 13 28  1  0
 14 20  4  0
 14 23  4  0
 15 17  4  0
 15 21  4  0
 16 19  4  0
 16 23  4  0
 17 22  4  0
 18 26  4  0
 19 24  4  0
 20 24  4  0
 22 27  4  0
 28 29  4  0
M  END
$$$$

 Created by Python create_sdf_string function

 29 33  0  0  0  0  0  0  0  0999 V2000
   10.7215   -3.3326   17.6437 C   0  0  0  0  0  0  0  0  0  0  0  0
    9.9489   -3.4675   24.6487 N   0  0  0  0  0  0  0  0  0  0  0  0
   10.0172   -4.4740   17.4101 C   0  0  0  0  0  0  0  0  0  0  0  0
    6.9051   -7.9575   16.4222 C   0  0  0  0  0  0  0  0  0  0  0  0
    8.9969   -6.3552   17.9668 N   0  0  0  0  0  0  0  0  0  0  0  0
   10.6702   -3.9051   22.4070 C   0  0  0  0  0  0  0  0  0  0  0  0
   11.0625   -3.0028   18.8894 C   0  0  0  0  0  0  0  0  0  0  0  0
    5.6180   -7.9194   16.1754 O   0  0  0  0  0  0  0  0  0  0  0  0
    9.7259   -5.3080   18.4485 C   0  0  0  0  0  0  0  0  0  0  0  0
    9.4578   -5.0200   16.3036 N   0  0  0  0  0  0  0  0  0  0  0  0
    5.0287   -8.9365   16.8223 C   0  0  0  0  0  0  0  0  0  0  0  0
    8.7742   -6.1498   16.6764 C   0  0  0  0  0  0  0  0  0  0  0  0
   10.9418   -3.4032   21.2053 O   0  0  0  0  0  0  0  0  0  0  0  0
    1.4797   -8.6258   16.2950 C   0  0  0  0  0  0  0  0  0  0  0  0
    9.2861   -1.2743   25.3585 C   0  0  0  0  0  0  0  0  0  0  0  0
    1.8892  -10.3985   17.7511 N   0  0  0  0  0  0  0  0  0  0  0  0
    9.6210   -0.6952   24.0976 C   0  0  0  0  0  0  0  0  0  0  0  0
    7.0792   -9.0217   17.1429 C   0  0  0  0  0  0  0  0  0  0  0  0
    3.1713  -10.1816   17.6634 C   0  0  0  0  0  0  0  0  0  0  0  0
    2.7878   -8.3822   16.2137 C   0  0  0  0  0  0  0  0  0  0  0  0
    9.4601   -2.6590   25.6528 C   0  0  0  0  0  0  0  0  0  0  0  0
   10.1182   -1.5672   23.1165 C   0  0  0  0  0  0  0  0  0  0  0  0
    1.0552   -9.6360   17.0650 C   0  0  0  0  0  0  0  0  0  0  0  0
    3.6519   -9.1783   16.9039 C   0  0  0  0  0  0  0  0  0  0  0  0
    7.8675   -7.0096   15.9415 C   0  0  0  0  0  0  0  0  0  0  0  0
    5.9733   -9.6553   17.3832 N   0  0  0  0  0  0  0  0  0  0  0  0
   10.2411   -2.9363   23.4301 C   0  0  0  0  0  0  0  0  0  0  0  0
   10.7288   -3.8197   19.9525 C   0  0  0  0  0  0  0  0  0  0  0  0
   10.1189   -5.0054   19.6987 C   0  0  0  0  0  0  0  0  0  0  0  0
  1  3  4  0
  1  7  4  0
  2 21  4  0
  2 27  4  0
  3  9  4  0
  3 10  4  0
  4  8  4  0
  4 18  4  0
  4 25  1  0
  5  9  4  0
  5 12  4  0
  6 13  1  0
  6 27  1  0
  7 28  4  0
  8 11  4  0
  9 29  4  0
 10 12  4  0
 11 24  1  0
 11 26  4  0
 12 25  1  0
 13 28  1  0
 14 20  4  0
 14 23  4  0
 15 17  4  0
 15 21  4  0
 16 19  4  0
 16 23  4  0
 17 22  4  0
 18 26  4  0
 19 24  4  0
 20 24  4  0
 22 27  4  0
 28 29  4  0
M  END
$$$$

 Created by Python create_sdf_string function

 29 33  0  0  0  0  0  0  0  0999 V2000
   10.7215   -3.3326   17.6437 C   0  0  0  0  0  0  0  0  0  0  0  0
    9.9489   -3.4675   24.6487 N   0  0  0  0  0  0  0  0  0  0  0  0
   10.0172   -4.4740   17.4101 C   0  0  0  0  0  0  0  0  0  0  0  0
    6.9051   -7.9575   16.4222 C   0  0  0  0  0  0  0  0  0  0  0  0
    8.9969   -6.3552   17.9668 N   0  0  0  0  0  0  0  0  0  0  0  0
   10.6702   -3.9051   22.4070 C   0  0  0  0  0  0  0  0  0  0  0  0
   11.0625   -3.0028   18.8894 C   0  0  0  0  0  0  0  0  0  0  0  0
    5.6180   -7.9194   16.1754 O   0  0  0  0  0  0  0  0  0  0  0  0
    9.7259   -5.3080   18.4485 C   0  0  0  0  0  0  0  0  0  0  0  0
    9.4578   -5.0200   16.3036 N   0  0  0  0  0  0  0  0  0  0  0  0
    5.0287   -8.9365   16.8223 C   0  0  0  0  0  0  0  0  0  0  0  0
    8.7742   -6.1498   16.6764 C   0  0  0  0  0  0  0  0  0  0  0  0
   10.9418   -3.4032   21.2053 O   0  0  0  0  0  0  0  0  0  0  0  0
    1.4797   -8.6258   16.2950 C   0  0  0  0  0  0  0  0  0  0  0  0
    9.2861   -1.2743   25.3585 C   0  0  0  0  0  0  0  0  0  0  0  0
    1.8892  -10.3985   17.7511 N   0  0  0  0  0  0  0  0  0  0  0  0
    9.6210   -0.6952   24.0976 C   0  0  0  0  0  0  0  0  0  0  0  0
    7.0792   -9.0217   17.1429 C   0  0  0  0  0  0  0  0  0  0  0  0
    3.1713  -10.1816   17.6634 C   0  0  0  0  0  0  0  0  0  0  0  0
    2.7878   -8.3822   16.2137 C   0  0  0  0  0  0  0  0  0  0  0  0
    9.4601   -2.6590   25.6528 C   0  0  0  0  0  0  0  0  0  0  0  0
   10.1182   -1.5672   23.1165 C   0  0  0  0  0  0  0  0  0  0  0  0
    1.0552   -9.6360   17.0650 C   0  0  0  0  0  0  0  0  0  0  0  0
    3.6519   -9.1783   16.9039 C   0  0  0  0  0  0  0  0  0  0  0  0
    7.8675   -7.0096   15.9415 C   0  0  0  0  0  0  0  0  0  0  0  0
    5.9733   -9.6553   17.3832 N   0  0  0  0  0  0  0  0  0  0  0  0
   10.2411   -2.9363   23.4301 C   0  0  0  0  0  0  0  0  0  0  0  0
   10.7288   -3.8197   19.9525 C   0  0  0  0  0  0  0  0  0  0  0  0
   10.1189   -5.0054   19.6987 C   0  0  0  0  0  0  0  0  0  0  0  0
  1  3  4  0
  1  7  4  0
  2 21  4  0
  2 27  4  0
  3  9  4  0
  3 10  4  0
  4  8  4  0
  4 18  4  0
  4 25  1  0
  5  9  4  0
  5 12  4  0
  6 13  1  0
  6 27  1  0
  7 28  4  0
  8 11  4  0
  9 29  4  0
 10 12  4  0
 11 24  1  0
 11 26  4  0
 12 25  1  0
 13 28  1  0
 14 20  4  0
 14 23  4  0
 15 17  4  0
 15 21  4  0
 16 19  4  0
 16 23  4  0
 17 22  4  0
 18 26  4  0
 19 24  4  0
 20 24  4  0
 22 27  4  0
 28 29  4  0
M  END
$$$$

 Created by Python create_sdf_string function

 29 33  0  0  0  0  0  0  0  0999 V2000
   10.7215   -3.3326   17.6437 C   0  0  0  0  0  0  0  0  0  0  0  0
    9.9489   -3.4675   24.6487 N   0  0  0  0  0  0  0  0  0  0  0  0
   10.0172   -4.4740   17.4101 C   0  0  0  0  0  0  0  0  0  0  0  0
    6.9051   -7.9575   16.4222 C   0  0  0  0  0  0  0  0  0  0  0  0
    8.9969   -6.3552   17.9668 N   0  0  0  0  0  0  0  0  0  0  0  0
   10.6702   -3.9051   22.4070 C   0  0  0  0  0  0  0  0  0  0  0  0
   11.0625   -3.0028   18.8894 C   0  0  0  0  0  0  0  0  0  0  0  0
    5.6180   -7.9194   16.1754 O   0  0  0  0  0  0  0  0  0  0  0  0
    9.7259   -5.3080   18.4485 C   0  0  0  0  0  0  0  0  0  0  0  0
    9.4578   -5.0200   16.3036 N   0  0  0  0  0  0  0  0  0  0  0  0
    5.0287   -8.9365   16.8223 C   0  0  0  0  0  0  0  0  0  0  0  0
    8.7742   -6.1498   16.6764 C   0  0  0  0  0  0  0  0  0  0  0  0
   10.9418   -3.4032   21.2053 O   0  0  0  0  0  0  0  0  0  0  0  0
    1.4797   -8.6258   16.2950 C   0  0  0  0  0  0  0  0  0  0  0  0
    9.2861   -1.2743   25.3585 C   0  0  0  0  0  0  0  0  0  0  0  0
    1.8892  -10.3985   17.7511 N   0  0  0  0  0  0  0  0  0  0  0  0
    9.6210   -0.6952   24.0976 C   0  0  0  0  0  0  0  0  0  0  0  0
    7.0792   -9.0217   17.1429 C   0  0  0  0  0  0  0  0  0  0  0  0
    3.1713  -10.1816   17.6634 C   0  0  0  0  0  0  0  0  0  0  0  0
    2.7878   -8.3822   16.2137 C   0  0  0  0  0  0  0  0  0  0  0  0
    9.4601   -2.6590   25.6528 C   0  0  0  0  0  0  0  0  0  0  0  0
   10.1182   -1.5672   23.1165 C   0  0  0  0  0  0  0  0  0  0  0  0
    1.0552   -9.6360   17.0650 C   0  0  0  0  0  0  0  0  0  0  0  0
    3.6519   -9.1783   16.9039 C   0  0  0  0  0  0  0  0  0  0  0  0
    7.8675   -7.0096   15.9415 C   0  0  0  0  0  0  0  0  0  0  0  0
    5.9733   -9.6553   17.3832 N   0  0  0  0  0  0  0  0  0  0  0  0
   10.2411   -2.9363   23.4301 C   0  0  0  0  0  0  0  0  0  0  0  0
   10.7288   -3.8197   19.9525 C   0  0  0  0  0  0  0  0  0  0  0  0
   10.1189   -5.0054   19.6987 C   0  0  0  0  0  0  0  0  0  0  0  0
  1  3  4  0
  1  7  4  0
  2 21  4  0
  2 27  4  0
  3  9  4  0
  3 10  4  0
  4  8  4  0
  4 18  4  0
  4 25  1  0
  5  9  4  0
  5 12  4  0
  6 13  1  0
  6 27  1  0
  7 28  4  0
  8 11  4  0
  9 29  4  0
 10 12  4  0
 11 24  1  0
 11 26  4  0
 12 25  1  0
 13 28  1  0
 14 20  4  0
 14 23  4  0
 15 17  4  0
 15 21  4  0
 16 19  4  0
 16 23  4  0
 17 22  4  0
 18 26  4  0
 19 24  4  0
 20 24  4  0
 22 27  4  0
 28 29  4  0
M  END
$$$$

 Created by Python create_sdf_string function

 29 33  0  0  0  0  0  0  0  0999 V2000
   10.7215   -3.3326   17.6437 C   0  0  0  0  0  0  0  0  0  0  0  0
    9.9489   -3.4675   24.6487 N   0  0  0  0  0  0  0  0  0  0  0  0
   10.0172   -4.4740   17.4101 C   0  0  0  0  0  0  0  0  0  0  0  0
    6.9051   -7.9575   16.4222 C   0  0  0  0  0  0  0  0  0  0  0  0
    8.9969   -6.3552   17.9668 N   0  0  0  0  0  0  0  0  0  0  0  0
   10.6702   -3.9051   22.4070 C   0  0  0  0  0  0  0  0  0  0  0  0
   11.0625   -3.0028   18.8894 C   0  0  0  0  0  0  0  0  0  0  0  0
    5.6180   -7.9194   16.1754 O   0  0  0  0  0  0  0  0  0  0  0  0
    9.7259   -5.3080   18.4485 C   0  0  0  0  0  0  0  0  0  0  0  0
    9.4578   -5.0200   16.3036 N   0  0  0  0  0  0  0  0  0  0  0  0
    5.0287   -8.9365   16.8223 C   0  0  0  0  0  0  0  0  0  0  0  0
    8.7742   -6.1498   16.6764 C   0  0  0  0  0  0  0  0  0  0  0  0
   10.9418   -3.4032   21.2053 O   0  0  0  0  0  0  0  0  0  0  0  0
    1.4797   -8.6258   16.2950 C   0  0  0  0  0  0  0  0  0  0  0  0
    9.2861   -1.2743   25.3585 C   0  0  0  0  0  0  0  0  0  0  0  0
    1.8892  -10.3985   17.7511 N   0  0  0  0  0  0  0  0  0  0  0  0
    9.6210   -0.6952   24.0976 C   0  0  0  0  0  0  0  0  0  0  0  0
    7.0792   -9.0217   17.1429 C   0  0  0  0  0  0  0  0  0  0  0  0
    3.1713  -10.1816   17.6634 C   0  0  0  0  0  0  0  0  0  0  0  0
    2.7878   -8.3822   16.2137 C   0  0  0  0  0  0  0  0  0  0  0  0
    9.4601   -2.6590   25.6528 C   0  0  0  0  0  0  0  0  0  0  0  0
   10.1182   -1.5672   23.1165 C   0  0  0  0  0  0  0  0  0  0  0  0
    1.0552   -9.6360   17.0650 C   0  0  0  0  0  0  0  0  0  0  0  0
    3.6519   -9.1783   16.9039 C   0  0  0  0  0  0  0  0  0  0  0  0
    7.8675   -7.0096   15.9415 C   0  0  0  0  0  0  0  0  0  0  0  0
    5.9733   -9.6553   17.3832 N   0  0  0  0  0  0  0  0  0  0  0  0
   10.2411   -2.9363   23.4301 C   0  0  0  0  0  0  0  0  0  0  0  0
   10.7288   -3.8197   19.9525 C   0  0  0  0  0  0  0  0  0  0  0  0
   10.1189   -5.0054   19.6987 C   0  0  0  0  0  0  0  0  0  0  0  0
  1  3  4  0
  1  7  4  0
  2 21  4  0
  2 27  4  0
  3  9  4  0
  3 10  4  0
  4  8  4  0
  4 18  4  0
  4 25  1  0
  5  9  4  0
  5 12  4  0
  6 13  1  0
  6 27  1  0
  7 28  4  0
  8 11  4  0
  9 29  4  0
 10 12  4  0
 11 24  1  0
 11 26  4  0
 12 25  1  0
 13 28  1  0
 14 20  4  0
 14 23  4  0
 15 17  4  0
 15 21  4  0
 16 19  4  0
 16 23  4  0
 17 22  4  0
 18 26  4  0
 19 24  4  0
 20 24  4  0
 22 27  4  0
 28 29  4  0
M  END
$$$$

 Created by Python create_sdf_string function

 29 33  0  0  0  0  0  0  0  0999 V2000
   10.7215   -3.3326   17.6437 C   0  0  0  0  0  0  0  0  0  0  0  0
    9.9489   -3.4675   24.6487 N   0  0  0  0  0  0  0  0  0  0  0  0
   10.0172   -4.4740   17.4101 C   0  0  0  0  0  0  0  0  0  0  0  0
    6.9051   -7.9575   16.4222 C   0  0  0  0  0  0  0  0  0  0  0  0
    8.9969   -6.3552   17.9668 N   0  0  0  0  0  0  0  0  0  0  0  0
   10.6702   -3.9051   22.4070 C   0  0  0  0  0  0  0  0  0  0  0  0
   11.0625   -3.0028   18.8894 C   0  0  0  0  0  0  0  0  0  0  0  0
    5.6180   -7.9194   16.1754 O   0  0  0  0  0  0  0  0  0  0  0  0
    9.7259   -5.3080   18.4485 C   0  0  0  0  0  0  0  0  0  0  0  0
    9.4578   -5.0200   16.3036 N   0  0  0  0  0  0  0  0  0  0  0  0
    5.0287   -8.9365   16.8223 C   0  0  0  0  0  0  0  0  0  0  0  0
    8.7742   -6.1498   16.6764 C   0  0  0  0  0  0  0  0  0  0  0  0
   10.9418   -3.4032   21.2053 O   0  0  0  0  0  0  0  0  0  0  0  0
    1.4797   -8.6258   16.2950 C   0  0  0  0  0  0  0  0  0  0  0  0
    9.2861   -1.2743   25.3585 C   0  0  0  0  0  0  0  0  0  0  0  0
    1.8892  -10.3985   17.7511 N   0  0  0  0  0  0  0  0  0  0  0  0
    9.6210   -0.6952   24.0976 C   0  0  0  0  0  0  0  0  0  0  0  0
    7.0792   -9.0217   17.1429 C   0  0  0  0  0  0  0  0  0  0  0  0
    3.1713  -10.1816   17.6634 C   0  0  0  0  0  0  0  0  0  0  0  0
    2.7878   -8.3822   16.2137 C   0  0  0  0  0  0  0  0  0  0  0  0
    9.4601   -2.6590   25.6528 C   0  0  0  0  0  0  0  0  0  0  0  0
   10.1182   -1.5672   23.1165 C   0  0  0  0  0  0  0  0  0  0  0  0
    1.0552   -9.6360   17.0650 C   0  0  0  0  0  0  0  0  0  0  0  0
    3.6519   -9.1783   16.9039 C   0  0  0  0  0  0  0  0  0  0  0  0
    7.8675   -7.0096   15.9415 C   0  0  0  0  0  0  0  0  0  0  0  0
    5.9733   -9.6553   17.3832 N   0  0  0  0  0  0  0  0  0  0  0  0
   10.2411   -2.9363   23.4301 C   0  0  0  0  0  0  0  0  0  0  0  0
   10.7288   -3.8197   19.9525 C   0  0  0  0  0  0  0  0  0  0  0  0
   10.1189   -5.0054   19.6987 C   0  0  0  0  0  0  0  0  0  0  0  0
  1  3  4  0
  1  7  4  0
  2 21  4  0
  2 27  4  0
  3  9  4  0
  3 10  4  0
  4  8  4  0
  4 18  4  0
  4 25  1  0
  5  9  4  0
  5 12  4  0
  6 13  1  0
  6 27  1  0
  7 28  4  0
  8 11  4  0
  9 29  4  0
 10 12  4  0
 11 24  1  0
 11 26  4  0
 12 25  1  0
 13 28  1  0
 14 20  4  0
 14 23  4  0
 15 17  4  0
 15 21  4  0
 16 19  4  0
 16 23  4  0
 17 22  4  0
 18 26  4  0
 19 24  4  0
 20 24  4  0
 22 27  4  0
 28 29  4  0
M  END
$$$$

 Created by Python create_sdf_string function

 29 33  0  0  0  0  0  0  0  0999 V2000
   10.7215   -3.3326   17.6437 C   0  0  0  0  0  0  0  0  0  0  0  0
    9.9489   -3.4675   24.6487 N   0  0  0  0  0  0  0  0  0  0  0  0
   10.0172   -4.4740   17.4101 C   0  0  0  0  0  0  0  0  0  0  0  0
    6.9051   -7.9575   16.4222 C   0  0  0  0  0  0  0  0  0  0  0  0
    8.9969   -6.3552   17.9668 N   0  0  0  0  0  0  0  0  0  0  0  0
   10.6702   -3.9051   22.4070 C   0  0  0  0  0  0  0  0  0  0  0  0
   11.0625   -3.0028   18.8894 C   0  0  0  0  0  0  0  0  0  0  0  0
    5.6180   -7.9194   16.1754 O   0  0  0  0  0  0  0  0  0  0  0  0
    9.7259   -5.3080   18.4485 C   0  0  0  0  0  0  0  0  0  0  0  0
    9.4578   -5.0200   16.3036 N   0  0  0  0  0  0  0  0  0  0  0  0
    5.0287   -8.9365   16.8223 C   0  0  0  0  0  0  0  0  0  0  0  0
    8.7742   -6.1498   16.6764 C   0  0  0  0  0  0  0  0  0  0  0  0
   10.9418   -3.4032   21.2053 O   0  0  0  0  0  0  0  0  0  0  0  0
    1.4797   -8.6258   16.2950 C   0  0  0  0  0  0  0  0  0  0  0  0
    9.2861   -1.2743   25.3585 C   0  0  0  0  0  0  0  0  0  0  0  0
    1.8892  -10.3985   17.7511 N   0  0  0  0  0  0  0  0  0  0  0  0
    9.6210   -0.6952   24.0976 C   0  0  0  0  0  0  0  0  0  0  0  0
    7.0792   -9.0217   17.1429 C   0  0  0  0  0  0  0  0  0  0  0  0
    3.1713  -10.1816   17.6634 C   0  0  0  0  0  0  0  0  0  0  0  0
    2.7878   -8.3822   16.2137 C   0  0  0  0  0  0  0  0  0  0  0  0
    9.4601   -2.6590   25.6528 C   0  0  0  0  0  0  0  0  0  0  0  0
   10.1182   -1.5672   23.1165 C   0  0  0  0  0  0  0  0  0  0  0  0
    1.0552   -9.6360   17.0650 C   0  0  0  0  0  0  0  0  0  0  0  0
    3.6519   -9.1783   16.9039 C   0  0  0  0  0  0  0  0  0  0  0  0
    7.8675   -7.0096   15.9415 C   0  0  0  0  0  0  0  0  0  0  0  0
    5.9733   -9.6553   17.3832 N   0  0  0  0  0  0  0  0  0  0  0  0
   10.2411   -2.9363   23.4301 C   0  0  0  0  0  0  0  0  0  0  0  0
   10.7288   -3.8197   19.9525 C   0  0  0  0  0  0  0  0  0  0  0  0
   10.1189   -5.0054   19.6987 C   0  0  0  0  0  0  0  0  0  0  0  0
  1  3  4  0
  1  7  4  0
  2 21  4  0
  2 27  4  0
  3  9  4  0
  3 10  4  0
  4  8  4  0
  4 18  4  0
  4 25  1  0
  5  9  4  0
  5 12  4  0
  6 13  1  0
  6 27  1  0
  7 28  4  0
  8 11  4  0
  9 29  4  0
 10 12  4  0
 11 24  1  0
 11 26  4  0
 12 25  1  0
 13 28  1  0
 14 20  4  0
 14 23  4  0
 15 17  4  0
 15 21  4  0
 16 19  4  0
 16 23  4  0
 17 22  4  0
 18 26  4  0
 19 24  4  0
 20 24  4  0
 22 27  4  0
 28 29  4  0
M  END
$$$$

 Created by Python create_sdf_string function

 29 33  0  0  0  0  0  0  0  0999 V2000
   10.7215   -3.3326   17.6437 C   0  0  0  0  0  0  0  0  0  0  0  0
    9.9489   -3.4675   24.6487 N   0  0  0  0  0  0  0  0  0  0  0  0
   10.0172   -4.4740   17.4101 C   0  0  0  0  0  0  0  0  0  0  0  0
    6.9051   -7.9575   16.4222 C   0  0  0  0  0  0  0  0  0  0  0  0
    8.9969   -6.3552   17.9668 N   0  0  0  0  0  0  0  0  0  0  0  0
   10.6702   -3.9051   22.4070 C   0  0  0  0  0  0  0  0  0  0  0  0
   11.0625   -3.0028   18.8894 C   0  0  0  0  0  0  0  0  0  0  0  0
    5.6180   -7.9194   16.1754 O   0  0  0  0  0  0  0  0  0  0  0  0
    9.7259   -5.3080   18.4485 C   0  0  0  0  0  0  0  0  0  0  0  0
    9.4578   -5.0200   16.3036 N   0  0  0  0  0  0  0  0  0  0  0  0
    5.0287   -8.9365   16.8223 C   0  0  0  0  0  0  0  0  0  0  0  0
    8.7742   -6.1498   16.6764 C   0  0  0  0  0  0  0  0  0  0  0  0
   10.9418   -3.4032   21.2053 O   0  0  0  0  0  0  0  0  0  0  0  0
    1.4797   -8.6258   16.2950 C   0  0  0  0  0  0  0  0  0  0  0  0
    9.2861   -1.2743   25.3585 C   0  0  0  0  0  0  0  0  0  0  0  0
    1.8892  -10.3985   17.7511 N   0  0  0  0  0  0  0  0  0  0  0  0
    9.6210   -0.6952   24.0976 C   0  0  0  0  0  0  0  0  0  0  0  0
    7.0792   -9.0217   17.1429 C   0  0  0  0  0  0  0  0  0  0  0  0
    3.1713  -10.1816   17.6634 C   0  0  0  0  0  0  0  0  0  0  0  0
    2.7878   -8.3822   16.2137 C   0  0  0  0  0  0  0  0  0  0  0  0
    9.4601   -2.6590   25.6528 C   0  0  0  0  0  0  0  0  0  0  0  0
   10.1182   -1.5672   23.1165 C   0  0  0  0  0  0  0  0  0  0  0  0
    1.0552   -9.6360   17.0650 C   0  0  0  0  0  0  0  0  0  0  0  0
    3.6519   -9.1783   16.9039 C   0  0  0  0  0  0  0  0  0  0  0  0
    7.8675   -7.0096   15.9415 C   0  0  0  0  0  0  0  0  0  0  0  0
    5.9733   -9.6553   17.3832 N   0  0  0  0  0  0  0  0  0  0  0  0
   10.2411   -2.9363   23.4301 C   0  0  0  0  0  0  0  0  0  0  0  0
   10.7288   -3.8197   19.9525 C   0  0  0  0  0  0  0  0  0  0  0  0
   10.1189   -5.0054   19.6987 C   0  0  0  0  0  0  0  0  0  0  0  0
  1  3  4  0
  1  7  4  0
  2 21  4  0
  2 27  4  0
  3  9  4  0
  3 10  4  0
  4  8  4  0
  4 18  4  0
  4 25  1  0
  5  9  4  0
  5 12  4  0
  6 13  1  0
  6 27  1  0
  7 28  4  0
  8 11  4  0
  9 29  4  0
 10 12  4  0
 11 24  1  0
 11 26  4  0
 12 25  1  0
 13 28  1  0
 14 20  4  0
 14 23  4  0
 15 17  4  0
 15 21  4  0
 16 19  4  0
 16 23  4  0
 17 22  4  0
 18 26  4  0
 19 24  4  0
 20 24  4  0
 22 27  4  0
 28 29  4  0
M  END
$$$$

 Created by Python create_sdf_string function

 29 33  0  0  0  0  0  0  0  0999 V2000
   10.7215   -3.3326   17.6437 C   0  0  0  0  0  0  0  0  0  0  0  0
    9.9489   -3.4675   24.6487 N   0  0  0  0  0  0  0  0  0  0  0  0
   10.0172   -4.4740   17.4101 C   0  0  0  0  0  0  0  0  0  0  0  0
    6.9051   -7.9575   16.4222 C   0  0  0  0  0  0  0  0  0  0  0  0
    8.9969   -6.3552   17.9668 N   0  0  0  0  0  0  0  0  0  0  0  0
   10.6702   -3.9051   22.4070 C   0  0  0  0  0  0  0  0  0  0  0  0
   11.0625   -3.0028   18.8894 C   0  0  0  0  0  0  0  0  0  0  0  0
    5.6180   -7.9194   16.1754 O   0  0  0  0  0  0  0  0  0  0  0  0
    9.7259   -5.3080   18.4485 C   0  0  0  0  0  0  0  0  0  0  0  0
    9.4578   -5.0200   16.3036 N   0  0  0  0  0  0  0  0  0  0  0  0
    5.0287   -8.9365   16.8223 C   0  0  0  0  0  0  0  0  0  0  0  0
    8.7742   -6.1498   16.6764 C   0  0  0  0  0  0  0  0  0  0  0  0
   10.9418   -3.4032   21.2053 O   0  0  0  0  0  0  0  0  0  0  0  0
    1.4797   -8.6258   16.2950 C   0  0  0  0  0  0  0  0  0  0  0  0
    9.2861   -1.2743   25.3585 C   0  0  0  0  0  0  0  0  0  0  0  0
    1.8892  -10.3985   17.7511 N   0  0  0  0  0  0  0  0  0  0  0  0
    9.6210   -0.6952   24.0976 C   0  0  0  0  0  0  0  0  0  0  0  0
    7.0792   -9.0217   17.1429 C   0  0  0  0  0  0  0  0  0  0  0  0
    3.1713  -10.1816   17.6634 C   0  0  0  0  0  0  0  0  0  0  0  0
    2.7878   -8.3822   16.2137 C   0  0  0  0  0  0  0  0  0  0  0  0
    9.4601   -2.6590   25.6528 C   0  0  0  0  0  0  0  0  0  0  0  0
   10.1182   -1.5672   23.1165 C   0  0  0  0  0  0  0  0  0  0  0  0
    1.0552   -9.6360   17.0650 C   0  0  0  0  0  0  0  0  0  0  0  0
    3.6519   -9.1783   16.9039 C   0  0  0  0  0  0  0  0  0  0  0  0
    7.8675   -7.0096   15.9415 C   0  0  0  0  0  0  0  0  0  0  0  0
    5.9733   -9.6553   17.3832 N   0  0  0  0  0  0  0  0  0  0  0  0
   10.2411   -2.9363   23.4301 C   0  0  0  0  0  0  0  0  0  0  0  0
   10.7288   -3.8197   19.9525 C   0  0  0  0  0  0  0  0  0  0  0  0
   10.1189   -5.0054   19.6987 C   0  0  0  0  0  0  0  0  0  0  0  0
  1  3  4  0
  1  7  4  0
  2 21  4  0
  2 27  4  0
  3  9  4  0
  3 10  4  0
  4  8  4  0
  4 18  4  0
  4 25  1  0
  5  9  4  0
  5 12  4  0
  6 13  1  0
  6 27  1  0
  7 28  4  0
  8 11  4  0
  9 29  4  0
 10 12  4  0
 11 24  1  0
 11 26  4  0
 12 25  1  0
 13 28  1  0
 14 20  4  0
 14 23  4  0
 15 17  4  0
 15 21  4  0
 16 19  4  0
 16 23  4  0
 17 22  4  0
 18 26  4  0
 19 24  4  0
 20 24  4  0
 22 27  4  0
 28 29  4  0
M  END
$$$$

 Created by Python create_sdf_string function

 29 33  0  0  0  0  0  0  0  0999 V2000
   10.7215   -3.3326   17.6437 C   0  0  0  0  0  0  0  0  0  0  0  0
    9.9489   -3.4675   24.6487 N   0  0  0  0  0  0  0  0  0  0  0  0
   10.0172   -4.4740   17.4101 C   0  0  0  0  0  0  0  0  0  0  0  0
    6.9051   -7.9575   16.4222 C   0  0  0  0  0  0  0  0  0  0  0  0
    8.9969   -6.3552   17.9668 N   0  0  0  0  0  0  0  0  0  0  0  0
   10.6702   -3.9051   22.4070 C   0  0  0  0  0  0  0  0  0  0  0  0
   11.0625   -3.0028   18.8894 C   0  0  0  0  0  0  0  0  0  0  0  0
    5.6180   -7.9194   16.1754 O   0  0  0  0  0  0  0  0  0  0  0  0
    9.7259   -5.3080   18.4485 C   0  0  0  0  0  0  0  0  0  0  0  0
    9.4578   -5.0200   16.3036 N   0  0  0  0  0  0  0  0  0  0  0  0
    5.0287   -8.9365   16.8223 C   0  0  0  0  0  0  0  0  0  0  0  0
    8.7742   -6.1498   16.6764 C   0  0  0  0  0  0  0  0  0  0  0  0
   10.9418   -3.4032   21.2053 O   0  0  0  0  0  0  0  0  0  0  0  0
    1.4797   -8.6258   16.2950 C   0  0  0  0  0  0  0  0  0  0  0  0
    9.2861   -1.2743   25.3585 C   0  0  0  0  0  0  0  0  0  0  0  0
    1.8892  -10.3985   17.7511 N   0  0  0  0  0  0  0  0  0  0  0  0
    9.6210   -0.6952   24.0976 C   0  0  0  0  0  0  0  0  0  0  0  0
    7.0792   -9.0217   17.1429 C   0  0  0  0  0  0  0  0  0  0  0  0
    3.1713  -10.1816   17.6634 C   0  0  0  0  0  0  0  0  0  0  0  0
    2.7878   -8.3822   16.2137 C   0  0  0  0  0  0  0  0  0  0  0  0
    9.4601   -2.6590   25.6528 C   0  0  0  0  0  0  0  0  0  0  0  0
   10.1182   -1.5672   23.1165 C   0  0  0  0  0  0  0  0  0  0  0  0
    1.0552   -9.6360   17.0650 C   0  0  0  0  0  0  0  0  0  0  0  0
    3.6519   -9.1783   16.9039 C   0  0  0  0  0  0  0  0  0  0  0  0
    7.8675   -7.0096   15.9415 C   0  0  0  0  0  0  0  0  0  0  0  0
    5.9733   -9.6553   17.3832 N   0  0  0  0  0  0  0  0  0  0  0  0
   10.2411   -2.9363   23.4301 C   0  0  0  0  0  0  0  0  0  0  0  0
   10.7288   -3.8197   19.9525 C   0  0  0  0  0  0  0  0  0  0  0  0
   10.1189   -5.0054   19.6987 C   0  0  0  0  0  0  0  0  0  0  0  0
  1  3  4  0
  1  7  4  0
  2 21  4  0
  2 27  4  0
  3  9  4  0
  3 10  4  0
  4  8  4  0
  4 18  4  0
  4 25  1  0
  5  9  4  0
  5 12  4  0
  6 13  1  0
  6 27  1  0
  7 28  4  0
  8 11  4  0
  9 29  4  0
 10 12  4  0
 11 24  1  0
 11 26  4  0
 12 25  1  0
 13 28  1  0
 14 20  4  0
 14 23  4  0
 15 17  4  0
 15 21  4  0
 16 19  4  0
 16 23  4  0
 17 22  4  0
 18 26  4  0
 19 24  4  0
 20 24  4  0
 22 27  4  0
 28 29  4  0
M  END
$$$$

 Created by Python create_sdf_string function

 29 33  0  0  0  0  0  0  0  0999 V2000
   10.7215   -3.3326   17.6437 C   0  0  0  0  0  0  0  0  0  0  0  0
    9.9489   -3.4675   24.6487 N   0  0  0  0  0  0  0  0  0  0  0  0
   10.0172   -4.4740   17.4101 C   0  0  0  0  0  0  0  0  0  0  0  0
    6.9051   -7.9575   16.4222 C   0  0  0  0  0  0  0  0  0  0  0  0
    8.9969   -6.3552   17.9668 N   0  0  0  0  0  0  0  0  0  0  0  0
   10.6702   -3.9051   22.4070 C   0  0  0  0  0  0  0  0  0  0  0  0
   11.0625   -3.0028   18.8894 C   0  0  0  0  0  0  0  0  0  0  0  0
    5.6180   -7.9194   16.1754 O   0  0  0  0  0  0  0  0  0  0  0  0
    9.7259   -5.3080   18.4485 C   0  0  0  0  0  0  0  0  0  0  0  0
    9.4578   -5.0200   16.3036 N   0  0  0  0  0  0  0  0  0  0  0  0
    5.0287   -8.9365   16.8223 C   0  0  0  0  0  0  0  0  0  0  0  0
    8.7742   -6.1498   16.6764 C   0  0  0  0  0  0  0  0  0  0  0  0
   10.9418   -3.4032   21.2053 O   0  0  0  0  0  0  0  0  0  0  0  0
    1.4797   -8.6258   16.2950 C   0  0  0  0  0  0  0  0  0  0  0  0
    9.2861   -1.2743   25.3585 C   0  0  0  0  0  0  0  0  0  0  0  0
    1.8892  -10.3985   17.7511 N   0  0  0  0  0  0  0  0  0  0  0  0
    9.6210   -0.6952   24.0976 C   0  0  0  0  0  0  0  0  0  0  0  0
    7.0792   -9.0217   17.1429 C   0  0  0  0  0  0  0  0  0  0  0  0
    3.1713  -10.1816   17.6634 C   0  0  0  0  0  0  0  0  0  0  0  0
    2.7878   -8.3822   16.2137 C   0  0  0  0  0  0  0  0  0  0  0  0
    9.4601   -2.6590   25.6528 C   0  0  0  0  0  0  0  0  0  0  0  0
   10.1182   -1.5672   23.1165 C   0  0  0  0  0  0  0  0  0  0  0  0
    1.0552   -9.6360   17.0650 C   0  0  0  0  0  0  0  0  0  0  0  0
    3.6519   -9.1783   16.9039 C   0  0  0  0  0  0  0  0  0  0  0  0
    7.8675   -7.0096   15.9415 C   0  0  0  0  0  0  0  0  0  0  0  0
    5.9733   -9.6553   17.3832 N   0  0  0  0  0  0  0  0  0  0  0  0
   10.2411   -2.9363   23.4301 C   0  0  0  0  0  0  0  0  0  0  0  0
   10.7288   -3.8197   19.9525 C   0  0  0  0  0  0  0  0  0  0  0  0
   10.1189   -5.0054   19.6987 C   0  0  0  0  0  0  0  0  0  0  0  0
  1  3  4  0
  1  7  4  0
  2 21  4  0
  2 27  4  0
  3  9  4  0
  3 10  4  0
  4  8  4  0
  4 18  4  0
  4 25  1  0
  5  9  4  0
  5 12  4  0
  6 13  1  0
  6 27  1  0
  7 28  4  0
  8 11  4  0
  9 29  4  0
 10 12  4  0
 11 24  1  0
 11 26  4  0
 12 25  1  0
 13 28  1  0
 14 20  4  0
 14 23  4  0
 15 17  4  0
 15 21  4  0
 16 19  4  0
 16 23  4  0
 17 22  4  0
 18 26  4  0
 19 24  4  0
 20 24  4  0
 22 27  4  0
 28 29  4  0
M  END
$$$$

 Created by Python create_sdf_string function

 29 33  0  0  0  0  0  0  0  0999 V2000
   10.7215   -3.3326   17.6437 C   0  0  0  0  0  0  0  0  0  0  0  0
    9.9489   -3.4675   24.6487 N   0  0  0  0  0  0  0  0  0  0  0  0
   10.0172   -4.4740   17.4101 C   0  0  0  0  0  0  0  0  0  0  0  0
    6.9051   -7.9575   16.4222 C   0  0  0  0  0  0  0  0  0  0  0  0
    8.9969   -6.3552   17.9668 N   0  0  0  0  0  0  0  0  0  0  0  0
   10.6702   -3.9051   22.4070 C   0  0  0  0  0  0  0  0  0  0  0  0
   11.0625   -3.0028   18.8894 C   0  0  0  0  0  0  0  0  0  0  0  0
    5.6180   -7.9194   16.1754 O   0  0  0  0  0  0  0  0  0  0  0  0
    9.7259   -5.3080   18.4485 C   0  0  0  0  0  0  0  0  0  0  0  0
    9.4578   -5.0200   16.3036 N   0  0  0  0  0  0  0  0  0  0  0  0
    5.0287   -8.9365   16.8223 C   0  0  0  0  0  0  0  0  0  0  0  0
    8.7742   -6.1498   16.6764 C   0  0  0  0  0  0  0  0  0  0  0  0
   10.9418   -3.4032   21.2053 O   0  0  0  0  0  0  0  0  0  0  0  0
    1.4797   -8.6258   16.2950 C   0  0  0  0  0  0  0  0  0  0  0  0
    9.2861   -1.2743   25.3585 C   0  0  0  0  0  0  0  0  0  0  0  0
    1.8892  -10.3985   17.7511 N   0  0  0  0  0  0  0  0  0  0  0  0
    9.6210   -0.6952   24.0976 C   0  0  0  0  0  0  0  0  0  0  0  0
    7.0792   -9.0217   17.1429 C   0  0  0  0  0  0  0  0  0  0  0  0
    3.1713  -10.1816   17.6634 C   0  0  0  0  0  0  0  0  0  0  0  0
    2.7878   -8.3822   16.2137 C   0  0  0  0  0  0  0  0  0  0  0  0
    9.4601   -2.6590   25.6528 C   0  0  0  0  0  0  0  0  0  0  0  0
   10.1182   -1.5672   23.1165 C   0  0  0  0  0  0  0  0  0  0  0  0
    1.0552   -9.6360   17.0650 C   0  0  0  0  0  0  0  0  0  0  0  0
    3.6519   -9.1783   16.9039 C   0  0  0  0  0  0  0  0  0  0  0  0
    7.8675   -7.0096   15.9415 C   0  0  0  0  0  0  0  0  0  0  0  0
    5.9733   -9.6553   17.3832 N   0  0  0  0  0  0  0  0  0  0  0  0
   10.2411   -2.9363   23.4301 C   0  0  0  0  0  0  0  0  0  0  0  0
   10.7288   -3.8197   19.9525 C   0  0  0  0  0  0  0  0  0  0  0  0
   10.1189   -5.0054   19.6987 C   0  0  0  0  0  0  0  0  0  0  0  0
  1  3  4  0
  1  7  4  0
  2 21  4  0
  2 27  4  0
  3  9  4  0
  3 10  4  0
  4  8  4  0
  4 18  4  0
  4 25  1  0
  5  9  4  0
  5 12  4  0
  6 13  1  0
  6 27  1  0
  7 28  4  0
  8 11  4  0
  9 29  4  0
 10 12  4  0
 11 24  1  0
 11 26  4  0
 12 25  1  0
 13 28  1  0
 14 20  4  0
 14 23  4  0
 15 17  4  0
 15 21  4  0
 16 19  4  0
 16 23  4  0
 17 22  4  0
 18 26  4  0
 19 24  4  0
 20 24  4  0
 22 27  4  0
 28 29  4  0
M  END
$$$$

 Created by Python create_sdf_string function

 29 33  0  0  0  0  0  0  0  0999 V2000
   10.7215   -3.3326   17.6437 C   0  0  0  0  0  0  0  0  0  0  0  0
    9.9489   -3.4675   24.6487 N   0  0  0  0  0  0  0  0  0  0  0  0
   10.0172   -4.4740   17.4101 C   0  0  0  0  0  0  0  0  0  0  0  0
    6.9051   -7.9575   16.4222 C   0  0  0  0  0  0  0  0  0  0  0  0
    8.9969   -6.3552   17.9668 N   0  0  0  0  0  0  0  0  0  0  0  0
   10.6702   -3.9051   22.4070 C   0  0  0  0  0  0  0  0  0  0  0  0
   11.0625   -3.0028   18.8894 C   0  0  0  0  0  0  0  0  0  0  0  0
    5.6180   -7.9194   16.1754 O   0  0  0  0  0  0  0  0  0  0  0  0
    9.7259   -5.3080   18.4485 C   0  0  0  0  0  0  0  0  0  0  0  0
    9.4578   -5.0200   16.3036 N   0  0  0  0  0  0  0  0  0  0  0  0
    5.0287   -8.9365   16.8223 C   0  0  0  0  0  0  0  0  0  0  0  0
    8.7742   -6.1498   16.6764 C   0  0  0  0  0  0  0  0  0  0  0  0
   10.9418   -3.4032   21.2053 O   0  0  0  0  0  0  0  0  0  0  0  0
    1.4797   -8.6258   16.2950 C   0  0  0  0  0  0  0  0  0  0  0  0
    9.2861   -1.2743   25.3585 C   0  0  0  0  0  0  0  0  0  0  0  0
    1.8892  -10.3985   17.7511 N   0  0  0  0  0  0  0  0  0  0  0  0
    9.6210   -0.6952   24.0976 C   0  0  0  0  0  0  0  0  0  0  0  0
    7.0792   -9.0217   17.1429 C   0  0  0  0  0  0  0  0  0  0  0  0
    3.1713  -10.1816   17.6634 C   0  0  0  0  0  0  0  0  0  0  0  0
    2.7878   -8.3822   16.2137 C   0  0  0  0  0  0  0  0  0  0  0  0
    9.4601   -2.6590   25.6528 C   0  0  0  0  0  0  0  0  0  0  0  0
   10.1182   -1.5672   23.1165 C   0  0  0  0  0  0  0  0  0  0  0  0
    1.0552   -9.6360   17.0650 C   0  0  0  0  0  0  0  0  0  0  0  0
    3.6519   -9.1783   16.9039 C   0  0  0  0  0  0  0  0  0  0  0  0
    7.8675   -7.0096   15.9415 C   0  0  0  0  0  0  0  0  0  0  0  0
    5.9733   -9.6553   17.3832 N   0  0  0  0  0  0  0  0  0  0  0  0
   10.2411   -2.9363   23.4301 C   0  0  0  0  0  0  0  0  0  0  0  0
   10.7288   -3.8197   19.9525 C   0  0  0  0  0  0  0  0  0  0  0  0
   10.1189   -5.0054   19.6987 C   0  0  0  0  0  0  0  0  0  0  0  0
  1  3  4  0
  1  7  4  0
  2 21  4  0
  2 27  4  0
  3  9  4  0
  3 10  4  0
  4  8  4  0
  4 18  4  0
  4 25  1  0
  5  9  4  0
  5 12  4  0
  6 13  1  0
  6 27  1  0
  7 28  4  0
  8 11  4  0
  9 29  4  0
 10 12  4  0
 11 24  1  0
 11 26  4  0
 12 25  1  0
 13 28  1  0
 14 20  4  0
 14 23  4  0
 15 17  4  0
 15 21  4  0
 16 19  4  0
 16 23  4  0
 17 22  4  0
 18 26  4  0
 19 24  4  0
 20 24  4  0
 22 27  4  0
 28 29  4  0
M  END
$$$$

 Created by Python create_sdf_string function

 29 33  0  0  0  0  0  0  0  0999 V2000
   10.7215   -3.3326   17.6437 C   0  0  0  0  0  0  0  0  0  0  0  0
    9.9489   -3.4675   24.6487 N   0  0  0  0  0  0  0  0  0  0  0  0
   10.0172   -4.4740   17.4101 C   0  0  0  0  0  0  0  0  0  0  0  0
    6.9051   -7.9575   16.4222 C   0  0  0  0  0  0  0  0  0  0  0  0
    8.9969   -6.3552   17.9668 N   0  0  0  0  0  0  0  0  0  0  0  0
   10.6702   -3.9051   22.4070 C   0  0  0  0  0  0  0  0  0  0  0  0
   11.0625   -3.0028   18.8894 C   0  0  0  0  0  0  0  0  0  0  0  0
    5.6180   -7.9194   16.1754 O   0  0  0  0  0  0  0  0  0  0  0  0
    9.7259   -5.3080   18.4485 C   0  0  0  0  0  0  0  0  0  0  0  0
    9.4578   -5.0200   16.3036 N   0  0  0  0  0  0  0  0  0  0  0  0
    5.0287   -8.9365   16.8223 C   0  0  0  0  0  0  0  0  0  0  0  0
    8.7742   -6.1498   16.6764 C   0  0  0  0  0  0  0  0  0  0  0  0
   10.9418   -3.4032   21.2053 O   0  0  0  0  0  0  0  0  0  0  0  0
    1.4797   -8.6258   16.2950 C   0  0  0  0  0  0  0  0  0  0  0  0
    9.2861   -1.2743   25.3585 C   0  0  0  0  0  0  0  0  0  0  0  0
    1.8892  -10.3985   17.7511 N   0  0  0  0  0  0  0  0  0  0  0  0
    9.6210   -0.6952   24.0976 C   0  0  0  0  0  0  0  0  0  0  0  0
    7.0792   -9.0217   17.1429 C   0  0  0  0  0  0  0  0  0  0  0  0
    3.1713  -10.1816   17.6634 C   0  0  0  0  0  0  0  0  0  0  0  0
    2.7878   -8.3822   16.2137 C   0  0  0  0  0  0  0  0  0  0  0  0
    9.4601   -2.6590   25.6528 C   0  0  0  0  0  0  0  0  0  0  0  0
   10.1182   -1.5672   23.1165 C   0  0  0  0  0  0  0  0  0  0  0  0
    1.0552   -9.6360   17.0650 C   0  0  0  0  0  0  0  0  0  0  0  0
    3.6519   -9.1783   16.9039 C   0  0  0  0  0  0  0  0  0  0  0  0
    7.8675   -7.0096   15.9415 C   0  0  0  0  0  0  0  0  0  0  0  0
    5.9733   -9.6553   17.3832 N   0  0  0  0  0  0  0  0  0  0  0  0
   10.2411   -2.9363   23.4301 C   0  0  0  0  0  0  0  0  0  0  0  0
   10.7288   -3.8197   19.9525 C   0  0  0  0  0  0  0  0  0  0  0  0
   10.1189   -5.0054   19.6987 C   0  0  0  0  0  0  0  0  0  0  0  0
  1  3  4  0
  1  7  4  0
  2 21  4  0
  2 27  4  0
  3  9  4  0
  3 10  4  0
  4  8  4  0
  4 18  4  0
  4 25  1  0
  5  9  4  0
  5 12  4  0
  6 13  1  0
  6 27  1  0
  7 28  4  0
  8 11  4  0
  9 29  4  0
 10 12  4  0
 11 24  1  0
 11 26  4  0
 12 25  1  0
 13 28  1  0
 14 20  4  0
 14 23  4  0
 15 17  4  0
 15 21  4  0
 16 19  4  0
 16 23  4  0
 17 22  4  0
 18 26  4  0
 19 24  4  0
 20 24  4  0
 22 27  4  0
 28 29  4  0
M  END
$$$$

 Created by Python create_sdf_string function

 29 33  0  0  0  0  0  0  0  0999 V2000
   10.7215   -3.3326   17.6437 C   0  0  0  0  0  0  0  0  0  0  0  0
    9.9489   -3.4675   24.6487 N   0  0  0  0  0  0  0  0  0  0  0  0
   10.0172   -4.4740   17.4101 C   0  0  0  0  0  0  0  0  0  0  0  0
    6.9051   -7.9575   16.4222 C   0  0  0  0  0  0  0  0  0  0  0  0
    8.9969   -6.3552   17.9668 N   0  0  0  0  0  0  0  0  0  0  0  0
   10.6702   -3.9051   22.4070 C   0  0  0  0  0  0  0  0  0  0  0  0
   11.0625   -3.0028   18.8894 C   0  0  0  0  0  0  0  0  0  0  0  0
    5.6180   -7.9194   16.1754 O   0  0  0  0  0  0  0  0  0  0  0  0
    9.7259   -5.3080   18.4485 C   0  0  0  0  0  0  0  0  0  0  0  0
    9.4578   -5.0200   16.3036 N   0  0  0  0  0  0  0  0  0  0  0  0
    5.0287   -8.9365   16.8223 C   0  0  0  0  0  0  0  0  0  0  0  0
    8.7742   -6.1498   16.6764 C   0  0  0  0  0  0  0  0  0  0  0  0
   10.9418   -3.4032   21.2053 O   0  0  0  0  0  0  0  0  0  0  0  0
    1.4797   -8.6258   16.2950 C   0  0  0  0  0  0  0  0  0  0  0  0
    9.2861   -1.2743   25.3585 C   0  0  0  0  0  0  0  0  0  0  0  0
    1.8892  -10.3985   17.7511 N   0  0  0  0  0  0  0  0  0  0  0  0
    9.6210   -0.6952   24.0976 C   0  0  0  0  0  0  0  0  0  0  0  0
    7.0792   -9.0217   17.1429 C   0  0  0  0  0  0  0  0  0  0  0  0
    3.1713  -10.1816   17.6634 C   0  0  0  0  0  0  0  0  0  0  0  0
    2.7878   -8.3822   16.2137 C   0  0  0  0  0  0  0  0  0  0  0  0
    9.4601   -2.6590   25.6528 C   0  0  0  0  0  0  0  0  0  0  0  0
   10.1182   -1.5672   23.1165 C   0  0  0  0  0  0  0  0  0  0  0  0
    1.0552   -9.6360   17.0650 C   0  0  0  0  0  0  0  0  0  0  0  0
    3.6519   -9.1783   16.9039 C   0  0  0  0  0  0  0  0  0  0  0  0
    7.8675   -7.0096   15.9415 C   0  0  0  0  0  0  0  0  0  0  0  0
    5.9733   -9.6553   17.3832 N   0  0  0  0  0  0  0  0  0  0  0  0
   10.2411   -2.9363   23.4301 C   0  0  0  0  0  0  0  0  0  0  0  0
   10.7288   -3.8197   19.9525 C   0  0  0  0  0  0  0  0  0  0  0  0
   10.1189   -5.0054   19.6987 C   0  0  0  0  0  0  0  0  0  0  0  0
  1  3  4  0
  1  7  4  0
  2 21  4  0
  2 27  4  0
  3  9  4  0
  3 10  4  0
  4  8  4  0
  4 18  4  0
  4 25  1  0
  5  9  4  0
  5 12  4  0
  6 13  1  0
  6 27  1  0
  7 28  4  0
  8 11  4  0
  9 29  4  0
 10 12  4  0
 11 24  1  0
 11 26  4  0
 12 25  1  0
 13 28  1  0
 14 20  4  0
 14 23  4  0
 15 17  4  0
 15 21  4  0
 16 19  4  0
 16 23  4  0
 17 22  4  0
 18 26  4  0
 19 24  4  0
 20 24  4  0
 22 27  4  0
 28 29  4  0
M  END
$$$$

 Created by Python create_sdf_string function

 29 33  0  0  0  0  0  0  0  0999 V2000
   10.7215   -3.3326   17.6437 C   0  0  0  0  0  0  0  0  0  0  0  0
    9.9489   -3.4675   24.6487 N   0  0  0  0  0  0  0  0  0  0  0  0
   10.0172   -4.4740   17.4101 C   0  0  0  0  0  0  0  0  0  0  0  0
    6.9051   -7.9575   16.4222 C   0  0  0  0  0  0  0  0  0  0  0  0
    8.9969   -6.3552   17.9668 N   0  0  0  0  0  0  0  0  0  0  0  0
   10.6702   -3.9051   22.4070 C   0  0  0  0  0  0  0  0  0  0  0  0
   11.0625   -3.0028   18.8894 C   0  0  0  0  0  0  0  0  0  0  0  0
    5.6180   -7.9194   16.1754 O   0  0  0  0  0  0  0  0  0  0  0  0
    9.7259   -5.3080   18.4485 C   0  0  0  0  0  0  0  0  0  0  0  0
    9.4578   -5.0200   16.3036 N   0  0  0  0  0  0  0  0  0  0  0  0
    5.0287   -8.9365   16.8223 C   0  0  0  0  0  0  0  0  0  0  0  0
    8.7742   -6.1498   16.6764 C   0  0  0  0  0  0  0  0  0  0  0  0
   10.9418   -3.4032   21.2053 O   0  0  0  0  0  0  0  0  0  0  0  0
    1.4797   -8.6258   16.2950 C   0  0  0  0  0  0  0  0  0  0  0  0
    9.2861   -1.2743   25.3585 C   0  0  0  0  0  0  0  0  0  0  0  0
    1.8892  -10.3985   17.7511 N   0  0  0  0  0  0  0  0  0  0  0  0
    9.6210   -0.6952   24.0976 C   0  0  0  0  0  0  0  0  0  0  0  0
    7.0792   -9.0217   17.1429 C   0  0  0  0  0  0  0  0  0  0  0  0
    3.1713  -10.1816   17.6634 C   0  0  0  0  0  0  0  0  0  0  0  0
    2.7878   -8.3822   16.2137 C   0  0  0  0  0  0  0  0  0  0  0  0
    9.4601   -2.6590   25.6528 C   0  0  0  0  0  0  0  0  0  0  0  0
   10.1182   -1.5672   23.1165 C   0  0  0  0  0  0  0  0  0  0  0  0
    1.0552   -9.6360   17.0650 C   0  0  0  0  0  0  0  0  0  0  0  0
    3.6519   -9.1783   16.9039 C   0  0  0  0  0  0  0  0  0  0  0  0
    7.8675   -7.0096   15.9415 C   0  0  0  0  0  0  0  0  0  0  0  0
    5.9733   -9.6553   17.3832 N   0  0  0  0  0  0  0  0  0  0  0  0
   10.2411   -2.9363   23.4301 C   0  0  0  0  0  0  0  0  0  0  0  0
   10.7288   -3.8197   19.9525 C   0  0  0  0  0  0  0  0  0  0  0  0
   10.1189   -5.0054   19.6987 C   0  0  0  0  0  0  0  0  0  0  0  0
  1  3  4  0
  1  7  4  0
  2 21  4  0
  2 27  4  0
  3  9  4  0
  3 10  4  0
  4  8  4  0
  4 18  4  0
  4 25  1  0
  5  9  4  0
  5 12  4  0
  6 13  1  0
  6 27  1  0
  7 28  4  0
  8 11  4  0
  9 29  4  0
 10 12  4  0
 11 24  1  0
 11 26  4  0
 12 25  1  0
 13 28  1  0
 14 20  4  0
 14 23  4  0
 15 17  4  0
 15 21  4  0
 16 19  4  0
 16 23  4  0
 17 22  4  0
 18 26  4  0
 19 24  4  0
 20 24  4  0
 22 27  4  0
 28 29  4  0
M  END
$$$$

 Created by Python create_sdf_string function

 29 33  0  0  0  0  0  0  0  0999 V2000
   10.7215   -3.3326   17.6437 C   0  0  0  0  0  0  0  0  0  0  0  0
    9.9489   -3.4675   24.6487 N   0  0  0  0  0  0  0  0  0  0  0  0
   10.0172   -4.4740   17.4101 C   0  0  0  0  0  0  0  0  0  0  0  0
    6.9051   -7.9575   16.4222 C   0  0  0  0  0  0  0  0  0  0  0  0
    8.9969   -6.3552   17.9668 N   0  0  0  0  0  0  0  0  0  0  0  0
   10.6702   -3.9051   22.4070 C   0  0  0  0  0  0  0  0  0  0  0  0
   11.0625   -3.0028   18.8894 C   0  0  0  0  0  0  0  0  0  0  0  0
    5.6180   -7.9194   16.1754 O   0  0  0  0  0  0  0  0  0  0  0  0
    9.7259   -5.3080   18.4485 C   0  0  0  0  0  0  0  0  0  0  0  0
    9.4578   -5.0200   16.3036 N   0  0  0  0  0  0  0  0  0  0  0  0
    5.0287   -8.9365   16.8223 C   0  0  0  0  0  0  0  0  0  0  0  0
    8.7742   -6.1498   16.6764 C   0  0  0  0  0  0  0  0  0  0  0  0
   10.9418   -3.4032   21.2053 O   0  0  0  0  0  0  0  0  0  0  0  0
    1.4797   -8.6258   16.2950 C   0  0  0  0  0  0  0  0  0  0  0  0
    9.2861   -1.2743   25.3585 C   0  0  0  0  0  0  0  0  0  0  0  0
    1.8892  -10.3985   17.7511 N   0  0  0  0  0  0  0  0  0  0  0  0
    9.6210   -0.6952   24.0976 C   0  0  0  0  0  0  0  0  0  0  0  0
    7.0792   -9.0217   17.1429 C   0  0  0  0  0  0  0  0  0  0  0  0
    3.1713  -10.1816   17.6634 C   0  0  0  0  0  0  0  0  0  0  0  0
    2.7878   -8.3822   16.2137 C   0  0  0  0  0  0  0  0  0  0  0  0
    9.4601   -2.6590   25.6528 C   0  0  0  0  0  0  0  0  0  0  0  0
   10.1182   -1.5672   23.1165 C   0  0  0  0  0  0  0  0  0  0  0  0
    1.0552   -9.6360   17.0650 C   0  0  0  0  0  0  0  0  0  0  0  0
    3.6519   -9.1783   16.9039 C   0  0  0  0  0  0  0  0  0  0  0  0
    7.8675   -7.0096   15.9415 C   0  0  0  0  0  0  0  0  0  0  0  0
    5.9733   -9.6553   17.3832 N   0  0  0  0  0  0  0  0  0  0  0  0
   10.2411   -2.9363   23.4301 C   0  0  0  0  0  0  0  0  0  0  0  0
   10.7288   -3.8197   19.9525 C   0  0  0  0  0  0  0  0  0  0  0  0
   10.1189   -5.0054   19.6987 C   0  0  0  0  0  0  0  0  0  0  0  0
  1  3  4  0
  1  7  4  0
  2 21  4  0
  2 27  4  0
  3  9  4  0
  3 10  4  0
  4  8  4  0
  4 18  4  0
  4 25  1  0
  5  9  4  0
  5 12  4  0
  6 13  1  0
  6 27  1  0
  7 28  4  0
  8 11  4  0
  9 29  4  0
 10 12  4  0
 11 24  1  0
 11 26  4  0
 12 25  1  0
 13 28  1  0
 14 20  4  0
 14 23  4  0
 15 17  4  0
 15 21  4  0
 16 19  4  0
 16 23  4  0
 17 22  4  0
 18 26  4  0
 19 24  4  0
 20 24  4  0
 22 27  4  0
 28 29  4  0
M  END
$$$$

 Created by Python create_sdf_string function

 29 33  0  0  0  0  0  0  0  0999 V2000
   10.7215   -3.3326   17.6437 C   0  0  0  0  0  0  0  0  0  0  0  0
    9.9489   -3.4675   24.6487 N   0  0  0  0  0  0  0  0  0  0  0  0
   10.0172   -4.4740   17.4101 C   0  0  0  0  0  0  0  0  0  0  0  0
    6.9051   -7.9575   16.4222 C   0  0  0  0  0  0  0  0  0  0  0  0
    8.9969   -6.3552   17.9668 N   0  0  0  0  0  0  0  0  0  0  0  0
   10.6702   -3.9051   22.4070 C   0  0  0  0  0  0  0  0  0  0  0  0
   11.0625   -3.0028   18.8894 C   0  0  0  0  0  0  0  0  0  0  0  0
    5.6180   -7.9194   16.1754 O   0  0  0  0  0  0  0  0  0  0  0  0
    9.7259   -5.3080   18.4485 C   0  0  0  0  0  0  0  0  0  0  0  0
    9.4578   -5.0200   16.3036 N   0  0  0  0  0  0  0  0  0  0  0  0
    5.0287   -8.9365   16.8223 C   0  0  0  0  0  0  0  0  0  0  0  0
    8.7742   -6.1498   16.6764 C   0  0  0  0  0  0  0  0  0  0  0  0
   10.9418   -3.4032   21.2053 O   0  0  0  0  0  0  0  0  0  0  0  0
    1.4797   -8.6258   16.2950 C   0  0  0  0  0  0  0  0  0  0  0  0
    9.2861   -1.2743   25.3585 C   0  0  0  0  0  0  0  0  0  0  0  0
    1.8892  -10.3985   17.7511 N   0  0  0  0  0  0  0  0  0  0  0  0
    9.6210   -0.6952   24.0976 C   0  0  0  0  0  0  0  0  0  0  0  0
    7.0792   -9.0217   17.1429 C   0  0  0  0  0  0  0  0  0  0  0  0
    3.1713  -10.1816   17.6634 C   0  0  0  0  0  0  0  0  0  0  0  0
    2.7878   -8.3822   16.2137 C   0  0  0  0  0  0  0  0  0  0  0  0
    9.4601   -2.6590   25.6528 C   0  0  0  0  0  0  0  0  0  0  0  0
   10.1182   -1.5672   23.1165 C   0  0  0  0  0  0  0  0  0  0  0  0
    1.0552   -9.6360   17.0650 C   0  0  0  0  0  0  0  0  0  0  0  0
    3.6519   -9.1783   16.9039 C   0  0  0  0  0  0  0  0  0  0  0  0
    7.8675   -7.0096   15.9415 C   0  0  0  0  0  0  0  0  0  0  0  0
    5.9733   -9.6553   17.3832 N   0  0  0  0  0  0  0  0  0  0  0  0
   10.2411   -2.9363   23.4301 C   0  0  0  0  0  0  0  0  0  0  0  0
   10.7288   -3.8197   19.9525 C   0  0  0  0  0  0  0  0  0  0  0  0
   10.1189   -5.0054   19.6987 C   0  0  0  0  0  0  0  0  0  0  0  0
  1  3  4  0
  1  7  4  0
  2 21  4  0
  2 27  4  0
  3  9  4  0
  3 10  4  0
  4  8  4  0
  4 18  4  0
  4 25  1  0
  5  9  4  0
  5 12  4  0
  6 13  1  0
  6 27  1  0
  7 28  4  0
  8 11  4  0
  9 29  4  0
 10 12  4  0
 11 24  1  0
 11 26  4  0
 12 25  1  0
 13 28  1  0
 14 20  4  0
 14 23  4  0
 15 17  4  0
 15 21  4  0
 16 19  4  0
 16 23  4  0
 17 22  4  0
 18 26  4  0
 19 24  4  0
 20 24  4  0
 22 27  4  0
 28 29  4  0
M  END
$$$$

 Created by Python create_sdf_string function

 29 33  0  0  0  0  0  0  0  0999 V2000
   10.7215   -3.3326   17.6437 C   0  0  0  0  0  0  0  0  0  0  0  0
    9.9489   -3.4675   24.6487 N   0  0  0  0  0  0  0  0  0  0  0  0
   10.0172   -4.4740   17.4101 C   0  0  0  0  0  0  0  0  0  0  0  0
    6.9051   -7.9575   16.4222 C   0  0  0  0  0  0  0  0  0  0  0  0
    8.9969   -6.3552   17.9668 N   0  0  0  0  0  0  0  0  0  0  0  0
   10.6702   -3.9051   22.4070 C   0  0  0  0  0  0  0  0  0  0  0  0
   11.0625   -3.0028   18.8894 C   0  0  0  0  0  0  0  0  0  0  0  0
    5.6180   -7.9194   16.1754 O   0  0  0  0  0  0  0  0  0  0  0  0
    9.7259   -5.3080   18.4485 C   0  0  0  0  0  0  0  0  0  0  0  0
    9.4578   -5.0200   16.3036 N   0  0  0  0  0  0  0  0  0  0  0  0
    5.0287   -8.9365   16.8223 C   0  0  0  0  0  0  0  0  0  0  0  0
    8.7742   -6.1498   16.6764 C   0  0  0  0  0  0  0  0  0  0  0  0
   10.9418   -3.4032   21.2053 O   0  0  0  0  0  0  0  0  0  0  0  0
    1.4797   -8.6258   16.2950 C   0  0  0  0  0  0  0  0  0  0  0  0
    9.2861   -1.2743   25.3585 C   0  0  0  0  0  0  0  0  0  0  0  0
    1.8892  -10.3985   17.7511 N   0  0  0  0  0  0  0  0  0  0  0  0
    9.6210   -0.6952   24.0976 C   0  0  0  0  0  0  0  0  0  0  0  0
    7.0792   -9.0217   17.1429 C   0  0  0  0  0  0  0  0  0  0  0  0
    3.1713  -10.1816   17.6634 C   0  0  0  0  0  0  0  0  0  0  0  0
    2.7878   -8.3822   16.2137 C   0  0  0  0  0  0  0  0  0  0  0  0
    9.4601   -2.6590   25.6528 C   0  0  0  0  0  0  0  0  0  0  0  0
   10.1182   -1.5672   23.1165 C   0  0  0  0  0  0  0  0  0  0  0  0
    1.0552   -9.6360   17.0650 C   0  0  0  0  0  0  0  0  0  0  0  0
    3.6519   -9.1783   16.9039 C   0  0  0  0  0  0  0  0  0  0  0  0
    7.8675   -7.0096   15.9415 C   0  0  0  0  0  0  0  0  0  0  0  0
    5.9733   -9.6553   17.3832 N   0  0  0  0  0  0  0  0  0  0  0  0
   10.2411   -2.9363   23.4301 C   0  0  0  0  0  0  0  0  0  0  0  0
   10.7288   -3.8197   19.9525 C   0  0  0  0  0  0  0  0  0  0  0  0
   10.1189   -5.0054   19.6987 C   0  0  0  0  0  0  0  0  0  0  0  0
  1  3  4  0
  1  7  4  0
  2 21  4  0
  2 27  4  0
  3  9  4  0
  3 10  4  0
  4  8  4  0
  4 18  4  0
  4 25  1  0
  5  9  4  0
  5 12  4  0
  6 13  1  0
  6 27  1  0
  7 28  4  0
  8 11  4  0
  9 29  4  0
 10 12  4  0
 11 24  1  0
 11 26  4  0
 12 25  1  0
 13 28  1  0
 14 20  4  0
 14 23  4  0
 15 17  4  0
 15 21  4  0
 16 19  4  0
 16 23  4  0
 17 22  4  0
 18 26  4  0
 19 24  4  0
 20 24  4  0
 22 27  4  0
 28 29  4  0
M  END
$$$$

 Created by Python create_sdf_string function

 29 33  0  0  0  0  0  0  0  0999 V2000
   10.7215   -3.3326   17.6437 C   0  0  0  0  0  0  0  0  0  0  0  0
    9.9489   -3.4675   24.6487 N   0  0  0  0  0  0  0  0  0  0  0  0
   10.0172   -4.4740   17.4101 C   0  0  0  0  0  0  0  0  0  0  0  0
    6.9051   -7.9575   16.4222 C   0  0  0  0  0  0  0  0  0  0  0  0
    8.9969   -6.3552   17.9668 N   0  0  0  0  0  0  0  0  0  0  0  0
   10.6702   -3.9051   22.4070 C   0  0  0  0  0  0  0  0  0  0  0  0
   11.0625   -3.0028   18.8894 C   0  0  0  0  0  0  0  0  0  0  0  0
    5.6180   -7.9194   16.1754 O   0  0  0  0  0  0  0  0  0  0  0  0
    9.7259   -5.3080   18.4485 C   0  0  0  0  0  0  0  0  0  0  0  0
    9.4578   -5.0200   16.3036 N   0  0  0  0  0  0  0  0  0  0  0  0
    5.0287   -8.9365   16.8223 C   0  0  0  0  0  0  0  0  0  0  0  0
    8.7742   -6.1498   16.6764 C   0  0  0  0  0  0  0  0  0  0  0  0
   10.9418   -3.4032   21.2053 O   0  0  0  0  0  0  0  0  0  0  0  0
    1.4797   -8.6258   16.2950 C   0  0  0  0  0  0  0  0  0  0  0  0
    9.2861   -1.2743   25.3585 C   0  0  0  0  0  0  0  0  0  0  0  0
    1.8892  -10.3985   17.7511 N   0  0  0  0  0  0  0  0  0  0  0  0
    9.6210   -0.6952   24.0976 C   0  0  0  0  0  0  0  0  0  0  0  0
    7.0792   -9.0217   17.1429 C   0  0  0  0  0  0  0  0  0  0  0  0
    3.1713  -10.1816   17.6634 C   0  0  0  0  0  0  0  0  0  0  0  0
    2.7878   -8.3822   16.2137 C   0  0  0  0  0  0  0  0  0  0  0  0
    9.4601   -2.6590   25.6528 C   0  0  0  0  0  0  0  0  0  0  0  0
   10.1182   -1.5672   23.1165 C   0  0  0  0  0  0  0  0  0  0  0  0
    1.0552   -9.6360   17.0650 C   0  0  0  0  0  0  0  0  0  0  0  0
    3.6519   -9.1783   16.9039 C   0  0  0  0  0  0  0  0  0  0  0  0
    7.8675   -7.0096   15.9415 C   0  0  0  0  0  0  0  0  0  0  0  0
    5.9733   -9.6553   17.3832 N   0  0  0  0  0  0  0  0  0  0  0  0
   10.2411   -2.9363   23.4301 C   0  0  0  0  0  0  0  0  0  0  0  0
   10.7288   -3.8197   19.9525 C   0  0  0  0  0  0  0  0  0  0  0  0
   10.1189   -5.0054   19.6987 C   0  0  0  0  0  0  0  0  0  0  0  0
  1  3  4  0
  1  7  4  0
  2 21  4  0
  2 27  4  0
  3  9  4  0
  3 10  4  0
  4  8  4  0
  4 18  4  0
  4 25  1  0
  5  9  4  0
  5 12  4  0
  6 13  1  0
  6 27  1  0
  7 28  4  0
  8 11  4  0
  9 29  4  0
 10 12  4  0
 11 24  1  0
 11 26  4  0
 12 25  1  0
 13 28  1  0
 14 20  4  0
 14 23  4  0
 15 17  4  0
 15 21  4  0
 16 19  4  0
 16 23  4  0
 17 22  4  0
 18 26  4  0
 19 24  4  0
 20 24  4  0
 22 27  4  0
 28 29  4  0
M  END
$$$$

 Created by Python create_sdf_string function

 29 33  0  0  0  0  0  0  0  0999 V2000
   10.7215   -3.3326   17.6437 C   0  0  0  0  0  0  0  0  0  0  0  0
    9.9489   -3.4675   24.6487 N   0  0  0  0  0  0  0  0  0  0  0  0
   10.0172   -4.4740   17.4101 C   0  0  0  0  0  0  0  0  0  0  0  0
    6.9051   -7.9575   16.4222 C   0  0  0  0  0  0  0  0  0  0  0  0
    8.9969   -6.3552   17.9668 N   0  0  0  0  0  0  0  0  0  0  0  0
   10.6702   -3.9051   22.4070 C   0  0  0  0  0  0  0  0  0  0  0  0
   11.0625   -3.0028   18.8894 C   0  0  0  0  0  0  0  0  0  0  0  0
    5.6180   -7.9194   16.1754 O   0  0  0  0  0  0  0  0  0  0  0  0
    9.7259   -5.3080   18.4485 C   0  0  0  0  0  0  0  0  0  0  0  0
    9.4578   -5.0200   16.3036 N   0  0  0  0  0  0  0  0  0  0  0  0
    5.0287   -8.9365   16.8223 C   0  0  0  0  0  0  0  0  0  0  0  0
    8.7742   -6.1498   16.6764 C   0  0  0  0  0  0  0  0  0  0  0  0
   10.9418   -3.4032   21.2053 O   0  0  0  0  0  0  0  0  0  0  0  0
    1.4797   -8.6258   16.2950 C   0  0  0  0  0  0  0  0  0  0  0  0
    9.2861   -1.2743   25.3585 C   0  0  0  0  0  0  0  0  0  0  0  0
    1.8892  -10.3985   17.7511 N   0  0  0  0  0  0  0  0  0  0  0  0
    9.6210   -0.6952   24.0976 C   0  0  0  0  0  0  0  0  0  0  0  0
    7.0792   -9.0217   17.1429 C   0  0  0  0  0  0  0  0  0  0  0  0
    3.1713  -10.1816   17.6634 C   0  0  0  0  0  0  0  0  0  0  0  0
    2.7878   -8.3822   16.2137 C   0  0  0  0  0  0  0  0  0  0  0  0
    9.4601   -2.6590   25.6528 C   0  0  0  0  0  0  0  0  0  0  0  0
   10.1182   -1.5672   23.1165 C   0  0  0  0  0  0  0  0  0  0  0  0
    1.0552   -9.6360   17.0650 C   0  0  0  0  0  0  0  0  0  0  0  0
    3.6519   -9.1783   16.9039 C   0  0  0  0  0  0  0  0  0  0  0  0
    7.8675   -7.0096   15.9415 C   0  0  0  0  0  0  0  0  0  0  0  0
    5.9733   -9.6553   17.3832 N   0  0  0  0  0  0  0  0  0  0  0  0
   10.2411   -2.9363   23.4301 C   0  0  0  0  0  0  0  0  0  0  0  0
   10.7288   -3.8197   19.9525 C   0  0  0  0  0  0  0  0  0  0  0  0
   10.1189   -5.0054   19.6987 C   0  0  0  0  0  0  0  0  0  0  0  0
  1  3  4  0
  1  7  4  0
  2 21  4  0
  2 27  4  0
  3  9  4  0
  3 10  4  0
  4  8  4  0
  4 18  4  0
  4 25  1  0
  5  9  4  0
  5 12  4  0
  6 13  1  0
  6 27  1  0
  7 28  4  0
  8 11  4  0
  9 29  4  0
 10 12  4  0
 11 24  1  0
 11 26  4  0
 12 25  1  0
 13 28  1  0
 14 20  4  0
 14 23  4  0
 15 17  4  0
 15 21  4  0
 16 19  4  0
 16 23  4  0
 17 22  4  0
 18 26  4  0
 19 24  4  0
 20 24  4  0
 22 27  4  0
 28 29  4  0
M  END
$$$$

 Created by Python create_sdf_string function

 29 33  0  0  0  0  0  0  0  0999 V2000
   10.7215   -3.3326   17.6437 C   0  0  0  0  0  0  0  0  0  0  0  0
    9.9489   -3.4675   24.6487 N   0  0  0  0  0  0  0  0  0  0  0  0
   10.0172   -4.4740   17.4101 C   0  0  0  0  0  0  0  0  0  0  0  0
    6.9051   -7.9575   16.4222 C   0  0  0  0  0  0  0  0  0  0  0  0
    8.9969   -6.3552   17.9668 N   0  0  0  0  0  0  0  0  0  0  0  0
   10.6702   -3.9051   22.4070 C   0  0  0  0  0  0  0  0  0  0  0  0
   11.0625   -3.0028   18.8894 C   0  0  0  0  0  0  0  0  0  0  0  0
    5.6180   -7.9194   16.1754 O   0  0  0  0  0  0  0  0  0  0  0  0
    9.7259   -5.3080   18.4485 C   0  0  0  0  0  0  0  0  0  0  0  0
    9.4578   -5.0200   16.3036 N   0  0  0  0  0  0  0  0  0  0  0  0
    5.0287   -8.9365   16.8223 C   0  0  0  0  0  0  0  0  0  0  0  0
    8.7742   -6.1498   16.6764 C   0  0  0  0  0  0  0  0  0  0  0  0
   10.9418   -3.4032   21.2053 O   0  0  0  0  0  0  0  0  0  0  0  0
    1.4797   -8.6258   16.2950 C   0  0  0  0  0  0  0  0  0  0  0  0
    9.2861   -1.2743   25.3585 C   0  0  0  0  0  0  0  0  0  0  0  0
    1.8892  -10.3985   17.7511 N   0  0  0  0  0  0  0  0  0  0  0  0
    9.6210   -0.6952   24.0976 C   0  0  0  0  0  0  0  0  0  0  0  0
    7.0792   -9.0217   17.1429 C   0  0  0  0  0  0  0  0  0  0  0  0
    3.1713  -10.1816   17.6634 C   0  0  0  0  0  0  0  0  0  0  0  0
    2.7878   -8.3822   16.2137 C   0  0  0  0  0  0  0  0  0  0  0  0
    9.4601   -2.6590   25.6528 C   0  0  0  0  0  0  0  0  0  0  0  0
   10.1182   -1.5672   23.1165 C   0  0  0  0  0  0  0  0  0  0  0  0
    1.0552   -9.6360   17.0650 C   0  0  0  0  0  0  0  0  0  0  0  0
    3.6519   -9.1783   16.9039 C   0  0  0  0  0  0  0  0  0  0  0  0
    7.8675   -7.0096   15.9415 C   0  0  0  0  0  0  0  0  0  0  0  0
    5.9733   -9.6553   17.3832 N   0  0  0  0  0  0  0  0  0  0  0  0
   10.2411   -2.9363   23.4301 C   0  0  0  0  0  0  0  0  0  0  0  0
   10.7288   -3.8197   19.9525 C   0  0  0  0  0  0  0  0  0  0  0  0
   10.1189   -5.0054   19.6987 C   0  0  0  0  0  0  0  0  0  0  0  0
  1  3  4  0
  1  7  4  0
  2 21  4  0
  2 27  4  0
  3  9  4  0
  3 10  4  0
  4  8  4  0
  4 18  4  0
  4 25  1  0
  5  9  4  0
  5 12  4  0
  6 13  1  0
  6 27  1  0
  7 28  4  0
  8 11  4  0
  9 29  4  0
 10 12  4  0
 11 24  1  0
 11 26  4  0
 12 25  1  0
 13 28  1  0
 14 20  4  0
 14 23  4  0
 15 17  4  0
 15 21  4  0
 16 19  4  0
 16 23  4  0
 17 22  4  0
 18 26  4  0
 19 24  4  0
 20 24  4  0
 22 27  4  0
 28 29  4  0
M  END
$$$$

 Created by Python create_sdf_string function

 29 33  0  0  0  0  0  0  0  0999 V2000
   10.7215   -3.3326   17.6437 C   0  0  0  0  0  0  0  0  0  0  0  0
    9.9489   -3.4675   24.6487 N   0  0  0  0  0  0  0  0  0  0  0  0
   10.0172   -4.4740   17.4101 C   0  0  0  0  0  0  0  0  0  0  0  0
    6.9051   -7.9575   16.4222 C   0  0  0  0  0  0  0  0  0  0  0  0
    8.9969   -6.3552   17.9668 N   0  0  0  0  0  0  0  0  0  0  0  0
   10.6702   -3.9051   22.4070 C   0  0  0  0  0  0  0  0  0  0  0  0
   11.0625   -3.0028   18.8894 C   0  0  0  0  0  0  0  0  0  0  0  0
    5.6180   -7.9194   16.1754 O   0  0  0  0  0  0  0  0  0  0  0  0
    9.7259   -5.3080   18.4485 C   0  0  0  0  0  0  0  0  0  0  0  0
    9.4578   -5.0200   16.3036 N   0  0  0  0  0  0  0  0  0  0  0  0
    5.0287   -8.9365   16.8223 C   0  0  0  0  0  0  0  0  0  0  0  0
    8.7742   -6.1498   16.6764 C   0  0  0  0  0  0  0  0  0  0  0  0
   10.9418   -3.4032   21.2053 O   0  0  0  0  0  0  0  0  0  0  0  0
    1.4797   -8.6258   16.2950 C   0  0  0  0  0  0  0  0  0  0  0  0
    9.2861   -1.2743   25.3585 C   0  0  0  0  0  0  0  0  0  0  0  0
    1.8892  -10.3985   17.7511 N   0  0  0  0  0  0  0  0  0  0  0  0
    9.6210   -0.6952   24.0976 C   0  0  0  0  0  0  0  0  0  0  0  0
    7.0792   -9.0217   17.1429 C   0  0  0  0  0  0  0  0  0  0  0  0
    3.1713  -10.1816   17.6634 C   0  0  0  0  0  0  0  0  0  0  0  0
    2.7878   -8.3822   16.2137 C   0  0  0  0  0  0  0  0  0  0  0  0
    9.4601   -2.6590   25.6528 C   0  0  0  0  0  0  0  0  0  0  0  0
   10.1182   -1.5672   23.1165 C   0  0  0  0  0  0  0  0  0  0  0  0
    1.0552   -9.6360   17.0650 C   0  0  0  0  0  0  0  0  0  0  0  0
    3.6519   -9.1783   16.9039 C   0  0  0  0  0  0  0  0  0  0  0  0
    7.8675   -7.0096   15.9415 C   0  0  0  0  0  0  0  0  0  0  0  0
    5.9733   -9.6553   17.3832 N   0  0  0  0  0  0  0  0  0  0  0  0
   10.2411   -2.9363   23.4301 C   0  0  0  0  0  0  0  0  0  0  0  0
   10.7288   -3.8197   19.9525 C   0  0  0  0  0  0  0  0  0  0  0  0
   10.1189   -5.0054   19.6987 C   0  0  0  0  0  0  0  0  0  0  0  0
  1  3  4  0
  1  7  4  0
  2 21  4  0
  2 27  4  0
  3  9  4  0
  3 10  4  0
  4  8  4  0
  4 18  4  0
  4 25  1  0
  5  9  4  0
  5 12  4  0
  6 13  1  0
  6 27  1  0
  7 28  4  0
  8 11  4  0
  9 29  4  0
 10 12  4  0
 11 24  1  0
 11 26  4  0
 12 25  1  0
 13 28  1  0
 14 20  4  0
 14 23  4  0
 15 17  4  0
 15 21  4  0
 16 19  4  0
 16 23  4  0
 17 22  4  0
 18 26  4  0
 19 24  4  0
 20 24  4  0
 22 27  4  0
 28 29  4  0
M  END
$$$$

 Created by Python create_sdf_string function

 29 33  0  0  0  0  0  0  0  0999 V2000
   10.7215   -3.3326   17.6437 C   0  0  0  0  0  0  0  0  0  0  0  0
    9.9489   -3.4675   24.6487 N   0  0  0  0  0  0  0  0  0  0  0  0
   10.0172   -4.4740   17.4101 C   0  0  0  0  0  0  0  0  0  0  0  0
    6.9051   -7.9575   16.4222 C   0  0  0  0  0  0  0  0  0  0  0  0
    8.9969   -6.3552   17.9668 N   0  0  0  0  0  0  0  0  0  0  0  0
   10.6702   -3.9051   22.4070 C   0  0  0  0  0  0  0  0  0  0  0  0
   11.0625   -3.0028   18.8894 C   0  0  0  0  0  0  0  0  0  0  0  0
    5.6180   -7.9194   16.1754 O   0  0  0  0  0  0  0  0  0  0  0  0
    9.7259   -5.3080   18.4485 C   0  0  0  0  0  0  0  0  0  0  0  0
    9.4578   -5.0200   16.3036 N   0  0  0  0  0  0  0  0  0  0  0  0
    5.0287   -8.9365   16.8223 C   0  0  0  0  0  0  0  0  0  0  0  0
    8.7742   -6.1498   16.6764 C   0  0  0  0  0  0  0  0  0  0  0  0
   10.9418   -3.4032   21.2053 O   0  0  0  0  0  0  0  0  0  0  0  0
    1.4797   -8.6258   16.2950 C   0  0  0  0  0  0  0  0  0  0  0  0
    9.2861   -1.2743   25.3585 C   0  0  0  0  0  0  0  0  0  0  0  0
    1.8892  -10.3985   17.7511 N   0  0  0  0  0  0  0  0  0  0  0  0
    9.6210   -0.6952   24.0976 C   0  0  0  0  0  0  0  0  0  0  0  0
    7.0792   -9.0217   17.1429 C   0  0  0  0  0  0  0  0  0  0  0  0
    3.1713  -10.1816   17.6634 C   0  0  0  0  0  0  0  0  0  0  0  0
    2.7878   -8.3822   16.2137 C   0  0  0  0  0  0  0  0  0  0  0  0
    9.4601   -2.6590   25.6528 C   0  0  0  0  0  0  0  0  0  0  0  0
   10.1182   -1.5672   23.1165 C   0  0  0  0  0  0  0  0  0  0  0  0
    1.0552   -9.6360   17.0650 C   0  0  0  0  0  0  0  0  0  0  0  0
    3.6519   -9.1783   16.9039 C   0  0  0  0  0  0  0  0  0  0  0  0
    7.8675   -7.0096   15.9415 C   0  0  0  0  0  0  0  0  0  0  0  0
    5.9733   -9.6553   17.3832 N   0  0  0  0  0  0  0  0  0  0  0  0
   10.2411   -2.9363   23.4301 C   0  0  0  0  0  0  0  0  0  0  0  0
   10.7288   -3.8197   19.9525 C   0  0  0  0  0  0  0  0  0  0  0  0
   10.1189   -5.0054   19.6987 C   0  0  0  0  0  0  0  0  0  0  0  0
  1  3  4  0
  1  7  4  0
  2 21  4  0
  2 27  4  0
  3  9  4  0
  3 10  4  0
  4  8  4  0
  4 18  4  0
  4 25  1  0
  5  9  4  0
  5 12  4  0
  6 13  1  0
  6 27  1  0
  7 28  4  0
  8 11  4  0
  9 29  4  0
 10 12  4  0
 11 24  1  0
 11 26  4  0
 12 25  1  0
 13 28  1  0
 14 20  4  0
 14 23  4  0
 15 17  4  0
 15 21  4  0
 16 19  4  0
 16 23  4  0
 17 22  4  0
 18 26  4  0
 19 24  4  0
 20 24  4  0
 22 27  4  0
 28 29  4  0
M  END
$$$$

 Created by Python create_sdf_string function

 29 33  0  0  0  0  0  0  0  0999 V2000
   10.7215   -3.3326   17.6437 C   0  0  0  0  0  0  0  0  0  0  0  0
    9.9489   -3.4675   24.6487 N   0  0  0  0  0  0  0  0  0  0  0  0
   10.0172   -4.4740   17.4101 C   0  0  0  0  0  0  0  0  0  0  0  0
    6.9051   -7.9575   16.4222 C   0  0  0  0  0  0  0  0  0  0  0  0
    8.9969   -6.3552   17.9668 N   0  0  0  0  0  0  0  0  0  0  0  0
   10.6702   -3.9051   22.4070 C   0  0  0  0  0  0  0  0  0  0  0  0
   11.0625   -3.0028   18.8894 C   0  0  0  0  0  0  0  0  0  0  0  0
    5.6180   -7.9194   16.1754 O   0  0  0  0  0  0  0  0  0  0  0  0
    9.7259   -5.3080   18.4485 C   0  0  0  0  0  0  0  0  0  0  0  0
    9.4578   -5.0200   16.3036 N   0  0  0  0  0  0  0  0  0  0  0  0
    5.0287   -8.9365   16.8223 C   0  0  0  0  0  0  0  0  0  0  0  0
    8.7742   -6.1498   16.6764 C   0  0  0  0  0  0  0  0  0  0  0  0
   10.9418   -3.4032   21.2053 O   0  0  0  0  0  0  0  0  0  0  0  0
    1.4797   -8.6258   16.2950 C   0  0  0  0  0  0  0  0  0  0  0  0
    9.2861   -1.2743   25.3585 C   0  0  0  0  0  0  0  0  0  0  0  0
    1.8892  -10.3985   17.7511 N   0  0  0  0  0  0  0  0  0  0  0  0
    9.6210   -0.6952   24.0976 C   0  0  0  0  0  0  0  0  0  0  0  0
    7.0792   -9.0217   17.1429 C   0  0  0  0  0  0  0  0  0  0  0  0
    3.1713  -10.1816   17.6634 C   0  0  0  0  0  0  0  0  0  0  0  0
    2.7878   -8.3822   16.2137 C   0  0  0  0  0  0  0  0  0  0  0  0
    9.4601   -2.6590   25.6528 C   0  0  0  0  0  0  0  0  0  0  0  0
   10.1182   -1.5672   23.1165 C   0  0  0  0  0  0  0  0  0  0  0  0
    1.0552   -9.6360   17.0650 C   0  0  0  0  0  0  0  0  0  0  0  0
    3.6519   -9.1783   16.9039 C   0  0  0  0  0  0  0  0  0  0  0  0
    7.8675   -7.0096   15.9415 C   0  0  0  0  0  0  0  0  0  0  0  0
    5.9733   -9.6553   17.3832 N   0  0  0  0  0  0  0  0  0  0  0  0
   10.2411   -2.9363   23.4301 C   0  0  0  0  0  0  0  0  0  0  0  0
   10.7288   -3.8197   19.9525 C   0  0  0  0  0  0  0  0  0  0  0  0
   10.1189   -5.0054   19.6987 C   0  0  0  0  0  0  0  0  0  0  0  0
  1  3  4  0
  1  7  4  0
  2 21  4  0
  2 27  4  0
  3  9  4  0
  3 10  4  0
  4  8  4  0
  4 18  4  0
  4 25  1  0
  5  9  4  0
  5 12  4  0
  6 13  1  0
  6 27  1  0
  7 28  4  0
  8 11  4  0
  9 29  4  0
 10 12  4  0
 11 24  1  0
 11 26  4  0
 12 25  1  0
 13 28  1  0
 14 20  4  0
 14 23  4  0
 15 17  4  0
 15 21  4  0
 16 19  4  0
 16 23  4  0
 17 22  4  0
 18 26  4  0
 19 24  4  0
 20 24  4  0
 22 27  4  0
 28 29  4  0
M  END
$$$$

 Created by Python create_sdf_string function

 29 33  0  0  0  0  0  0  0  0999 V2000
   10.7215   -3.3326   17.6437 C   0  0  0  0  0  0  0  0  0  0  0  0
    9.9489   -3.4675   24.6487 N   0  0  0  0  0  0  0  0  0  0  0  0
   10.0172   -4.4740   17.4101 C   0  0  0  0  0  0  0  0  0  0  0  0
    6.9051   -7.9575   16.4222 C   0  0  0  0  0  0  0  0  0  0  0  0
    8.9969   -6.3552   17.9668 N   0  0  0  0  0  0  0  0  0  0  0  0
   10.6702   -3.9051   22.4070 C   0  0  0  0  0  0  0  0  0  0  0  0
   11.0625   -3.0028   18.8894 C   0  0  0  0  0  0  0  0  0  0  0  0
    5.6180   -7.9194   16.1754 O   0  0  0  0  0  0  0  0  0  0  0  0
    9.7259   -5.3080   18.4485 C   0  0  0  0  0  0  0  0  0  0  0  0
    9.4578   -5.0200   16.3036 N   0  0  0  0  0  0  0  0  0  0  0  0
    5.0287   -8.9365   16.8223 C   0  0  0  0  0  0  0  0  0  0  0  0
    8.7742   -6.1498   16.6764 C   0  0  0  0  0  0  0  0  0  0  0  0
   10.9418   -3.4032   21.2053 O   0  0  0  0  0  0  0  0  0  0  0  0
    1.4797   -8.6258   16.2950 C   0  0  0  0  0  0  0  0  0  0  0  0
    9.2861   -1.2743   25.3585 C   0  0  0  0  0  0  0  0  0  0  0  0
    1.8892  -10.3985   17.7511 N   0  0  0  0  0  0  0  0  0  0  0  0
    9.6210   -0.6952   24.0976 C   0  0  0  0  0  0  0  0  0  0  0  0
    7.0792   -9.0217   17.1429 C   0  0  0  0  0  0  0  0  0  0  0  0
    3.1713  -10.1816   17.6634 C   0  0  0  0  0  0  0  0  0  0  0  0
    2.7878   -8.3822   16.2137 C   0  0  0  0  0  0  0  0  0  0  0  0
    9.4601   -2.6590   25.6528 C   0  0  0  0  0  0  0  0  0  0  0  0
   10.1182   -1.5672   23.1165 C   0  0  0  0  0  0  0  0  0  0  0  0
    1.0552   -9.6360   17.0650 C   0  0  0  0  0  0  0  0  0  0  0  0
    3.6519   -9.1783   16.9039 C   0  0  0  0  0  0  0  0  0  0  0  0
    7.8675   -7.0096   15.9415 C   0  0  0  0  0  0  0  0  0  0  0  0
    5.9733   -9.6553   17.3832 N   0  0  0  0  0  0  0  0  0  0  0  0
   10.2411   -2.9363   23.4301 C   0  0  0  0  0  0  0  0  0  0  0  0
   10.7288   -3.8197   19.9525 C   0  0  0  0  0  0  0  0  0  0  0  0
   10.1189   -5.0054   19.6987 C   0  0  0  0  0  0  0  0  0  0  0  0
  1  3  4  0
  1  7  4  0
  2 21  4  0
  2 27  4  0
  3  9  4  0
  3 10  4  0
  4  8  4  0
  4 18  4  0
  4 25  1  0
  5  9  4  0
  5 12  4  0
  6 13  1  0
  6 27  1  0
  7 28  4  0
  8 11  4  0
  9 29  4  0
 10 12  4  0
 11 24  1  0
 11 26  4  0
 12 25  1  0
 13 28  1  0
 14 20  4  0
 14 23  4  0
 15 17  4  0
 15 21  4  0
 16 19  4  0
 16 23  4  0
 17 22  4  0
 18 26  4  0
 19 24  4  0
 20 24  4  0
 22 27  4  0
 28 29  4  0
M  END
$$$$

 Created by Python create_sdf_string function

 29 33  0  0  0  0  0  0  0  0999 V2000
   10.7215   -3.3326   17.6437 C   0  0  0  0  0  0  0  0  0  0  0  0
    9.9489   -3.4675   24.6487 N   0  0  0  0  0  0  0  0  0  0  0  0
   10.0172   -4.4740   17.4101 C   0  0  0  0  0  0  0  0  0  0  0  0
    6.9051   -7.9575   16.4222 C   0  0  0  0  0  0  0  0  0  0  0  0
    8.9969   -6.3552   17.9668 N   0  0  0  0  0  0  0  0  0  0  0  0
   10.6702   -3.9051   22.4070 C   0  0  0  0  0  0  0  0  0  0  0  0
   11.0625   -3.0028   18.8894 C   0  0  0  0  0  0  0  0  0  0  0  0
    5.6180   -7.9194   16.1754 O   0  0  0  0  0  0  0  0  0  0  0  0
    9.7259   -5.3080   18.4485 C   0  0  0  0  0  0  0  0  0  0  0  0
    9.4578   -5.0200   16.3036 N   0  0  0  0  0  0  0  0  0  0  0  0
    5.0287   -8.9365   16.8223 C   0  0  0  0  0  0  0  0  0  0  0  0
    8.7742   -6.1498   16.6764 C   0  0  0  0  0  0  0  0  0  0  0  0
   10.9418   -3.4032   21.2053 O   0  0  0  0  0  0  0  0  0  0  0  0
    1.4797   -8.6258   16.2950 C   0  0  0  0  0  0  0  0  0  0  0  0
    9.2861   -1.2743   25.3585 C   0  0  0  0  0  0  0  0  0  0  0  0
    1.8892  -10.3985   17.7511 N   0  0  0  0  0  0  0  0  0  0  0  0
    9.6210   -0.6952   24.0976 C   0  0  0  0  0  0  0  0  0  0  0  0
    7.0792   -9.0217   17.1429 C   0  0  0  0  0  0  0  0  0  0  0  0
    3.1713  -10.1816   17.6634 C   0  0  0  0  0  0  0  0  0  0  0  0
    2.7878   -8.3822   16.2137 C   0  0  0  0  0  0  0  0  0  0  0  0
    9.4601   -2.6590   25.6528 C   0  0  0  0  0  0  0  0  0  0  0  0
   10.1182   -1.5672   23.1165 C   0  0  0  0  0  0  0  0  0  0  0  0
    1.0552   -9.6360   17.0650 C   0  0  0  0  0  0  0  0  0  0  0  0
    3.6519   -9.1783   16.9039 C   0  0  0  0  0  0  0  0  0  0  0  0
    7.8675   -7.0096   15.9415 C   0  0  0  0  0  0  0  0  0  0  0  0
    5.9733   -9.6553   17.3832 N   0  0  0  0  0  0  0  0  0  0  0  0
   10.2411   -2.9363   23.4301 C   0  0  0  0  0  0  0  0  0  0  0  0
   10.7288   -3.8197   19.9525 C   0  0  0  0  0  0  0  0  0  0  0  0
   10.1189   -5.0054   19.6987 C   0  0  0  0  0  0  0  0  0  0  0  0
  1  3  4  0
  1  7  4  0
  2 21  4  0
  2 27  4  0
  3  9  4  0
  3 10  4  0
  4  8  4  0
  4 18  4  0
  4 25  1  0
  5  9  4  0
  5 12  4  0
  6 13  1  0
  6 27  1  0
  7 28  4  0
  8 11  4  0
  9 29  4  0
 10 12  4  0
 11 24  1  0
 11 26  4  0
 12 25  1  0
 13 28  1  0
 14 20  4  0
 14 23  4  0
 15 17  4  0
 15 21  4  0
 16 19  4  0
 16 23  4  0
 17 22  4  0
 18 26  4  0
 19 24  4  0
 20 24  4  0
 22 27  4  0
 28 29  4  0
M  END
$$$$

 Created by Python create_sdf_string function

 29 33  0  0  0  0  0  0  0  0999 V2000
   10.7215   -3.3326   17.6437 C   0  0  0  0  0  0  0  0  0  0  0  0
    9.9489   -3.4675   24.6487 N   0  0  0  0  0  0  0  0  0  0  0  0
   10.0172   -4.4740   17.4101 C   0  0  0  0  0  0  0  0  0  0  0  0
    6.9051   -7.9575   16.4222 C   0  0  0  0  0  0  0  0  0  0  0  0
    8.9969   -6.3552   17.9668 N   0  0  0  0  0  0  0  0  0  0  0  0
   10.6702   -3.9051   22.4070 C   0  0  0  0  0  0  0  0  0  0  0  0
   11.0625   -3.0028   18.8894 C   0  0  0  0  0  0  0  0  0  0  0  0
    5.6180   -7.9194   16.1754 O   0  0  0  0  0  0  0  0  0  0  0  0
    9.7259   -5.3080   18.4485 C   0  0  0  0  0  0  0  0  0  0  0  0
    9.4578   -5.0200   16.3036 N   0  0  0  0  0  0  0  0  0  0  0  0
    5.0287   -8.9365   16.8223 C   0  0  0  0  0  0  0  0  0  0  0  0
    8.7742   -6.1498   16.6764 C   0  0  0  0  0  0  0  0  0  0  0  0
   10.9418   -3.4032   21.2053 O   0  0  0  0  0  0  0  0  0  0  0  0
    1.4797   -8.6258   16.2950 C   0  0  0  0  0  0  0  0  0  0  0  0
    9.2861   -1.2743   25.3585 C   0  0  0  0  0  0  0  0  0  0  0  0
    1.8892  -10.3985   17.7511 N   0  0  0  0  0  0  0  0  0  0  0  0
    9.6210   -0.6952   24.0976 C   0  0  0  0  0  0  0  0  0  0  0  0
    7.0792   -9.0217   17.1429 C   0  0  0  0  0  0  0  0  0  0  0  0
    3.1713  -10.1816   17.6634 C   0  0  0  0  0  0  0  0  0  0  0  0
    2.7878   -8.3822   16.2137 C   0  0  0  0  0  0  0  0  0  0  0  0
    9.4601   -2.6590   25.6528 C   0  0  0  0  0  0  0  0  0  0  0  0
   10.1182   -1.5672   23.1165 C   0  0  0  0  0  0  0  0  0  0  0  0
    1.0552   -9.6360   17.0650 C   0  0  0  0  0  0  0  0  0  0  0  0
    3.6519   -9.1783   16.9039 C   0  0  0  0  0  0  0  0  0  0  0  0
    7.8675   -7.0096   15.9415 C   0  0  0  0  0  0  0  0  0  0  0  0
    5.9733   -9.6553   17.3832 N   0  0  0  0  0  0  0  0  0  0  0  0
   10.2411   -2.9363   23.4301 C   0  0  0  0  0  0  0  0  0  0  0  0
   10.7288   -3.8197   19.9525 C   0  0  0  0  0  0  0  0  0  0  0  0
   10.1189   -5.0054   19.6987 C   0  0  0  0  0  0  0  0  0  0  0  0
  1  3  4  0
  1  7  4  0
  2 21  4  0
  2 27  4  0
  3  9  4  0
  3 10  4  0
  4  8  4  0
  4 18  4  0
  4 25  1  0
  5  9  4  0
  5 12  4  0
  6 13  1  0
  6 27  1  0
  7 28  4  0
  8 11  4  0
  9 29  4  0
 10 12  4  0
 11 24  1  0
 11 26  4  0
 12 25  1  0
 13 28  1  0
 14 20  4  0
 14 23  4  0
 15 17  4  0
 15 21  4  0
 16 19  4  0
 16 23  4  0
 17 22  4  0
 18 26  4  0
 19 24  4  0
 20 24  4  0
 22 27  4  0
 28 29  4  0
M  END
$$$$

 Created by Python create_sdf_string function

 29 33  0  0  0  0  0  0  0  0999 V2000
   10.7215   -3.3326   17.6437 C   0  0  0  0  0  0  0  0  0  0  0  0
    9.9489   -3.4675   24.6487 N   0  0  0  0  0  0  0  0  0  0  0  0
   10.0172   -4.4740   17.4101 C   0  0  0  0  0  0  0  0  0  0  0  0
    6.9051   -7.9575   16.4222 C   0  0  0  0  0  0  0  0  0  0  0  0
    8.9969   -6.3552   17.9668 N   0  0  0  0  0  0  0  0  0  0  0  0
   10.6702   -3.9051   22.4070 C   0  0  0  0  0  0  0  0  0  0  0  0
   11.0625   -3.0028   18.8894 C   0  0  0  0  0  0  0  0  0  0  0  0
    5.6180   -7.9194   16.1754 O   0  0  0  0  0  0  0  0  0  0  0  0
    9.7259   -5.3080   18.4485 C   0  0  0  0  0  0  0  0  0  0  0  0
    9.4578   -5.0200   16.3036 N   0  0  0  0  0  0  0  0  0  0  0  0
    5.0287   -8.9365   16.8223 C   0  0  0  0  0  0  0  0  0  0  0  0
    8.7742   -6.1498   16.6764 C   0  0  0  0  0  0  0  0  0  0  0  0
   10.9418   -3.4032   21.2053 O   0  0  0  0  0  0  0  0  0  0  0  0
    1.4797   -8.6258   16.2950 C   0  0  0  0  0  0  0  0  0  0  0  0
    9.2861   -1.2743   25.3585 C   0  0  0  0  0  0  0  0  0  0  0  0
    1.8892  -10.3985   17.7511 N   0  0  0  0  0  0  0  0  0  0  0  0
    9.6210   -0.6952   24.0976 C   0  0  0  0  0  0  0  0  0  0  0  0
    7.0792   -9.0217   17.1429 C   0  0  0  0  0  0  0  0  0  0  0  0
    3.1713  -10.1816   17.6634 C   0  0  0  0  0  0  0  0  0  0  0  0
    2.7878   -8.3822   16.2137 C   0  0  0  0  0  0  0  0  0  0  0  0
    9.4601   -2.6590   25.6528 C   0  0  0  0  0  0  0  0  0  0  0  0
   10.1182   -1.5672   23.1165 C   0  0  0  0  0  0  0  0  0  0  0  0
    1.0552   -9.6360   17.0650 C   0  0  0  0  0  0  0  0  0  0  0  0
    3.6519   -9.1783   16.9039 C   0  0  0  0  0  0  0  0  0  0  0  0
    7.8675   -7.0096   15.9415 C   0  0  0  0  0  0  0  0  0  0  0  0
    5.9733   -9.6553   17.3832 N   0  0  0  0  0  0  0  0  0  0  0  0
   10.2411   -2.9363   23.4301 C   0  0  0  0  0  0  0  0  0  0  0  0
   10.7288   -3.8197   19.9525 C   0  0  0  0  0  0  0  0  0  0  0  0
   10.1189   -5.0054   19.6987 C   0  0  0  0  0  0  0  0  0  0  0  0
  1  3  4  0
  1  7  4  0
  2 21  4  0
  2 27  4  0
  3  9  4  0
  3 10  4  0
  4  8  4  0
  4 18  4  0
  4 25  1  0
  5  9  4  0
  5 12  4  0
  6 13  1  0
  6 27  1  0
  7 28  4  0
  8 11  4  0
  9 29  4  0
 10 12  4  0
 11 24  1  0
 11 26  4  0
 12 25  1  0
 13 28  1  0
 14 20  4  0
 14 23  4  0
 15 17  4  0
 15 21  4  0
 16 19  4  0
 16 23  4  0
 17 22  4  0
 18 26  4  0
 19 24  4  0
 20 24  4  0
 22 27  4  0
 28 29  4  0
M  END
$$$$

 Created by Python create_sdf_string function

 29 33  0  0  0  0  0  0  0  0999 V2000
   10.7215   -3.3326   17.6437 C   0  0  0  0  0  0  0  0  0  0  0  0
    9.9489   -3.4675   24.6487 N   0  0  0  0  0  0  0  0  0  0  0  0
   10.0172   -4.4740   17.4101 C   0  0  0  0  0  0  0  0  0  0  0  0
    6.9051   -7.9575   16.4222 C   0  0  0  0  0  0  0  0  0  0  0  0
    8.9969   -6.3552   17.9668 N   0  0  0  0  0  0  0  0  0  0  0  0
   10.6702   -3.9051   22.4070 C   0  0  0  0  0  0  0  0  0  0  0  0
   11.0625   -3.0028   18.8894 C   0  0  0  0  0  0  0  0  0  0  0  0
    5.6180   -7.9194   16.1754 O   0  0  0  0  0  0  0  0  0  0  0  0
    9.7259   -5.3080   18.4485 C   0  0  0  0  0  0  0  0  0  0  0  0
    9.4578   -5.0200   16.3036 N   0  0  0  0  0  0  0  0  0  0  0  0
    5.0287   -8.9365   16.8223 C   0  0  0  0  0  0  0  0  0  0  0  0
    8.7742   -6.1498   16.6764 C   0  0  0  0  0  0  0  0  0  0  0  0
   10.9418   -3.4032   21.2053 O   0  0  0  0  0  0  0  0  0  0  0  0
    1.4797   -8.6258   16.2950 C   0  0  0  0  0  0  0  0  0  0  0  0
    9.2861   -1.2743   25.3585 C   0  0  0  0  0  0  0  0  0  0  0  0
    1.8892  -10.3985   17.7511 N   0  0  0  0  0  0  0  0  0  0  0  0
    9.6210   -0.6952   24.0976 C   0  0  0  0  0  0  0  0  0  0  0  0
    7.0792   -9.0217   17.1429 C   0  0  0  0  0  0  0  0  0  0  0  0
    3.1713  -10.1816   17.6634 C   0  0  0  0  0  0  0  0  0  0  0  0
    2.7878   -8.3822   16.2137 C   0  0  0  0  0  0  0  0  0  0  0  0
    9.4601   -2.6590   25.6528 C   0  0  0  0  0  0  0  0  0  0  0  0
   10.1182   -1.5672   23.1165 C   0  0  0  0  0  0  0  0  0  0  0  0
    1.0552   -9.6360   17.0650 C   0  0  0  0  0  0  0  0  0  0  0  0
    3.6519   -9.1783   16.9039 C   0  0  0  0  0  0  0  0  0  0  0  0
    7.8675   -7.0096   15.9415 C   0  0  0  0  0  0  0  0  0  0  0  0
    5.9733   -9.6553   17.3832 N   0  0  0  0  0  0  0  0  0  0  0  0
   10.2411   -2.9363   23.4301 C   0  0  0  0  0  0  0  0  0  0  0  0
   10.7288   -3.8197   19.9525 C   0  0  0  0  0  0  0  0  0  0  0  0
   10.1189   -5.0054   19.6987 C   0  0  0  0  0  0  0  0  0  0  0  0
  1  3  4  0
  1  7  4  0
  2 21  4  0
  2 27  4  0
  3  9  4  0
  3 10  4  0
  4  8  4  0
  4 18  4  0
  4 25  1  0
  5  9  4  0
  5 12  4  0
  6 13  1  0
  6 27  1  0
  7 28  4  0
  8 11  4  0
  9 29  4  0
 10 12  4  0
 11 24  1  0
 11 26  4  0
 12 25  1  0
 13 28  1  0
 14 20  4  0
 14 23  4  0
 15 17  4  0
 15 21  4  0
 16 19  4  0
 16 23  4  0
 17 22  4  0
 18 26  4  0
 19 24  4  0
 20 24  4  0
 22 27  4  0
 28 29  4  0
M  END
$$$$

 Created by Python create_sdf_string function

 29 33  0  0  0  0  0  0  0  0999 V2000
   10.7215   -3.3326   17.6437 C   0  0  0  0  0  0  0  0  0  0  0  0
    9.9489   -3.4675   24.6487 N   0  0  0  0  0  0  0  0  0  0  0  0
   10.0172   -4.4740   17.4101 C   0  0  0  0  0  0  0  0  0  0  0  0
    6.9051   -7.9575   16.4222 C   0  0  0  0  0  0  0  0  0  0  0  0
    8.9969   -6.3552   17.9668 N   0  0  0  0  0  0  0  0  0  0  0  0
   10.6702   -3.9051   22.4070 C   0  0  0  0  0  0  0  0  0  0  0  0
   11.0625   -3.0028   18.8894 C   0  0  0  0  0  0  0  0  0  0  0  0
    5.6180   -7.9194   16.1754 O   0  0  0  0  0  0  0  0  0  0  0  0
    9.7259   -5.3080   18.4485 C   0  0  0  0  0  0  0  0  0  0  0  0
    9.4578   -5.0200   16.3036 N   0  0  0  0  0  0  0  0  0  0  0  0
    5.0287   -8.9365   16.8223 C   0  0  0  0  0  0  0  0  0  0  0  0
    8.7742   -6.1498   16.6764 C   0  0  0  0  0  0  0  0  0  0  0  0
   10.9418   -3.4032   21.2053 O   0  0  0  0  0  0  0  0  0  0  0  0
    1.4797   -8.6258   16.2950 C   0  0  0  0  0  0  0  0  0  0  0  0
    9.2861   -1.2743   25.3585 C   0  0  0  0  0  0  0  0  0  0  0  0
    1.8892  -10.3985   17.7511 N   0  0  0  0  0  0  0  0  0  0  0  0
    9.6210   -0.6952   24.0976 C   0  0  0  0  0  0  0  0  0  0  0  0
    7.0792   -9.0217   17.1429 C   0  0  0  0  0  0  0  0  0  0  0  0
    3.1713  -10.1816   17.6634 C   0  0  0  0  0  0  0  0  0  0  0  0
    2.7878   -8.3822   16.2137 C   0  0  0  0  0  0  0  0  0  0  0  0
    9.4601   -2.6590   25.6528 C   0  0  0  0  0  0  0  0  0  0  0  0
   10.1182   -1.5672   23.1165 C   0  0  0  0  0  0  0  0  0  0  0  0
    1.0552   -9.6360   17.0650 C   0  0  0  0  0  0  0  0  0  0  0  0
    3.6519   -9.1783   16.9039 C   0  0  0  0  0  0  0  0  0  0  0  0
    7.8675   -7.0096   15.9415 C   0  0  0  0  0  0  0  0  0  0  0  0
    5.9733   -9.6553   17.3832 N   0  0  0  0  0  0  0  0  0  0  0  0
   10.2411   -2.9363   23.4301 C   0  0  0  0  0  0  0  0  0  0  0  0
   10.7288   -3.8197   19.9525 C   0  0  0  0  0  0  0  0  0  0  0  0
   10.1189   -5.0054   19.6987 C   0  0  0  0  0  0  0  0  0  0  0  0
  1  3  4  0
  1  7  4  0
  2 21  4  0
  2 27  4  0
  3  9  4  0
  3 10  4  0
  4  8  4  0
  4 18  4  0
  4 25  1  0
  5  9  4  0
  5 12  4  0
  6 13  1  0
  6 27  1  0
  7 28  4  0
  8 11  4  0
  9 29  4  0
 10 12  4  0
 11 24  1  0
 11 26  4  0
 12 25  1  0
 13 28  1  0
 14 20  4  0
 14 23  4  0
 15 17  4  0
 15 21  4  0
 16 19  4  0
 16 23  4  0
 17 22  4  0
 18 26  4  0
 19 24  4  0
 20 24  4  0
 22 27  4  0
 28 29  4  0
M  END
$$$$

 Created by Python create_sdf_string function

 29 33  0  0  0  0  0  0  0  0999 V2000
   10.7215   -3.3326   17.6437 C   0  0  0  0  0  0  0  0  0  0  0  0
    9.9489   -3.4675   24.6487 N   0  0  0  0  0  0  0  0  0  0  0  0
   10.0172   -4.4740   17.4101 C   0  0  0  0  0  0  0  0  0  0  0  0
    6.9051   -7.9575   16.4222 C   0  0  0  0  0  0  0  0  0  0  0  0
    8.9969   -6.3552   17.9668 N   0  0  0  0  0  0  0  0  0  0  0  0
   10.6702   -3.9051   22.4070 C   0  0  0  0  0  0  0  0  0  0  0  0
   11.0625   -3.0028   18.8894 C   0  0  0  0  0  0  0  0  0  0  0  0
    5.6180   -7.9194   16.1754 O   0  0  0  0  0  0  0  0  0  0  0  0
    9.7259   -5.3080   18.4485 C   0  0  0  0  0  0  0  0  0  0  0  0
    9.4578   -5.0200   16.3036 N   0  0  0  0  0  0  0  0  0  0  0  0
    5.0287   -8.9365   16.8223 C   0  0  0  0  0  0  0  0  0  0  0  0
    8.7742   -6.1498   16.6764 C   0  0  0  0  0  0  0  0  0  0  0  0
   10.9418   -3.4032   21.2053 O   0  0  0  0  0  0  0  0  0  0  0  0
    1.4797   -8.6258   16.2950 C   0  0  0  0  0  0  0  0  0  0  0  0
    9.2861   -1.2743   25.3585 C   0  0  0  0  0  0  0  0  0  0  0  0
    1.8892  -10.3985   17.7511 N   0  0  0  0  0  0  0  0  0  0  0  0
    9.6210   -0.6952   24.0976 C   0  0  0  0  0  0  0  0  0  0  0  0
    7.0792   -9.0217   17.1429 C   0  0  0  0  0  0  0  0  0  0  0  0
    3.1713  -10.1816   17.6634 C   0  0  0  0  0  0  0  0  0  0  0  0
    2.7878   -8.3822   16.2137 C   0  0  0  0  0  0  0  0  0  0  0  0
    9.4601   -2.6590   25.6528 C   0  0  0  0  0  0  0  0  0  0  0  0
   10.1182   -1.5672   23.1165 C   0  0  0  0  0  0  0  0  0  0  0  0
    1.0552   -9.6360   17.0650 C   0  0  0  0  0  0  0  0  0  0  0  0
    3.6519   -9.1783   16.9039 C   0  0  0  0  0  0  0  0  0  0  0  0
    7.8675   -7.0096   15.9415 C   0  0  0  0  0  0  0  0  0  0  0  0
    5.9733   -9.6553   17.3832 N   0  0  0  0  0  0  0  0  0  0  0  0
   10.2411   -2.9363   23.4301 C   0  0  0  0  0  0  0  0  0  0  0  0
   10.7288   -3.8197   19.9525 C   0  0  0  0  0  0  0  0  0  0  0  0
   10.1189   -5.0054   19.6987 C   0  0  0  0  0  0  0  0  0  0  0  0
  1  3  4  0
  1  7  4  0
  2 21  4  0
  2 27  4  0
  3  9  4  0
  3 10  4  0
  4  8  4  0
  4 18  4  0
  4 25  1  0
  5  9  4  0
  5 12  4  0
  6 13  1  0
  6 27  1  0
  7 28  4  0
  8 11  4  0
  9 29  4  0
 10 12  4  0
 11 24  1  0
 11 26  4  0
 12 25  1  0
 13 28  1  0
 14 20  4  0
 14 23  4  0
 15 17  4  0
 15 21  4  0
 16 19  4  0
 16 23  4  0
 17 22  4  0
 18 26  4  0
 19 24  4  0
 20 24  4  0
 22 27  4  0
 28 29  4  0
M  END
$$$$

 Created by Python create_sdf_string function

 29 33  0  0  0  0  0  0  0  0999 V2000
   10.7215   -3.3326   17.6437 C   0  0  0  0  0  0  0  0  0  0  0  0
    9.9489   -3.4675   24.6487 N   0  0  0  0  0  0  0  0  0  0  0  0
   10.0172   -4.4740   17.4101 C   0  0  0  0  0  0  0  0  0  0  0  0
    6.9051   -7.9575   16.4222 C   0  0  0  0  0  0  0  0  0  0  0  0
    8.9969   -6.3552   17.9668 N   0  0  0  0  0  0  0  0  0  0  0  0
   10.6702   -3.9051   22.4070 C   0  0  0  0  0  0  0  0  0  0  0  0
   11.0625   -3.0028   18.8894 C   0  0  0  0  0  0  0  0  0  0  0  0
    5.6180   -7.9194   16.1754 O   0  0  0  0  0  0  0  0  0  0  0  0
    9.7259   -5.3080   18.4485 C   0  0  0  0  0  0  0  0  0  0  0  0
    9.4578   -5.0200   16.3036 N   0  0  0  0  0  0  0  0  0  0  0  0
    5.0287   -8.9365   16.8223 C   0  0  0  0  0  0  0  0  0  0  0  0
    8.7742   -6.1498   16.6764 C   0  0  0  0  0  0  0  0  0  0  0  0
   10.9418   -3.4032   21.2053 O   0  0  0  0  0  0  0  0  0  0  0  0
    1.4797   -8.6258   16.2950 C   0  0  0  0  0  0  0  0  0  0  0  0
    9.2861   -1.2743   25.3585 C   0  0  0  0  0  0  0  0  0  0  0  0
    1.8892  -10.3985   17.7511 N   0  0  0  0  0  0  0  0  0  0  0  0
    9.6210   -0.6952   24.0976 C   0  0  0  0  0  0  0  0  0  0  0  0
    7.0792   -9.0217   17.1429 C   0  0  0  0  0  0  0  0  0  0  0  0
    3.1713  -10.1816   17.6634 C   0  0  0  0  0  0  0  0  0  0  0  0
    2.7878   -8.3822   16.2137 C   0  0  0  0  0  0  0  0  0  0  0  0
    9.4601   -2.6590   25.6528 C   0  0  0  0  0  0  0  0  0  0  0  0
   10.1182   -1.5672   23.1165 C   0  0  0  0  0  0  0  0  0  0  0  0
    1.0552   -9.6360   17.0650 C   0  0  0  0  0  0  0  0  0  0  0  0
    3.6519   -9.1783   16.9039 C   0  0  0  0  0  0  0  0  0  0  0  0
    7.8675   -7.0096   15.9415 C   0  0  0  0  0  0  0  0  0  0  0  0
    5.9733   -9.6553   17.3832 N   0  0  0  0  0  0  0  0  0  0  0  0
   10.2411   -2.9363   23.4301 C   0  0  0  0  0  0  0  0  0  0  0  0
   10.7288   -3.8197   19.9525 C   0  0  0  0  0  0  0  0  0  0  0  0
   10.1189   -5.0054   19.6987 C   0  0  0  0  0  0  0  0  0  0  0  0
  1  3  4  0
  1  7  4  0
  2 21  4  0
  2 27  4  0
  3  9  4  0
  3 10  4  0
  4  8  4  0
  4 18  4  0
  4 25  1  0
  5  9  4  0
  5 12  4  0
  6 13  1  0
  6 27  1  0
  7 28  4  0
  8 11  4  0
  9 29  4  0
 10 12  4  0
 11 24  1  0
 11 26  4  0
 12 25  1  0
 13 28  1  0
 14 20  4  0
 14 23  4  0
 15 17  4  0
 15 21  4  0
 16 19  4  0
 16 23  4  0
 17 22  4  0
 18 26  4  0
 19 24  4  0
 20 24  4  0
 22 27  4  0
 28 29  4  0
M  END
$$$$

 Created by Python create_sdf_string function

 29 33  0  0  0  0  0  0  0  0999 V2000
   10.7215   -3.3326   17.6437 C   0  0  0  0  0  0  0  0  0  0  0  0
    9.9489   -3.4675   24.6487 N   0  0  0  0  0  0  0  0  0  0  0  0
   10.0172   -4.4740   17.4101 C   0  0  0  0  0  0  0  0  0  0  0  0
    6.9051   -7.9575   16.4222 C   0  0  0  0  0  0  0  0  0  0  0  0
    8.9969   -6.3552   17.9668 N   0  0  0  0  0  0  0  0  0  0  0  0
   10.6702   -3.9051   22.4070 C   0  0  0  0  0  0  0  0  0  0  0  0
   11.0625   -3.0028   18.8894 C   0  0  0  0  0  0  0  0  0  0  0  0
    5.6180   -7.9194   16.1754 O   0  0  0  0  0  0  0  0  0  0  0  0
    9.7259   -5.3080   18.4485 C   0  0  0  0  0  0  0  0  0  0  0  0
    9.4578   -5.0200   16.3036 N   0  0  0  0  0  0  0  0  0  0  0  0
    5.0287   -8.9365   16.8223 C   0  0  0  0  0  0  0  0  0  0  0  0
    8.7742   -6.1498   16.6764 C   0  0  0  0  0  0  0  0  0  0  0  0
   10.9418   -3.4032   21.2053 O   0  0  0  0  0  0  0  0  0  0  0  0
    1.4797   -8.6258   16.2950 C   0  0  0  0  0  0  0  0  0  0  0  0
    9.2861   -1.2743   25.3585 C   0  0  0  0  0  0  0  0  0  0  0  0
    1.8892  -10.3985   17.7511 N   0  0  0  0  0  0  0  0  0  0  0  0
    9.6210   -0.6952   24.0976 C   0  0  0  0  0  0  0  0  0  0  0  0
    7.0792   -9.0217   17.1429 C   0  0  0  0  0  0  0  0  0  0  0  0
    3.1713  -10.1816   17.6634 C   0  0  0  0  0  0  0  0  0  0  0  0
    2.7878   -8.3822   16.2137 C   0  0  0  0  0  0  0  0  0  0  0  0
    9.4601   -2.6590   25.6528 C   0  0  0  0  0  0  0  0  0  0  0  0
   10.1182   -1.5672   23.1165 C   0  0  0  0  0  0  0  0  0  0  0  0
    1.0552   -9.6360   17.0650 C   0  0  0  0  0  0  0  0  0  0  0  0
    3.6519   -9.1783   16.9039 C   0  0  0  0  0  0  0  0  0  0  0  0
    7.8675   -7.0096   15.9415 C   0  0  0  0  0  0  0  0  0  0  0  0
    5.9733   -9.6553   17.3832 N   0  0  0  0  0  0  0  0  0  0  0  0
   10.2411   -2.9363   23.4301 C   0  0  0  0  0  0  0  0  0  0  0  0
   10.7288   -3.8197   19.9525 C   0  0  0  0  0  0  0  0  0  0  0  0
   10.1189   -5.0054   19.6987 C   0  0  0  0  0  0  0  0  0  0  0  0
  1  3  4  0
  1  7  4  0
  2 21  4  0
  2 27  4  0
  3  9  4  0
  3 10  4  0
  4  8  4  0
  4 18  4  0
  4 25  1  0
  5  9  4  0
  5 12  4  0
  6 13  1  0
  6 27  1  0
  7 28  4  0
  8 11  4  0
  9 29  4  0
 10 12  4  0
 11 24  1  0
 11 26  4  0
 12 25  1  0
 13 28  1  0
 14 20  4  0
 14 23  4  0
 15 17  4  0
 15 21  4  0
 16 19  4  0
 16 23  4  0
 17 22  4  0
 18 26  4  0
 19 24  4  0
 20 24  4  0
 22 27  4  0
 28 29  4  0
M  END
$$$$

 Created by Python create_sdf_string function

 29 33  0  0  0  0  0  0  0  0999 V2000
   10.7215   -3.3326   17.6437 C   0  0  0  0  0  0  0  0  0  0  0  0
    9.9489   -3.4675   24.6487 N   0  0  0  0  0  0  0  0  0  0  0  0
   10.0172   -4.4740   17.4101 C   0  0  0  0  0  0  0  0  0  0  0  0
    6.9051   -7.9575   16.4222 C   0  0  0  0  0  0  0  0  0  0  0  0
    8.9969   -6.3552   17.9668 N   0  0  0  0  0  0  0  0  0  0  0  0
   10.6702   -3.9051   22.4070 C   0  0  0  0  0  0  0  0  0  0  0  0
   11.0625   -3.0028   18.8894 C   0  0  0  0  0  0  0  0  0  0  0  0
    5.6180   -7.9194   16.1754 O   0  0  0  0  0  0  0  0  0  0  0  0
    9.7259   -5.3080   18.4485 C   0  0  0  0  0  0  0  0  0  0  0  0
    9.4578   -5.0200   16.3036 N   0  0  0  0  0  0  0  0  0  0  0  0
    5.0287   -8.9365   16.8223 C   0  0  0  0  0  0  0  0  0  0  0  0
    8.7742   -6.1498   16.6764 C   0  0  0  0  0  0  0  0  0  0  0  0
   10.9418   -3.4032   21.2053 O   0  0  0  0  0  0  0  0  0  0  0  0
    1.4797   -8.6258   16.2950 C   0  0  0  0  0  0  0  0  0  0  0  0
    9.2861   -1.2743   25.3585 C   0  0  0  0  0  0  0  0  0  0  0  0
    1.8892  -10.3985   17.7511 N   0  0  0  0  0  0  0  0  0  0  0  0
    9.6210   -0.6952   24.0976 C   0  0  0  0  0  0  0  0  0  0  0  0
    7.0792   -9.0217   17.1429 C   0  0  0  0  0  0  0  0  0  0  0  0
    3.1713  -10.1816   17.6634 C   0  0  0  0  0  0  0  0  0  0  0  0
    2.7878   -8.3822   16.2137 C   0  0  0  0  0  0  0  0  0  0  0  0
    9.4601   -2.6590   25.6528 C   0  0  0  0  0  0  0  0  0  0  0  0
   10.1182   -1.5672   23.1165 C   0  0  0  0  0  0  0  0  0  0  0  0
    1.0552   -9.6360   17.0650 C   0  0  0  0  0  0  0  0  0  0  0  0
    3.6519   -9.1783   16.9039 C   0  0  0  0  0  0  0  0  0  0  0  0
    7.8675   -7.0096   15.9415 C   0  0  0  0  0  0  0  0  0  0  0  0
    5.9733   -9.6553   17.3832 N   0  0  0  0  0  0  0  0  0  0  0  0
   10.2411   -2.9363   23.4301 C   0  0  0  0  0  0  0  0  0  0  0  0
   10.7288   -3.8197   19.9525 C   0  0  0  0  0  0  0  0  0  0  0  0
   10.1189   -5.0054   19.6987 C   0  0  0  0  0  0  0  0  0  0  0  0
  1  3  4  0
  1  7  4  0
  2 21  4  0
  2 27  4  0
  3  9  4  0
  3 10  4  0
  4  8  4  0
  4 18  4  0
  4 25  1  0
  5  9  4  0
  5 12  4  0
  6 13  1  0
  6 27  1  0
  7 28  4  0
  8 11  4  0
  9 29  4  0
 10 12  4  0
 11 24  1  0
 11 26  4  0
 12 25  1  0
 13 28  1  0
 14 20  4  0
 14 23  4  0
 15 17  4  0
 15 21  4  0
 16 19  4  0
 16 23  4  0
 17 22  4  0
 18 26  4  0
 19 24  4  0
 20 24  4  0
 22 27  4  0
 28 29  4  0
M  END
$$$$

 Created by Python create_sdf_string function

 29 33  0  0  0  0  0  0  0  0999 V2000
   10.7215   -3.3326   17.6437 C   0  0  0  0  0  0  0  0  0  0  0  0
    9.9489   -3.4675   24.6487 N   0  0  0  0  0  0  0  0  0  0  0  0
   10.0172   -4.4740   17.4101 C   0  0  0  0  0  0  0  0  0  0  0  0
    6.9051   -7.9575   16.4222 C   0  0  0  0  0  0  0  0  0  0  0  0
    8.9969   -6.3552   17.9668 N   0  0  0  0  0  0  0  0  0  0  0  0
   10.6702   -3.9051   22.4070 C   0  0  0  0  0  0  0  0  0  0  0  0
   11.0625   -3.0028   18.8894 C   0  0  0  0  0  0  0  0  0  0  0  0
    5.6180   -7.9194   16.1754 O   0  0  0  0  0  0  0  0  0  0  0  0
    9.7259   -5.3080   18.4485 C   0  0  0  0  0  0  0  0  0  0  0  0
    9.4578   -5.0200   16.3036 N   0  0  0  0  0  0  0  0  0  0  0  0
    5.0287   -8.9365   16.8223 C   0  0  0  0  0  0  0  0  0  0  0  0
    8.7742   -6.1498   16.6764 C   0  0  0  0  0  0  0  0  0  0  0  0
   10.9418   -3.4032   21.2053 O   0  0  0  0  0  0  0  0  0  0  0  0
    1.4797   -8.6258   16.2950 C   0  0  0  0  0  0  0  0  0  0  0  0
    9.2861   -1.2743   25.3585 C   0  0  0  0  0  0  0  0  0  0  0  0
    1.8892  -10.3985   17.7511 N   0  0  0  0  0  0  0  0  0  0  0  0
    9.6210   -0.6952   24.0976 C   0  0  0  0  0  0  0  0  0  0  0  0
    7.0792   -9.0217   17.1429 C   0  0  0  0  0  0  0  0  0  0  0  0
    3.1713  -10.1816   17.6634 C   0  0  0  0  0  0  0  0  0  0  0  0
    2.7878   -8.3822   16.2137 C   0  0  0  0  0  0  0  0  0  0  0  0
    9.4601   -2.6590   25.6528 C   0  0  0  0  0  0  0  0  0  0  0  0
   10.1182   -1.5672   23.1165 C   0  0  0  0  0  0  0  0  0  0  0  0
    1.0552   -9.6360   17.0650 C   0  0  0  0  0  0  0  0  0  0  0  0
    3.6519   -9.1783   16.9039 C   0  0  0  0  0  0  0  0  0  0  0  0
    7.8675   -7.0096   15.9415 C   0  0  0  0  0  0  0  0  0  0  0  0
    5.9733   -9.6553   17.3832 N   0  0  0  0  0  0  0  0  0  0  0  0
   10.2411   -2.9363   23.4301 C   0  0  0  0  0  0  0  0  0  0  0  0
   10.7288   -3.8197   19.9525 C   0  0  0  0  0  0  0  0  0  0  0  0
   10.1189   -5.0054   19.6987 C   0  0  0  0  0  0  0  0  0  0  0  0
  1  3  4  0
  1  7  4  0
  2 21  4  0
  2 27  4  0
  3  9  4  0
  3 10  4  0
  4  8  4  0
  4 18  4  0
  4 25  1  0
  5  9  4  0
  5 12  4  0
  6 13  1  0
  6 27  1  0
  7 28  4  0
  8 11  4  0
  9 29  4  0
 10 12  4  0
 11 24  1  0
 11 26  4  0
 12 25  1  0
 13 28  1  0
 14 20  4  0
 14 23  4  0
 15 17  4  0
 15 21  4  0
 16 19  4  0
 16 23  4  0
 17 22  4  0
 18 26  4  0
 19 24  4  0
 20 24  4  0
 22 27  4  0
 28 29  4  0
M  END
$$$$

 Created by Python create_sdf_string function

 29 33  0  0  0  0  0  0  0  0999 V2000
   10.7215   -3.3326   17.6437 C   0  0  0  0  0  0  0  0  0  0  0  0
    9.9489   -3.4675   24.6487 N   0  0  0  0  0  0  0  0  0  0  0  0
   10.0172   -4.4740   17.4101 C   0  0  0  0  0  0  0  0  0  0  0  0
    6.9051   -7.9575   16.4222 C   0  0  0  0  0  0  0  0  0  0  0  0
    8.9969   -6.3552   17.9668 N   0  0  0  0  0  0  0  0  0  0  0  0
   10.6702   -3.9051   22.4070 C   0  0  0  0  0  0  0  0  0  0  0  0
   11.0625   -3.0028   18.8894 C   0  0  0  0  0  0  0  0  0  0  0  0
    5.6180   -7.9194   16.1754 O   0  0  0  0  0  0  0  0  0  0  0  0
    9.7259   -5.3080   18.4485 C   0  0  0  0  0  0  0  0  0  0  0  0
    9.4578   -5.0200   16.3036 N   0  0  0  0  0  0  0  0  0  0  0  0
    5.0287   -8.9365   16.8223 C   0  0  0  0  0  0  0  0  0  0  0  0
    8.7742   -6.1498   16.6764 C   0  0  0  0  0  0  0  0  0  0  0  0
   10.9418   -3.4032   21.2053 O   0  0  0  0  0  0  0  0  0  0  0  0
    1.4797   -8.6258   16.2950 C   0  0  0  0  0  0  0  0  0  0  0  0
    9.2861   -1.2743   25.3585 C   0  0  0  0  0  0  0  0  0  0  0  0
    1.8892  -10.3985   17.7511 N   0  0  0  0  0  0  0  0  0  0  0  0
    9.6210   -0.6952   24.0976 C   0  0  0  0  0  0  0  0  0  0  0  0
    7.0792   -9.0217   17.1429 C   0  0  0  0  0  0  0  0  0  0  0  0
    3.1713  -10.1816   17.6634 C   0  0  0  0  0  0  0  0  0  0  0  0
    2.7878   -8.3822   16.2137 C   0  0  0  0  0  0  0  0  0  0  0  0
    9.4601   -2.6590   25.6528 C   0  0  0  0  0  0  0  0  0  0  0  0
   10.1182   -1.5672   23.1165 C   0  0  0  0  0  0  0  0  0  0  0  0
    1.0552   -9.6360   17.0650 C   0  0  0  0  0  0  0  0  0  0  0  0
    3.6519   -9.1783   16.9039 C   0  0  0  0  0  0  0  0  0  0  0  0
    7.8675   -7.0096   15.9415 C   0  0  0  0  0  0  0  0  0  0  0  0
    5.9733   -9.6553   17.3832 N   0  0  0  0  0  0  0  0  0  0  0  0
   10.2411   -2.9363   23.4301 C   0  0  0  0  0  0  0  0  0  0  0  0
   10.7288   -3.8197   19.9525 C   0  0  0  0  0  0  0  0  0  0  0  0
   10.1189   -5.0054   19.6987 C   0  0  0  0  0  0  0  0  0  0  0  0
  1  3  4  0
  1  7  4  0
  2 21  4  0
  2 27  4  0
  3  9  4  0
  3 10  4  0
  4  8  4  0
  4 18  4  0
  4 25  1  0
  5  9  4  0
  5 12  4  0
  6 13  1  0
  6 27  1  0
  7 28  4  0
  8 11  4  0
  9 29  4  0
 10 12  4  0
 11 24  1  0
 11 26  4  0
 12 25  1  0
 13 28  1  0
 14 20  4  0
 14 23  4  0
 15 17  4  0
 15 21  4  0
 16 19  4  0
 16 23  4  0
 17 22  4  0
 18 26  4  0
 19 24  4  0
 20 24  4  0
 22 27  4  0
 28 29  4  0
M  END
$$$$

 Created by Python create_sdf_string function

 29 33  0  0  0  0  0  0  0  0999 V2000
   10.7215   -3.3326   17.6437 C   0  0  0  0  0  0  0  0  0  0  0  0
    9.9489   -3.4675   24.6487 N   0  0  0  0  0  0  0  0  0  0  0  0
   10.0172   -4.4740   17.4101 C   0  0  0  0  0  0  0  0  0  0  0  0
    6.9051   -7.9575   16.4222 C   0  0  0  0  0  0  0  0  0  0  0  0
    8.9969   -6.3552   17.9668 N   0  0  0  0  0  0  0  0  0  0  0  0
   10.6702   -3.9051   22.4070 C   0  0  0  0  0  0  0  0  0  0  0  0
   11.0625   -3.0028   18.8894 C   0  0  0  0  0  0  0  0  0  0  0  0
    5.6180   -7.9194   16.1754 O   0  0  0  0  0  0  0  0  0  0  0  0
    9.7259   -5.3080   18.4485 C   0  0  0  0  0  0  0  0  0  0  0  0
    9.4578   -5.0200   16.3036 N   0  0  0  0  0  0  0  0  0  0  0  0
    5.0287   -8.9365   16.8223 C   0  0  0  0  0  0  0  0  0  0  0  0
    8.7742   -6.1498   16.6764 C   0  0  0  0  0  0  0  0  0  0  0  0
   10.9418   -3.4032   21.2053 O   0  0  0  0  0  0  0  0  0  0  0  0
    1.4797   -8.6258   16.2950 C   0  0  0  0  0  0  0  0  0  0  0  0
    9.2861   -1.2743   25.3585 C   0  0  0  0  0  0  0  0  0  0  0  0
    1.8892  -10.3985   17.7511 N   0  0  0  0  0  0  0  0  0  0  0  0
    9.6210   -0.6952   24.0976 C   0  0  0  0  0  0  0  0  0  0  0  0
    7.0792   -9.0217   17.1429 C   0  0  0  0  0  0  0  0  0  0  0  0
    3.1713  -10.1816   17.6634 C   0  0  0  0  0  0  0  0  0  0  0  0
    2.7878   -8.3822   16.2137 C   0  0  0  0  0  0  0  0  0  0  0  0
    9.4601   -2.6590   25.6528 C   0  0  0  0  0  0  0  0  0  0  0  0
   10.1182   -1.5672   23.1165 C   0  0  0  0  0  0  0  0  0  0  0  0
    1.0552   -9.6360   17.0650 C   0  0  0  0  0  0  0  0  0  0  0  0
    3.6519   -9.1783   16.9039 C   0  0  0  0  0  0  0  0  0  0  0  0
    7.8675   -7.0096   15.9415 C   0  0  0  0  0  0  0  0  0  0  0  0
    5.9733   -9.6553   17.3832 N   0  0  0  0  0  0  0  0  0  0  0  0
   10.2411   -2.9363   23.4301 C   0  0  0  0  0  0  0  0  0  0  0  0
   10.7288   -3.8197   19.9525 C   0  0  0  0  0  0  0  0  0  0  0  0
   10.1189   -5.0054   19.6987 C   0  0  0  0  0  0  0  0  0  0  0  0
  1  3  4  0
  1  7  4  0
  2 21  4  0
  2 27  4  0
  3  9  4  0
  3 10  4  0
  4  8  4  0
  4 18  4  0
  4 25  1  0
  5  9  4  0
  5 12  4  0
  6 13  1  0
  6 27  1  0
  7 28  4  0
  8 11  4  0
  9 29  4  0
 10 12  4  0
 11 24  1  0
 11 26  4  0
 12 25  1  0
 13 28  1  0
 14 20  4  0
 14 23  4  0
 15 17  4  0
 15 21  4  0
 16 19  4  0
 16 23  4  0
 17 22  4  0
 18 26  4  0
 19 24  4  0
 20 24  4  0
 22 27  4  0
 28 29  4  0
M  END
$$$$

 Created by Python create_sdf_string function

 29 33  0  0  0  0  0  0  0  0999 V2000
   10.7215   -3.3326   17.6437 C   0  0  0  0  0  0  0  0  0  0  0  0
    9.9489   -3.4675   24.6487 N   0  0  0  0  0  0  0  0  0  0  0  0
   10.0172   -4.4740   17.4101 C   0  0  0  0  0  0  0  0  0  0  0  0
    6.9051   -7.9575   16.4222 C   0  0  0  0  0  0  0  0  0  0  0  0
    8.9969   -6.3552   17.9668 N   0  0  0  0  0  0  0  0  0  0  0  0
   10.6702   -3.9051   22.4070 C   0  0  0  0  0  0  0  0  0  0  0  0
   11.0625   -3.0028   18.8894 C   0  0  0  0  0  0  0  0  0  0  0  0
    5.6180   -7.9194   16.1754 O   0  0  0  0  0  0  0  0  0  0  0  0
    9.7259   -5.3080   18.4485 C   0  0  0  0  0  0  0  0  0  0  0  0
    9.4578   -5.0200   16.3036 N   0  0  0  0  0  0  0  0  0  0  0  0
    5.0287   -8.9365   16.8223 C   0  0  0  0  0  0  0  0  0  0  0  0
    8.7742   -6.1498   16.6764 C   0  0  0  0  0  0  0  0  0  0  0  0
   10.9418   -3.4032   21.2053 O   0  0  0  0  0  0  0  0  0  0  0  0
    1.4797   -8.6258   16.2950 C   0  0  0  0  0  0  0  0  0  0  0  0
    9.2861   -1.2743   25.3585 C   0  0  0  0  0  0  0  0  0  0  0  0
    1.8892  -10.3985   17.7511 N   0  0  0  0  0  0  0  0  0  0  0  0
    9.6210   -0.6952   24.0976 C   0  0  0  0  0  0  0  0  0  0  0  0
    7.0792   -9.0217   17.1429 C   0  0  0  0  0  0  0  0  0  0  0  0
    3.1713  -10.1816   17.6634 C   0  0  0  0  0  0  0  0  0  0  0  0
    2.7878   -8.3822   16.2137 C   0  0  0  0  0  0  0  0  0  0  0  0
    9.4601   -2.6590   25.6528 C   0  0  0  0  0  0  0  0  0  0  0  0
   10.1182   -1.5672   23.1165 C   0  0  0  0  0  0  0  0  0  0  0  0
    1.0552   -9.6360   17.0650 C   0  0  0  0  0  0  0  0  0  0  0  0
    3.6519   -9.1783   16.9039 C   0  0  0  0  0  0  0  0  0  0  0  0
    7.8675   -7.0096   15.9415 C   0  0  0  0  0  0  0  0  0  0  0  0
    5.9733   -9.6553   17.3832 N   0  0  0  0  0  0  0  0  0  0  0  0
   10.2411   -2.9363   23.4301 C   0  0  0  0  0  0  0  0  0  0  0  0
   10.7288   -3.8197   19.9525 C   0  0  0  0  0  0  0  0  0  0  0  0
   10.1189   -5.0054   19.6987 C   0  0  0  0  0  0  0  0  0  0  0  0
  1  3  4  0
  1  7  4  0
  2 21  4  0
  2 27  4  0
  3  9  4  0
  3 10  4  0
  4  8  4  0
  4 18  4  0
  4 25  1  0
  5  9  4  0
  5 12  4  0
  6 13  1  0
  6 27  1  0
  7 28  4  0
  8 11  4  0
  9 29  4  0
 10 12  4  0
 11 24  1  0
 11 26  4  0
 12 25  1  0
 13 28  1  0
 14 20  4  0
 14 23  4  0
 15 17  4  0
 15 21  4  0
 16 19  4  0
 16 23  4  0
 17 22  4  0
 18 26  4  0
 19 24  4  0
 20 24  4  0
 22 27  4  0
 28 29  4  0
M  END
$$$$

 Created by Python create_sdf_string function

 29 33  0  0  0  0  0  0  0  0999 V2000
   10.7215   -3.3326   17.6437 C   0  0  0  0  0  0  0  0  0  0  0  0
    9.9489   -3.4675   24.6487 N   0  0  0  0  0  0  0  0  0  0  0  0
   10.0172   -4.4740   17.4101 C   0  0  0  0  0  0  0  0  0  0  0  0
    6.9051   -7.9575   16.4222 C   0  0  0  0  0  0  0  0  0  0  0  0
    8.9969   -6.3552   17.9668 N   0  0  0  0  0  0  0  0  0  0  0  0
   10.6702   -3.9051   22.4070 C   0  0  0  0  0  0  0  0  0  0  0  0
   11.0625   -3.0028   18.8894 C   0  0  0  0  0  0  0  0  0  0  0  0
    5.6180   -7.9194   16.1754 O   0  0  0  0  0  0  0  0  0  0  0  0
    9.7259   -5.3080   18.4485 C   0  0  0  0  0  0  0  0  0  0  0  0
    9.4578   -5.0200   16.3036 N   0  0  0  0  0  0  0  0  0  0  0  0
    5.0287   -8.9365   16.8223 C   0  0  0  0  0  0  0  0  0  0  0  0
    8.7742   -6.1498   16.6764 C   0  0  0  0  0  0  0  0  0  0  0  0
   10.9418   -3.4032   21.2053 O   0  0  0  0  0  0  0  0  0  0  0  0
    1.4797   -8.6258   16.2950 C   0  0  0  0  0  0  0  0  0  0  0  0
    9.2861   -1.2743   25.3585 C   0  0  0  0  0  0  0  0  0  0  0  0
    1.8892  -10.3985   17.7511 N   0  0  0  0  0  0  0  0  0  0  0  0
    9.6210   -0.6952   24.0976 C   0  0  0  0  0  0  0  0  0  0  0  0
    7.0792   -9.0217   17.1429 C   0  0  0  0  0  0  0  0  0  0  0  0
    3.1713  -10.1816   17.6634 C   0  0  0  0  0  0  0  0  0  0  0  0
    2.7878   -8.3822   16.2137 C   0  0  0  0  0  0  0  0  0  0  0  0
    9.4601   -2.6590   25.6528 C   0  0  0  0  0  0  0  0  0  0  0  0
   10.1182   -1.5672   23.1165 C   0  0  0  0  0  0  0  0  0  0  0  0
    1.0552   -9.6360   17.0650 C   0  0  0  0  0  0  0  0  0  0  0  0
    3.6519   -9.1783   16.9039 C   0  0  0  0  0  0  0  0  0  0  0  0
    7.8675   -7.0096   15.9415 C   0  0  0  0  0  0  0  0  0  0  0  0
    5.9733   -9.6553   17.3832 N   0  0  0  0  0  0  0  0  0  0  0  0
   10.2411   -2.9363   23.4301 C   0  0  0  0  0  0  0  0  0  0  0  0
   10.7288   -3.8197   19.9525 C   0  0  0  0  0  0  0  0  0  0  0  0
   10.1189   -5.0054   19.6987 C   0  0  0  0  0  0  0  0  0  0  0  0
  1  3  4  0
  1  7  4  0
  2 21  4  0
  2 27  4  0
  3  9  4  0
  3 10  4  0
  4  8  4  0
  4 18  4  0
  4 25  1  0
  5  9  4  0
  5 12  4  0
  6 13  1  0
  6 27  1  0
  7 28  4  0
  8 11  4  0
  9 29  4  0
 10 12  4  0
 11 24  1  0
 11 26  4  0
 12 25  1  0
 13 28  1  0
 14 20  4  0
 14 23  4  0
 15 17  4  0
 15 21  4  0
 16 19  4  0
 16 23  4  0
 17 22  4  0
 18 26  4  0
 19 24  4  0
 20 24  4  0
 22 27  4  0
 28 29  4  0
M  END
$$$$

 Created by Python create_sdf_string function

 29 33  0  0  0  0  0  0  0  0999 V2000
   10.7215   -3.3326   17.6437 C   0  0  0  0  0  0  0  0  0  0  0  0
    9.9489   -3.4675   24.6487 N   0  0  0  0  0  0  0  0  0  0  0  0
   10.0172   -4.4740   17.4101 C   0  0  0  0  0  0  0  0  0  0  0  0
    6.9051   -7.9575   16.4222 C   0  0  0  0  0  0  0  0  0  0  0  0
    8.9969   -6.3552   17.9668 N   0  0  0  0  0  0  0  0  0  0  0  0
   10.6702   -3.9051   22.4070 C   0  0  0  0  0  0  0  0  0  0  0  0
   11.0625   -3.0028   18.8894 C   0  0  0  0  0  0  0  0  0  0  0  0
    5.6180   -7.9194   16.1754 O   0  0  0  0  0  0  0  0  0  0  0  0
    9.7259   -5.3080   18.4485 C   0  0  0  0  0  0  0  0  0  0  0  0
    9.4578   -5.0200   16.3036 N   0  0  0  0  0  0  0  0  0  0  0  0
    5.0287   -8.9365   16.8223 C   0  0  0  0  0  0  0  0  0  0  0  0
    8.7742   -6.1498   16.6764 C   0  0  0  0  0  0  0  0  0  0  0  0
   10.9418   -3.4032   21.2053 O   0  0  0  0  0  0  0  0  0  0  0  0
    1.4797   -8.6258   16.2950 C   0  0  0  0  0  0  0  0  0  0  0  0
    9.2861   -1.2743   25.3585 C   0  0  0  0  0  0  0  0  0  0  0  0
    1.8892  -10.3985   17.7511 N   0  0  0  0  0  0  0  0  0  0  0  0
    9.6210   -0.6952   24.0976 C   0  0  0  0  0  0  0  0  0  0  0  0
    7.0792   -9.0217   17.1429 C   0  0  0  0  0  0  0  0  0  0  0  0
    3.1713  -10.1816   17.6634 C   0  0  0  0  0  0  0  0  0  0  0  0
    2.7878   -8.3822   16.2137 C   0  0  0  0  0  0  0  0  0  0  0  0
    9.4601   -2.6590   25.6528 C   0  0  0  0  0  0  0  0  0  0  0  0
   10.1182   -1.5672   23.1165 C   0  0  0  0  0  0  0  0  0  0  0  0
    1.0552   -9.6360   17.0650 C   0  0  0  0  0  0  0  0  0  0  0  0
    3.6519   -9.1783   16.9039 C   0  0  0  0  0  0  0  0  0  0  0  0
    7.8675   -7.0096   15.9415 C   0  0  0  0  0  0  0  0  0  0  0  0
    5.9733   -9.6553   17.3832 N   0  0  0  0  0  0  0  0  0  0  0  0
   10.2411   -2.9363   23.4301 C   0  0  0  0  0  0  0  0  0  0  0  0
   10.7288   -3.8197   19.9525 C   0  0  0  0  0  0  0  0  0  0  0  0
   10.1189   -5.0054   19.6987 C   0  0  0  0  0  0  0  0  0  0  0  0
  1  3  4  0
  1  7  4  0
  2 21  4  0
  2 27  4  0
  3  9  4  0
  3 10  4  0
  4  8  4  0
  4 18  4  0
  4 25  1  0
  5  9  4  0
  5 12  4  0
  6 13  1  0
  6 27  1  0
  7 28  4  0
  8 11  4  0
  9 29  4  0
 10 12  4  0
 11 24  1  0
 11 26  4  0
 12 25  1  0
 13 28  1  0
 14 20  4  0
 14 23  4  0
 15 17  4  0
 15 21  4  0
 16 19  4  0
 16 23  4  0
 17 22  4  0
 18 26  4  0
 19 24  4  0
 20 24  4  0
 22 27  4  0
 28 29  4  0
M  END
$$$$

 Created by Python create_sdf_string function

 29 33  0  0  0  0  0  0  0  0999 V2000
   10.7215   -3.3326   17.6437 C   0  0  0  0  0  0  0  0  0  0  0  0
    9.9489   -3.4675   24.6487 N   0  0  0  0  0  0  0  0  0  0  0  0
   10.0172   -4.4740   17.4101 C   0  0  0  0  0  0  0  0  0  0  0  0
    6.9051   -7.9575   16.4222 C   0  0  0  0  0  0  0  0  0  0  0  0
    8.9969   -6.3552   17.9668 N   0  0  0  0  0  0  0  0  0  0  0  0
   10.6702   -3.9051   22.4070 C   0  0  0  0  0  0  0  0  0  0  0  0
   11.0625   -3.0028   18.8894 C   0  0  0  0  0  0  0  0  0  0  0  0
    5.6180   -7.9194   16.1754 O   0  0  0  0  0  0  0  0  0  0  0  0
    9.7259   -5.3080   18.4485 C   0  0  0  0  0  0  0  0  0  0  0  0
    9.4578   -5.0200   16.3036 N   0  0  0  0  0  0  0  0  0  0  0  0
    5.0287   -8.9365   16.8223 C   0  0  0  0  0  0  0  0  0  0  0  0
    8.7742   -6.1498   16.6764 C   0  0  0  0  0  0  0  0  0  0  0  0
   10.9418   -3.4032   21.2053 O   0  0  0  0  0  0  0  0  0  0  0  0
    1.4797   -8.6258   16.2950 C   0  0  0  0  0  0  0  0  0  0  0  0
    9.2861   -1.2743   25.3585 C   0  0  0  0  0  0  0  0  0  0  0  0
    1.8892  -10.3985   17.7511 N   0  0  0  0  0  0  0  0  0  0  0  0
    9.6210   -0.6952   24.0976 C   0  0  0  0  0  0  0  0  0  0  0  0
    7.0792   -9.0217   17.1429 C   0  0  0  0  0  0  0  0  0  0  0  0
    3.1713  -10.1816   17.6634 C   0  0  0  0  0  0  0  0  0  0  0  0
    2.7878   -8.3822   16.2137 C   0  0  0  0  0  0  0  0  0  0  0  0
    9.4601   -2.6590   25.6528 C   0  0  0  0  0  0  0  0  0  0  0  0
   10.1182   -1.5672   23.1165 C   0  0  0  0  0  0  0  0  0  0  0  0
    1.0552   -9.6360   17.0650 C   0  0  0  0  0  0  0  0  0  0  0  0
    3.6519   -9.1783   16.9039 C   0  0  0  0  0  0  0  0  0  0  0  0
    7.8675   -7.0096   15.9415 C   0  0  0  0  0  0  0  0  0  0  0  0
    5.9733   -9.6553   17.3832 N   0  0  0  0  0  0  0  0  0  0  0  0
   10.2411   -2.9363   23.4301 C   0  0  0  0  0  0  0  0  0  0  0  0
   10.7288   -3.8197   19.9525 C   0  0  0  0  0  0  0  0  0  0  0  0
   10.1189   -5.0054   19.6987 C   0  0  0  0  0  0  0  0  0  0  0  0
  1  3  4  0
  1  7  4  0
  2 21  4  0
  2 27  4  0
  3  9  4  0
  3 10  4  0
  4  8  4  0
  4 18  4  0
  4 25  1  0
  5  9  4  0
  5 12  4  0
  6 13  1  0
  6 27  1  0
  7 28  4  0
  8 11  4  0
  9 29  4  0
 10 12  4  0
 11 24  1  0
 11 26  4  0
 12 25  1  0
 13 28  1  0
 14 20  4  0
 14 23  4  0
 15 17  4  0
 15 21  4  0
 16 19  4  0
 16 23  4  0
 17 22  4  0
 18 26  4  0
 19 24  4  0
 20 24  4  0
 22 27  4  0
 28 29  4  0
M  END
$$$$

 Created by Python create_sdf_string function

 29 33  0  0  0  0  0  0  0  0999 V2000
   10.7215   -3.3326   17.6437 C   0  0  0  0  0  0  0  0  0  0  0  0
    9.9489   -3.4675   24.6487 N   0  0  0  0  0  0  0  0  0  0  0  0
   10.0172   -4.4740   17.4101 C   0  0  0  0  0  0  0  0  0  0  0  0
    6.9051   -7.9575   16.4222 C   0  0  0  0  0  0  0  0  0  0  0  0
    8.9969   -6.3552   17.9668 N   0  0  0  0  0  0  0  0  0  0  0  0
   10.6702   -3.9051   22.4070 C   0  0  0  0  0  0  0  0  0  0  0  0
   11.0625   -3.0028   18.8894 C   0  0  0  0  0  0  0  0  0  0  0  0
    5.6180   -7.9194   16.1754 O   0  0  0  0  0  0  0  0  0  0  0  0
    9.7259   -5.3080   18.4485 C   0  0  0  0  0  0  0  0  0  0  0  0
    9.4578   -5.0200   16.3036 N   0  0  0  0  0  0  0  0  0  0  0  0
    5.0287   -8.9365   16.8223 C   0  0  0  0  0  0  0  0  0  0  0  0
    8.7742   -6.1498   16.6764 C   0  0  0  0  0  0  0  0  0  0  0  0
   10.9418   -3.4032   21.2053 O   0  0  0  0  0  0  0  0  0  0  0  0
    1.4797   -8.6258   16.2950 C   0  0  0  0  0  0  0  0  0  0  0  0
    9.2861   -1.2743   25.3585 C   0  0  0  0  0  0  0  0  0  0  0  0
    1.8892  -10.3985   17.7511 N   0  0  0  0  0  0  0  0  0  0  0  0
    9.6210   -0.6952   24.0976 C   0  0  0  0  0  0  0  0  0  0  0  0
    7.0792   -9.0217   17.1429 C   0  0  0  0  0  0  0  0  0  0  0  0
    3.1713  -10.1816   17.6634 C   0  0  0  0  0  0  0  0  0  0  0  0
    2.7878   -8.3822   16.2137 C   0  0  0  0  0  0  0  0  0  0  0  0
    9.4601   -2.6590   25.6528 C   0  0  0  0  0  0  0  0  0  0  0  0
   10.1182   -1.5672   23.1165 C   0  0  0  0  0  0  0  0  0  0  0  0
    1.0552   -9.6360   17.0650 C   0  0  0  0  0  0  0  0  0  0  0  0
    3.6519   -9.1783   16.9039 C   0  0  0  0  0  0  0  0  0  0  0  0
    7.8675   -7.0096   15.9415 C   0  0  0  0  0  0  0  0  0  0  0  0
    5.9733   -9.6553   17.3832 N   0  0  0  0  0  0  0  0  0  0  0  0
   10.2411   -2.9363   23.4301 C   0  0  0  0  0  0  0  0  0  0  0  0
   10.7288   -3.8197   19.9525 C   0  0  0  0  0  0  0  0  0  0  0  0
   10.1189   -5.0054   19.6987 C   0  0  0  0  0  0  0  0  0  0  0  0
  1  3  4  0
  1  7  4  0
  2 21  4  0
  2 27  4  0
  3  9  4  0
  3 10  4  0
  4  8  4  0
  4 18  4  0
  4 25  1  0
  5  9  4  0
  5 12  4  0
  6 13  1  0
  6 27  1  0
  7 28  4  0
  8 11  4  0
  9 29  4  0
 10 12  4  0
 11 24  1  0
 11 26  4  0
 12 25  1  0
 13 28  1  0
 14 20  4  0
 14 23  4  0
 15 17  4  0
 15 21  4  0
 16 19  4  0
 16 23  4  0
 17 22  4  0
 18 26  4  0
 19 24  4  0
 20 24  4  0
 22 27  4  0
 28 29  4  0
M  END
$$$$

 Created by Python create_sdf_string function

 29 33  0  0  0  0  0  0  0  0999 V2000
   10.7215   -3.3326   17.6437 C   0  0  0  0  0  0  0  0  0  0  0  0
    9.9489   -3.4675   24.6487 N   0  0  0  0  0  0  0  0  0  0  0  0
   10.0172   -4.4740   17.4101 C   0  0  0  0  0  0  0  0  0  0  0  0
    6.9051   -7.9575   16.4222 C   0  0  0  0  0  0  0  0  0  0  0  0
    8.9969   -6.3552   17.9668 N   0  0  0  0  0  0  0  0  0  0  0  0
   10.6702   -3.9051   22.4070 C   0  0  0  0  0  0  0  0  0  0  0  0
   11.0625   -3.0028   18.8894 C   0  0  0  0  0  0  0  0  0  0  0  0
    5.6180   -7.9194   16.1754 O   0  0  0  0  0  0  0  0  0  0  0  0
    9.7259   -5.3080   18.4485 C   0  0  0  0  0  0  0  0  0  0  0  0
    9.4578   -5.0200   16.3036 N   0  0  0  0  0  0  0  0  0  0  0  0
    5.0287   -8.9365   16.8223 C   0  0  0  0  0  0  0  0  0  0  0  0
    8.7742   -6.1498   16.6764 C   0  0  0  0  0  0  0  0  0  0  0  0
   10.9418   -3.4032   21.2053 O   0  0  0  0  0  0  0  0  0  0  0  0
    1.4797   -8.6258   16.2950 C   0  0  0  0  0  0  0  0  0  0  0  0
    9.2861   -1.2743   25.3585 C   0  0  0  0  0  0  0  0  0  0  0  0
    1.8892  -10.3985   17.7511 N   0  0  0  0  0  0  0  0  0  0  0  0
    9.6210   -0.6952   24.0976 C   0  0  0  0  0  0  0  0  0  0  0  0
    7.0792   -9.0217   17.1429 C   0  0  0  0  0  0  0  0  0  0  0  0
    3.1713  -10.1816   17.6634 C   0  0  0  0  0  0  0  0  0  0  0  0
    2.7878   -8.3822   16.2137 C   0  0  0  0  0  0  0  0  0  0  0  0
    9.4601   -2.6590   25.6528 C   0  0  0  0  0  0  0  0  0  0  0  0
   10.1182   -1.5672   23.1165 C   0  0  0  0  0  0  0  0  0  0  0  0
    1.0552   -9.6360   17.0650 C   0  0  0  0  0  0  0  0  0  0  0  0
    3.6519   -9.1783   16.9039 C   0  0  0  0  0  0  0  0  0  0  0  0
    7.8675   -7.0096   15.9415 C   0  0  0  0  0  0  0  0  0  0  0  0
    5.9733   -9.6553   17.3832 N   0  0  0  0  0  0  0  0  0  0  0  0
   10.2411   -2.9363   23.4301 C   0  0  0  0  0  0  0  0  0  0  0  0
   10.7288   -3.8197   19.9525 C   0  0  0  0  0  0  0  0  0  0  0  0
   10.1189   -5.0054   19.6987 C   0  0  0  0  0  0  0  0  0  0  0  0
  1  3  4  0
  1  7  4  0
  2 21  4  0
  2 27  4  0
  3  9  4  0
  3 10  4  0
  4  8  4  0
  4 18  4  0
  4 25  1  0
  5  9  4  0
  5 12  4  0
  6 13  1  0
  6 27  1  0
  7 28  4  0
  8 11  4  0
  9 29  4  0
 10 12  4  0
 11 24  1  0
 11 26  4  0
 12 25  1  0
 13 28  1  0
 14 20  4  0
 14 23  4  0
 15 17  4  0
 15 21  4  0
 16 19  4  0
 16 23  4  0
 17 22  4  0
 18 26  4  0
 19 24  4  0
 20 24  4  0
 22 27  4  0
 28 29  4  0
M  END
$$$$

 Created by Python create_sdf_string function

 29 33  0  0  0  0  0  0  0  0999 V2000
   10.7215   -3.3326   17.6437 C   0  0  0  0  0  0  0  0  0  0  0  0
    9.9489   -3.4675   24.6487 N   0  0  0  0  0  0  0  0  0  0  0  0
   10.0172   -4.4740   17.4101 C   0  0  0  0  0  0  0  0  0  0  0  0
    6.9051   -7.9575   16.4222 C   0  0  0  0  0  0  0  0  0  0  0  0
    8.9969   -6.3552   17.9668 N   0  0  0  0  0  0  0  0  0  0  0  0
   10.6702   -3.9051   22.4070 C   0  0  0  0  0  0  0  0  0  0  0  0
   11.0625   -3.0028   18.8894 C   0  0  0  0  0  0  0  0  0  0  0  0
    5.6180   -7.9194   16.1754 O   0  0  0  0  0  0  0  0  0  0  0  0
    9.7259   -5.3080   18.4485 C   0  0  0  0  0  0  0  0  0  0  0  0
    9.4578   -5.0200   16.3036 N   0  0  0  0  0  0  0  0  0  0  0  0
    5.0287   -8.9365   16.8223 C   0  0  0  0  0  0  0  0  0  0  0  0
    8.7742   -6.1498   16.6764 C   0  0  0  0  0  0  0  0  0  0  0  0
   10.9418   -3.4032   21.2053 O   0  0  0  0  0  0  0  0  0  0  0  0
    1.4797   -8.6258   16.2950 C   0  0  0  0  0  0  0  0  0  0  0  0
    9.2861   -1.2743   25.3585 C   0  0  0  0  0  0  0  0  0  0  0  0
    1.8892  -10.3985   17.7511 N   0  0  0  0  0  0  0  0  0  0  0  0
    9.6210   -0.6952   24.0976 C   0  0  0  0  0  0  0  0  0  0  0  0
    7.0792   -9.0217   17.1429 C   0  0  0  0  0  0  0  0  0  0  0  0
    3.1713  -10.1816   17.6634 C   0  0  0  0  0  0  0  0  0  0  0  0
    2.7878   -8.3822   16.2137 C   0  0  0  0  0  0  0  0  0  0  0  0
    9.4601   -2.6590   25.6528 C   0  0  0  0  0  0  0  0  0  0  0  0
   10.1182   -1.5672   23.1165 C   0  0  0  0  0  0  0  0  0  0  0  0
    1.0552   -9.6360   17.0650 C   0  0  0  0  0  0  0  0  0  0  0  0
    3.6519   -9.1783   16.9039 C   0  0  0  0  0  0  0  0  0  0  0  0
    7.8675   -7.0096   15.9415 C   0  0  0  0  0  0  0  0  0  0  0  0
    5.9733   -9.6553   17.3832 N   0  0  0  0  0  0  0  0  0  0  0  0
   10.2411   -2.9363   23.4301 C   0  0  0  0  0  0  0  0  0  0  0  0
   10.7288   -3.8197   19.9525 C   0  0  0  0  0  0  0  0  0  0  0  0
   10.1189   -5.0054   19.6987 C   0  0  0  0  0  0  0  0  0  0  0  0
  1  3  4  0
  1  7  4  0
  2 21  4  0
  2 27  4  0
  3  9  4  0
  3 10  4  0
  4  8  4  0
  4 18  4  0
  4 25  1  0
  5  9  4  0
  5 12  4  0
  6 13  1  0
  6 27  1  0
  7 28  4  0
  8 11  4  0
  9 29  4  0
 10 12  4  0
 11 24  1  0
 11 26  4  0
 12 25  1  0
 13 28  1  0
 14 20  4  0
 14 23  4  0
 15 17  4  0
 15 21  4  0
 16 19  4  0
 16 23  4  0
 17 22  4  0
 18 26  4  0
 19 24  4  0
 20 24  4  0
 22 27  4  0
 28 29  4  0
M  END
$$$$

 Created by Python create_sdf_string function

 29 33  0  0  0  0  0  0  0  0999 V2000
   10.7215   -3.3326   17.6437 C   0  0  0  0  0  0  0  0  0  0  0  0
    9.9489   -3.4675   24.6487 N   0  0  0  0  0  0  0  0  0  0  0  0
   10.0172   -4.4740   17.4101 C   0  0  0  0  0  0  0  0  0  0  0  0
    6.9051   -7.9575   16.4222 C   0  0  0  0  0  0  0  0  0  0  0  0
    8.9969   -6.3552   17.9668 N   0  0  0  0  0  0  0  0  0  0  0  0
   10.6702   -3.9051   22.4070 C   0  0  0  0  0  0  0  0  0  0  0  0
   11.0625   -3.0028   18.8894 C   0  0  0  0  0  0  0  0  0  0  0  0
    5.6180   -7.9194   16.1754 O   0  0  0  0  0  0  0  0  0  0  0  0
    9.7259   -5.3080   18.4485 C   0  0  0  0  0  0  0  0  0  0  0  0
    9.4578   -5.0200   16.3036 N   0  0  0  0  0  0  0  0  0  0  0  0
    5.0287   -8.9365   16.8223 C   0  0  0  0  0  0  0  0  0  0  0  0
    8.7742   -6.1498   16.6764 C   0  0  0  0  0  0  0  0  0  0  0  0
   10.9418   -3.4032   21.2053 O   0  0  0  0  0  0  0  0  0  0  0  0
    1.4797   -8.6258   16.2950 C   0  0  0  0  0  0  0  0  0  0  0  0
    9.2861   -1.2743   25.3585 C   0  0  0  0  0  0  0  0  0  0  0  0
    1.8892  -10.3985   17.7511 N   0  0  0  0  0  0  0  0  0  0  0  0
    9.6210   -0.6952   24.0976 C   0  0  0  0  0  0  0  0  0  0  0  0
    7.0792   -9.0217   17.1429 C   0  0  0  0  0  0  0  0  0  0  0  0
    3.1713  -10.1816   17.6634 C   0  0  0  0  0  0  0  0  0  0  0  0
    2.7878   -8.3822   16.2137 C   0  0  0  0  0  0  0  0  0  0  0  0
    9.4601   -2.6590   25.6528 C   0  0  0  0  0  0  0  0  0  0  0  0
   10.1182   -1.5672   23.1165 C   0  0  0  0  0  0  0  0  0  0  0  0
    1.0552   -9.6360   17.0650 C   0  0  0  0  0  0  0  0  0  0  0  0
    3.6519   -9.1783   16.9039 C   0  0  0  0  0  0  0  0  0  0  0  0
    7.8675   -7.0096   15.9415 C   0  0  0  0  0  0  0  0  0  0  0  0
    5.9733   -9.6553   17.3832 N   0  0  0  0  0  0  0  0  0  0  0  0
   10.2411   -2.9363   23.4301 C   0  0  0  0  0  0  0  0  0  0  0  0
   10.7288   -3.8197   19.9525 C   0  0  0  0  0  0  0  0  0  0  0  0
   10.1189   -5.0054   19.6987 C   0  0  0  0  0  0  0  0  0  0  0  0
  1  3  4  0
  1  7  4  0
  2 21  4  0
  2 27  4  0
  3  9  4  0
  3 10  4  0
  4  8  4  0
  4 18  4  0
  4 25  1  0
  5  9  4  0
  5 12  4  0
  6 13  1  0
  6 27  1  0
  7 28  4  0
  8 11  4  0
  9 29  4  0
 10 12  4  0
 11 24  1  0
 11 26  4  0
 12 25  1  0
 13 28  1  0
 14 20  4  0
 14 23  4  0
 15 17  4  0
 15 21  4  0
 16 19  4  0
 16 23  4  0
 17 22  4  0
 18 26  4  0
 19 24  4  0
 20 24  4  0
 22 27  4  0
 28 29  4  0
M  END
$$$$

 Created by Python create_sdf_string function

 29 33  0  0  0  0  0  0  0  0999 V2000
   10.7215   -3.3326   17.6437 C   0  0  0  0  0  0  0  0  0  0  0  0
    9.9489   -3.4675   24.6487 N   0  0  0  0  0  0  0  0  0  0  0  0
   10.0172   -4.4740   17.4101 C   0  0  0  0  0  0  0  0  0  0  0  0
    6.9051   -7.9575   16.4222 C   0  0  0  0  0  0  0  0  0  0  0  0
    8.9969   -6.3552   17.9668 N   0  0  0  0  0  0  0  0  0  0  0  0
   10.6702   -3.9051   22.4070 C   0  0  0  0  0  0  0  0  0  0  0  0
   11.0625   -3.0028   18.8894 C   0  0  0  0  0  0  0  0  0  0  0  0
    5.6180   -7.9194   16.1754 O   0  0  0  0  0  0  0  0  0  0  0  0
    9.7259   -5.3080   18.4485 C   0  0  0  0  0  0  0  0  0  0  0  0
    9.4578   -5.0200   16.3036 N   0  0  0  0  0  0  0  0  0  0  0  0
    5.0287   -8.9365   16.8223 C   0  0  0  0  0  0  0  0  0  0  0  0
    8.7742   -6.1498   16.6764 C   0  0  0  0  0  0  0  0  0  0  0  0
   10.9418   -3.4032   21.2053 O   0  0  0  0  0  0  0  0  0  0  0  0
    1.4797   -8.6258   16.2950 C   0  0  0  0  0  0  0  0  0  0  0  0
    9.2861   -1.2743   25.3585 C   0  0  0  0  0  0  0  0  0  0  0  0
    1.8892  -10.3985   17.7511 N   0  0  0  0  0  0  0  0  0  0  0  0
    9.6210   -0.6952   24.0976 C   0  0  0  0  0  0  0  0  0  0  0  0
    7.0792   -9.0217   17.1429 C   0  0  0  0  0  0  0  0  0  0  0  0
    3.1713  -10.1816   17.6634 C   0  0  0  0  0  0  0  0  0  0  0  0
    2.7878   -8.3822   16.2137 C   0  0  0  0  0  0  0  0  0  0  0  0
    9.4601   -2.6590   25.6528 C   0  0  0  0  0  0  0  0  0  0  0  0
   10.1182   -1.5672   23.1165 C   0  0  0  0  0  0  0  0  0  0  0  0
    1.0552   -9.6360   17.0650 C   0  0  0  0  0  0  0  0  0  0  0  0
    3.6519   -9.1783   16.9039 C   0  0  0  0  0  0  0  0  0  0  0  0
    7.8675   -7.0096   15.9415 C   0  0  0  0  0  0  0  0  0  0  0  0
    5.9733   -9.6553   17.3832 N   0  0  0  0  0  0  0  0  0  0  0  0
   10.2411   -2.9363   23.4301 C   0  0  0  0  0  0  0  0  0  0  0  0
   10.7288   -3.8197   19.9525 C   0  0  0  0  0  0  0  0  0  0  0  0
   10.1189   -5.0054   19.6987 C   0  0  0  0  0  0  0  0  0  0  0  0
  1  3  4  0
  1  7  4  0
  2 21  4  0
  2 27  4  0
  3  9  4  0
  3 10  4  0
  4  8  4  0
  4 18  4  0
  4 25  1  0
  5  9  4  0
  5 12  4  0
  6 13  1  0
  6 27  1  0
  7 28  4  0
  8 11  4  0
  9 29  4  0
 10 12  4  0
 11 24  1  0
 11 26  4  0
 12 25  1  0
 13 28  1  0
 14 20  4  0
 14 23  4  0
 15 17  4  0
 15 21  4  0
 16 19  4  0
 16 23  4  0
 17 22  4  0
 18 26  4  0
 19 24  4  0
 20 24  4  0
 22 27  4  0
 28 29  4  0
M  END
$$$$

 Created by Python create_sdf_string function

 29 33  0  0  0  0  0  0  0  0999 V2000
   10.7215   -3.3326   17.6437 C   0  0  0  0  0  0  0  0  0  0  0  0
    9.9489   -3.4675   24.6487 N   0  0  0  0  0  0  0  0  0  0  0  0
   10.0172   -4.4740   17.4101 C   0  0  0  0  0  0  0  0  0  0  0  0
    6.9051   -7.9575   16.4222 C   0  0  0  0  0  0  0  0  0  0  0  0
    8.9969   -6.3552   17.9668 N   0  0  0  0  0  0  0  0  0  0  0  0
   10.6702   -3.9051   22.4070 C   0  0  0  0  0  0  0  0  0  0  0  0
   11.0625   -3.0028   18.8894 C   0  0  0  0  0  0  0  0  0  0  0  0
    5.6180   -7.9194   16.1754 O   0  0  0  0  0  0  0  0  0  0  0  0
    9.7259   -5.3080   18.4485 C   0  0  0  0  0  0  0  0  0  0  0  0
    9.4578   -5.0200   16.3036 N   0  0  0  0  0  0  0  0  0  0  0  0
    5.0287   -8.9365   16.8223 C   0  0  0  0  0  0  0  0  0  0  0  0
    8.7742   -6.1498   16.6764 C   0  0  0  0  0  0  0  0  0  0  0  0
   10.9418   -3.4032   21.2053 O   0  0  0  0  0  0  0  0  0  0  0  0
    1.4797   -8.6258   16.2950 C   0  0  0  0  0  0  0  0  0  0  0  0
    9.2861   -1.2743   25.3585 C   0  0  0  0  0  0  0  0  0  0  0  0
    1.8892  -10.3985   17.7511 N   0  0  0  0  0  0  0  0  0  0  0  0
    9.6210   -0.6952   24.0976 C   0  0  0  0  0  0  0  0  0  0  0  0
    7.0792   -9.0217   17.1429 C   0  0  0  0  0  0  0  0  0  0  0  0
    3.1713  -10.1816   17.6634 C   0  0  0  0  0  0  0  0  0  0  0  0
    2.7878   -8.3822   16.2137 C   0  0  0  0  0  0  0  0  0  0  0  0
    9.4601   -2.6590   25.6528 C   0  0  0  0  0  0  0  0  0  0  0  0
   10.1182   -1.5672   23.1165 C   0  0  0  0  0  0  0  0  0  0  0  0
    1.0552   -9.6360   17.0650 C   0  0  0  0  0  0  0  0  0  0  0  0
    3.6519   -9.1783   16.9039 C   0  0  0  0  0  0  0  0  0  0  0  0
    7.8675   -7.0096   15.9415 C   0  0  0  0  0  0  0  0  0  0  0  0
    5.9733   -9.6553   17.3832 N   0  0  0  0  0  0  0  0  0  0  0  0
   10.2411   -2.9363   23.4301 C   0  0  0  0  0  0  0  0  0  0  0  0
   10.7288   -3.8197   19.9525 C   0  0  0  0  0  0  0  0  0  0  0  0
   10.1189   -5.0054   19.6987 C   0  0  0  0  0  0  0  0  0  0  0  0
  1  3  4  0
  1  7  4  0
  2 21  4  0
  2 27  4  0
  3  9  4  0
  3 10  4  0
  4  8  4  0
  4 18  4  0
  4 25  1  0
  5  9  4  0
  5 12  4  0
  6 13  1  0
  6 27  1  0
  7 28  4  0
  8 11  4  0
  9 29  4  0
 10 12  4  0
 11 24  1  0
 11 26  4  0
 12 25  1  0
 13 28  1  0
 14 20  4  0
 14 23  4  0
 15 17  4  0
 15 21  4  0
 16 19  4  0
 16 23  4  0
 17 22  4  0
 18 26  4  0
 19 24  4  0
 20 24  4  0
 22 27  4  0
 28 29  4  0
M  END
$$$$

 Created by Python create_sdf_string function

 29 33  0  0  0  0  0  0  0  0999 V2000
   10.7215   -3.3326   17.6437 C   0  0  0  0  0  0  0  0  0  0  0  0
    9.9489   -3.4675   24.6487 N   0  0  0  0  0  0  0  0  0  0  0  0
   10.0172   -4.4740   17.4101 C   0  0  0  0  0  0  0  0  0  0  0  0
    6.9051   -7.9575   16.4222 C   0  0  0  0  0  0  0  0  0  0  0  0
    8.9969   -6.3552   17.9668 N   0  0  0  0  0  0  0  0  0  0  0  0
   10.6702   -3.9051   22.4070 C   0  0  0  0  0  0  0  0  0  0  0  0
   11.0625   -3.0028   18.8894 C   0  0  0  0  0  0  0  0  0  0  0  0
    5.6180   -7.9194   16.1754 O   0  0  0  0  0  0  0  0  0  0  0  0
    9.7259   -5.3080   18.4485 C   0  0  0  0  0  0  0  0  0  0  0  0
    9.4578   -5.0200   16.3036 N   0  0  0  0  0  0  0  0  0  0  0  0
    5.0287   -8.9365   16.8223 C   0  0  0  0  0  0  0  0  0  0  0  0
    8.7742   -6.1498   16.6764 C   0  0  0  0  0  0  0  0  0  0  0  0
   10.9418   -3.4032   21.2053 O   0  0  0  0  0  0  0  0  0  0  0  0
    1.4797   -8.6258   16.2950 C   0  0  0  0  0  0  0  0  0  0  0  0
    9.2861   -1.2743   25.3585 C   0  0  0  0  0  0  0  0  0  0  0  0
    1.8892  -10.3985   17.7511 N   0  0  0  0  0  0  0  0  0  0  0  0
    9.6210   -0.6952   24.0976 C   0  0  0  0  0  0  0  0  0  0  0  0
    7.0792   -9.0217   17.1429 C   0  0  0  0  0  0  0  0  0  0  0  0
    3.1713  -10.1816   17.6634 C   0  0  0  0  0  0  0  0  0  0  0  0
    2.7878   -8.3822   16.2137 C   0  0  0  0  0  0  0  0  0  0  0  0
    9.4601   -2.6590   25.6528 C   0  0  0  0  0  0  0  0  0  0  0  0
   10.1182   -1.5672   23.1165 C   0  0  0  0  0  0  0  0  0  0  0  0
    1.0552   -9.6360   17.0650 C   0  0  0  0  0  0  0  0  0  0  0  0
    3.6519   -9.1783   16.9039 C   0  0  0  0  0  0  0  0  0  0  0  0
    7.8675   -7.0096   15.9415 C   0  0  0  0  0  0  0  0  0  0  0  0
    5.9733   -9.6553   17.3832 N   0  0  0  0  0  0  0  0  0  0  0  0
   10.2411   -2.9363   23.4301 C   0  0  0  0  0  0  0  0  0  0  0  0
   10.7288   -3.8197   19.9525 C   0  0  0  0  0  0  0  0  0  0  0  0
   10.1189   -5.0054   19.6987 C   0  0  0  0  0  0  0  0  0  0  0  0
  1  3  4  0
  1  7  4  0
  2 21  4  0
  2 27  4  0
  3  9  4  0
  3 10  4  0
  4  8  4  0
  4 18  4  0
  4 25  1  0
  5  9  4  0
  5 12  4  0
  6 13  1  0
  6 27  1  0
  7 28  4  0
  8 11  4  0
  9 29  4  0
 10 12  4  0
 11 24  1  0
 11 26  4  0
 12 25  1  0
 13 28  1  0
 14 20  4  0
 14 23  4  0
 15 17  4  0
 15 21  4  0
 16 19  4  0
 16 23  4  0
 17 22  4  0
 18 26  4  0
 19 24  4  0
 20 24  4  0
 22 27  4  0
 28 29  4  0
M  END
$$$$

 Created by Python create_sdf_string function

 29 33  0  0  0  0  0  0  0  0999 V2000
   10.7215   -3.3326   17.6437 C   0  0  0  0  0  0  0  0  0  0  0  0
    9.9489   -3.4675   24.6487 N   0  0  0  0  0  0  0  0  0  0  0  0
   10.0172   -4.4740   17.4101 C   0  0  0  0  0  0  0  0  0  0  0  0
    6.9051   -7.9575   16.4222 C   0  0  0  0  0  0  0  0  0  0  0  0
    8.9969   -6.3552   17.9668 N   0  0  0  0  0  0  0  0  0  0  0  0
   10.6702   -3.9051   22.4070 C   0  0  0  0  0  0  0  0  0  0  0  0
   11.0625   -3.0028   18.8894 C   0  0  0  0  0  0  0  0  0  0  0  0
    5.6180   -7.9194   16.1754 O   0  0  0  0  0  0  0  0  0  0  0  0
    9.7259   -5.3080   18.4485 C   0  0  0  0  0  0  0  0  0  0  0  0
    9.4578   -5.0200   16.3036 N   0  0  0  0  0  0  0  0  0  0  0  0
    5.0287   -8.9365   16.8223 C   0  0  0  0  0  0  0  0  0  0  0  0
    8.7742   -6.1498   16.6764 C   0  0  0  0  0  0  0  0  0  0  0  0
   10.9418   -3.4032   21.2053 O   0  0  0  0  0  0  0  0  0  0  0  0
    1.4797   -8.6258   16.2950 C   0  0  0  0  0  0  0  0  0  0  0  0
    9.2861   -1.2743   25.3585 C   0  0  0  0  0  0  0  0  0  0  0  0
    1.8892  -10.3985   17.7511 N   0  0  0  0  0  0  0  0  0  0  0  0
    9.6210   -0.6952   24.0976 C   0  0  0  0  0  0  0  0  0  0  0  0
    7.0792   -9.0217   17.1429 C   0  0  0  0  0  0  0  0  0  0  0  0
    3.1713  -10.1816   17.6634 C   0  0  0  0  0  0  0  0  0  0  0  0
    2.7878   -8.3822   16.2137 C   0  0  0  0  0  0  0  0  0  0  0  0
    9.4601   -2.6590   25.6528 C   0  0  0  0  0  0  0  0  0  0  0  0
   10.1182   -1.5672   23.1165 C   0  0  0  0  0  0  0  0  0  0  0  0
    1.0552   -9.6360   17.0650 C   0  0  0  0  0  0  0  0  0  0  0  0
    3.6519   -9.1783   16.9039 C   0  0  0  0  0  0  0  0  0  0  0  0
    7.8675   -7.0096   15.9415 C   0  0  0  0  0  0  0  0  0  0  0  0
    5.9733   -9.6553   17.3832 N   0  0  0  0  0  0  0  0  0  0  0  0
   10.2411   -2.9363   23.4301 C   0  0  0  0  0  0  0  0  0  0  0  0
   10.7288   -3.8197   19.9525 C   0  0  0  0  0  0  0  0  0  0  0  0
   10.1189   -5.0054   19.6987 C   0  0  0  0  0  0  0  0  0  0  0  0
  1  3  4  0
  1  7  4  0
  2 21  4  0
  2 27  4  0
  3  9  4  0
  3 10  4  0
  4  8  4  0
  4 18  4  0
  4 25  1  0
  5  9  4  0
  5 12  4  0
  6 13  1  0
  6 27  1  0
  7 28  4  0
  8 11  4  0
  9 29  4  0
 10 12  4  0
 11 24  1  0
 11 26  4  0
 12 25  1  0
 13 28  1  0
 14 20  4  0
 14 23  4  0
 15 17  4  0
 15 21  4  0
 16 19  4  0
 16 23  4  0
 17 22  4  0
 18 26  4  0
 19 24  4  0
 20 24  4  0
 22 27  4  0
 28 29  4  0
M  END
$$$$

 Created by Python create_sdf_string function

 29 33  0  0  0  0  0  0  0  0999 V2000
   10.7215   -3.3326   17.6437 C   0  0  0  0  0  0  0  0  0  0  0  0
    9.9489   -3.4675   24.6487 N   0  0  0  0  0  0  0  0  0  0  0  0
   10.0172   -4.4740   17.4101 C   0  0  0  0  0  0  0  0  0  0  0  0
    6.9051   -7.9575   16.4222 C   0  0  0  0  0  0  0  0  0  0  0  0
    8.9969   -6.3552   17.9668 N   0  0  0  0  0  0  0  0  0  0  0  0
   10.6702   -3.9051   22.4070 C   0  0  0  0  0  0  0  0  0  0  0  0
   11.0625   -3.0028   18.8894 C   0  0  0  0  0  0  0  0  0  0  0  0
    5.6180   -7.9194   16.1754 O   0  0  0  0  0  0  0  0  0  0  0  0
    9.7259   -5.3080   18.4485 C   0  0  0  0  0  0  0  0  0  0  0  0
    9.4578   -5.0200   16.3036 N   0  0  0  0  0  0  0  0  0  0  0  0
    5.0287   -8.9365   16.8223 C   0  0  0  0  0  0  0  0  0  0  0  0
    8.7742   -6.1498   16.6764 C   0  0  0  0  0  0  0  0  0  0  0  0
   10.9418   -3.4032   21.2053 O   0  0  0  0  0  0  0  0  0  0  0  0
    1.4797   -8.6258   16.2950 C   0  0  0  0  0  0  0  0  0  0  0  0
    9.2861   -1.2743   25.3585 C   0  0  0  0  0  0  0  0  0  0  0  0
    1.8892  -10.3985   17.7511 N   0  0  0  0  0  0  0  0  0  0  0  0
    9.6210   -0.6952   24.0976 C   0  0  0  0  0  0  0  0  0  0  0  0
    7.0792   -9.0217   17.1429 C   0  0  0  0  0  0  0  0  0  0  0  0
    3.1713  -10.1816   17.6634 C   0  0  0  0  0  0  0  0  0  0  0  0
    2.7878   -8.3822   16.2137 C   0  0  0  0  0  0  0  0  0  0  0  0
    9.4601   -2.6590   25.6528 C   0  0  0  0  0  0  0  0  0  0  0  0
   10.1182   -1.5672   23.1165 C   0  0  0  0  0  0  0  0  0  0  0  0
    1.0552   -9.6360   17.0650 C   0  0  0  0  0  0  0  0  0  0  0  0
    3.6519   -9.1783   16.9039 C   0  0  0  0  0  0  0  0  0  0  0  0
    7.8675   -7.0096   15.9415 C   0  0  0  0  0  0  0  0  0  0  0  0
    5.9733   -9.6553   17.3832 N   0  0  0  0  0  0  0  0  0  0  0  0
   10.2411   -2.9363   23.4301 C   0  0  0  0  0  0  0  0  0  0  0  0
   10.7288   -3.8197   19.9525 C   0  0  0  0  0  0  0  0  0  0  0  0
   10.1189   -5.0054   19.6987 C   0  0  0  0  0  0  0  0  0  0  0  0
  1  3  4  0
  1  7  4  0
  2 21  4  0
  2 27  4  0
  3  9  4  0
  3 10  4  0
  4  8  4  0
  4 18  4  0
  4 25  1  0
  5  9  4  0
  5 12  4  0
  6 13  1  0
  6 27  1  0
  7 28  4  0
  8 11  4  0
  9 29  4  0
 10 12  4  0
 11 24  1  0
 11 26  4  0
 12 25  1  0
 13 28  1  0
 14 20  4  0
 14 23  4  0
 15 17  4  0
 15 21  4  0
 16 19  4  0
 16 23  4  0
 17 22  4  0
 18 26  4  0
 19 24  4  0
 20 24  4  0
 22 27  4  0
 28 29  4  0
M  END
$$$$

 Created by Python create_sdf_string function

 29 33  0  0  0  0  0  0  0  0999 V2000
   10.7215   -3.3326   17.6437 C   0  0  0  0  0  0  0  0  0  0  0  0
    9.9489   -3.4675   24.6487 N   0  0  0  0  0  0  0  0  0  0  0  0
   10.0172   -4.4740   17.4101 C   0  0  0  0  0  0  0  0  0  0  0  0
    6.9051   -7.9575   16.4222 C   0  0  0  0  0  0  0  0  0  0  0  0
    8.9969   -6.3552   17.9668 N   0  0  0  0  0  0  0  0  0  0  0  0
   10.6702   -3.9051   22.4070 C   0  0  0  0  0  0  0  0  0  0  0  0
   11.0625   -3.0028   18.8894 C   0  0  0  0  0  0  0  0  0  0  0  0
    5.6180   -7.9194   16.1754 O   0  0  0  0  0  0  0  0  0  0  0  0
    9.7259   -5.3080   18.4485 C   0  0  0  0  0  0  0  0  0  0  0  0
    9.4578   -5.0200   16.3036 N   0  0  0  0  0  0  0  0  0  0  0  0
    5.0287   -8.9365   16.8223 C   0  0  0  0  0  0  0  0  0  0  0  0
    8.7742   -6.1498   16.6764 C   0  0  0  0  0  0  0  0  0  0  0  0
   10.9418   -3.4032   21.2053 O   0  0  0  0  0  0  0  0  0  0  0  0
    1.4797   -8.6258   16.2950 C   0  0  0  0  0  0  0  0  0  0  0  0
    9.2861   -1.2743   25.3585 C   0  0  0  0  0  0  0  0  0  0  0  0
    1.8892  -10.3985   17.7511 N   0  0  0  0  0  0  0  0  0  0  0  0
    9.6210   -0.6952   24.0976 C   0  0  0  0  0  0  0  0  0  0  0  0
    7.0792   -9.0217   17.1429 C   0  0  0  0  0  0  0  0  0  0  0  0
    3.1713  -10.1816   17.6634 C   0  0  0  0  0  0  0  0  0  0  0  0
    2.7878   -8.3822   16.2137 C   0  0  0  0  0  0  0  0  0  0  0  0
    9.4601   -2.6590   25.6528 C   0  0  0  0  0  0  0  0  0  0  0  0
   10.1182   -1.5672   23.1165 C   0  0  0  0  0  0  0  0  0  0  0  0
    1.0552   -9.6360   17.0650 C   0  0  0  0  0  0  0  0  0  0  0  0
    3.6519   -9.1783   16.9039 C   0  0  0  0  0  0  0  0  0  0  0  0
    7.8675   -7.0096   15.9415 C   0  0  0  0  0  0  0  0  0  0  0  0
    5.9733   -9.6553   17.3832 N   0  0  0  0  0  0  0  0  0  0  0  0
   10.2411   -2.9363   23.4301 C   0  0  0  0  0  0  0  0  0  0  0  0
   10.7288   -3.8197   19.9525 C   0  0  0  0  0  0  0  0  0  0  0  0
   10.1189   -5.0054   19.6987 C   0  0  0  0  0  0  0  0  0  0  0  0
  1  3  4  0
  1  7  4  0
  2 21  4  0
  2 27  4  0
  3  9  4  0
  3 10  4  0
  4  8  4  0
  4 18  4  0
  4 25  1  0
  5  9  4  0
  5 12  4  0
  6 13  1  0
  6 27  1  0
  7 28  4  0
  8 11  4  0
  9 29  4  0
 10 12  4  0
 11 24  1  0
 11 26  4  0
 12 25  1  0
 13 28  1  0
 14 20  4  0
 14 23  4  0
 15 17  4  0
 15 21  4  0
 16 19  4  0
 16 23  4  0
 17 22  4  0
 18 26  4  0
 19 24  4  0
 20 24  4  0
 22 27  4  0
 28 29  4  0
M  END
$$$$

 Created by Python create_sdf_string function

 29 33  0  0  0  0  0  0  0  0999 V2000
   10.7215   -3.3326   17.6437 C   0  0  0  0  0  0  0  0  0  0  0  0
    9.9489   -3.4675   24.6487 N   0  0  0  0  0  0  0  0  0  0  0  0
   10.0172   -4.4740   17.4101 C   0  0  0  0  0  0  0  0  0  0  0  0
    6.9051   -7.9575   16.4222 C   0  0  0  0  0  0  0  0  0  0  0  0
    8.9969   -6.3552   17.9668 N   0  0  0  0  0  0  0  0  0  0  0  0
   10.6702   -3.9051   22.4070 C   0  0  0  0  0  0  0  0  0  0  0  0
   11.0625   -3.0028   18.8894 C   0  0  0  0  0  0  0  0  0  0  0  0
    5.6180   -7.9194   16.1754 O   0  0  0  0  0  0  0  0  0  0  0  0
    9.7259   -5.3080   18.4485 C   0  0  0  0  0  0  0  0  0  0  0  0
    9.4578   -5.0200   16.3036 N   0  0  0  0  0  0  0  0  0  0  0  0
    5.0287   -8.9365   16.8223 C   0  0  0  0  0  0  0  0  0  0  0  0
    8.7742   -6.1498   16.6764 C   0  0  0  0  0  0  0  0  0  0  0  0
   10.9418   -3.4032   21.2053 O   0  0  0  0  0  0  0  0  0  0  0  0
    1.4797   -8.6258   16.2950 C   0  0  0  0  0  0  0  0  0  0  0  0
    9.2861   -1.2743   25.3585 C   0  0  0  0  0  0  0  0  0  0  0  0
    1.8892  -10.3985   17.7511 N   0  0  0  0  0  0  0  0  0  0  0  0
    9.6210   -0.6952   24.0976 C   0  0  0  0  0  0  0  0  0  0  0  0
    7.0792   -9.0217   17.1429 C   0  0  0  0  0  0  0  0  0  0  0  0
    3.1713  -10.1816   17.6634 C   0  0  0  0  0  0  0  0  0  0  0  0
    2.7878   -8.3822   16.2137 C   0  0  0  0  0  0  0  0  0  0  0  0
    9.4601   -2.6590   25.6528 C   0  0  0  0  0  0  0  0  0  0  0  0
   10.1182   -1.5672   23.1165 C   0  0  0  0  0  0  0  0  0  0  0  0
    1.0552   -9.6360   17.0650 C   0  0  0  0  0  0  0  0  0  0  0  0
    3.6519   -9.1783   16.9039 C   0  0  0  0  0  0  0  0  0  0  0  0
    7.8675   -7.0096   15.9415 C   0  0  0  0  0  0  0  0  0  0  0  0
    5.9733   -9.6553   17.3832 N   0  0  0  0  0  0  0  0  0  0  0  0
   10.2411   -2.9363   23.4301 C   0  0  0  0  0  0  0  0  0  0  0  0
   10.7288   -3.8197   19.9525 C   0  0  0  0  0  0  0  0  0  0  0  0
   10.1189   -5.0054   19.6987 C   0  0  0  0  0  0  0  0  0  0  0  0
  1  3  4  0
  1  7  4  0
  2 21  4  0
  2 27  4  0
  3  9  4  0
  3 10  4  0
  4  8  4  0
  4 18  4  0
  4 25  1  0
  5  9  4  0
  5 12  4  0
  6 13  1  0
  6 27  1  0
  7 28  4  0
  8 11  4  0
  9 29  4  0
 10 12  4  0
 11 24  1  0
 11 26  4  0
 12 25  1  0
 13 28  1  0
 14 20  4  0
 14 23  4  0
 15 17  4  0
 15 21  4  0
 16 19  4  0
 16 23  4  0
 17 22  4  0
 18 26  4  0
 19 24  4  0
 20 24  4  0
 22 27  4  0
 28 29  4  0
M  END
$$$$

 Created by Python create_sdf_string function

 29 33  0  0  0  0  0  0  0  0999 V2000
   10.7215   -3.3326   17.6437 C   0  0  0  0  0  0  0  0  0  0  0  0
    9.9489   -3.4675   24.6487 N   0  0  0  0  0  0  0  0  0  0  0  0
   10.0172   -4.4740   17.4101 C   0  0  0  0  0  0  0  0  0  0  0  0
    6.9051   -7.9575   16.4222 C   0  0  0  0  0  0  0  0  0  0  0  0
    8.9969   -6.3552   17.9668 N   0  0  0  0  0  0  0  0  0  0  0  0
   10.6702   -3.9051   22.4070 C   0  0  0  0  0  0  0  0  0  0  0  0
   11.0625   -3.0028   18.8894 C   0  0  0  0  0  0  0  0  0  0  0  0
    5.6180   -7.9194   16.1754 O   0  0  0  0  0  0  0  0  0  0  0  0
    9.7259   -5.3080   18.4485 C   0  0  0  0  0  0  0  0  0  0  0  0
    9.4578   -5.0200   16.3036 N   0  0  0  0  0  0  0  0  0  0  0  0
    5.0287   -8.9365   16.8223 C   0  0  0  0  0  0  0  0  0  0  0  0
    8.7742   -6.1498   16.6764 C   0  0  0  0  0  0  0  0  0  0  0  0
   10.9418   -3.4032   21.2053 O   0  0  0  0  0  0  0  0  0  0  0  0
    1.4797   -8.6258   16.2950 C   0  0  0  0  0  0  0  0  0  0  0  0
    9.2861   -1.2743   25.3585 C   0  0  0  0  0  0  0  0  0  0  0  0
    1.8892  -10.3985   17.7511 N   0  0  0  0  0  0  0  0  0  0  0  0
    9.6210   -0.6952   24.0976 C   0  0  0  0  0  0  0  0  0  0  0  0
    7.0792   -9.0217   17.1429 C   0  0  0  0  0  0  0  0  0  0  0  0
    3.1713  -10.1816   17.6634 C   0  0  0  0  0  0  0  0  0  0  0  0
    2.7878   -8.3822   16.2137 C   0  0  0  0  0  0  0  0  0  0  0  0
    9.4601   -2.6590   25.6528 C   0  0  0  0  0  0  0  0  0  0  0  0
   10.1182   -1.5672   23.1165 C   0  0  0  0  0  0  0  0  0  0  0  0
    1.0552   -9.6360   17.0650 C   0  0  0  0  0  0  0  0  0  0  0  0
    3.6519   -9.1783   16.9039 C   0  0  0  0  0  0  0  0  0  0  0  0
    7.8675   -7.0096   15.9415 C   0  0  0  0  0  0  0  0  0  0  0  0
    5.9733   -9.6553   17.3832 N   0  0  0  0  0  0  0  0  0  0  0  0
   10.2411   -2.9363   23.4301 C   0  0  0  0  0  0  0  0  0  0  0  0
   10.7288   -3.8197   19.9525 C   0  0  0  0  0  0  0  0  0  0  0  0
   10.1189   -5.0054   19.6987 C   0  0  0  0  0  0  0  0  0  0  0  0
  1  3  4  0
  1  7  4  0
  2 21  4  0
  2 27  4  0
  3  9  4  0
  3 10  4  0
  4  8  4  0
  4 18  4  0
  4 25  1  0
  5  9  4  0
  5 12  4  0
  6 13  1  0
  6 27  1  0
  7 28  4  0
  8 11  4  0
  9 29  4  0
 10 12  4  0
 11 24  1  0
 11 26  4  0
 12 25  1  0
 13 28  1  0
 14 20  4  0
 14 23  4  0
 15 17  4  0
 15 21  4  0
 16 19  4  0
 16 23  4  0
 17 22  4  0
 18 26  4  0
 19 24  4  0
 20 24  4  0
 22 27  4  0
 28 29  4  0
M  END
$$$$

 Created by Python create_sdf_string function

 29 33  0  0  0  0  0  0  0  0999 V2000
   10.7215   -3.3326   17.6437 C   0  0  0  0  0  0  0  0  0  0  0  0
    9.9489   -3.4675   24.6487 N   0  0  0  0  0  0  0  0  0  0  0  0
   10.0172   -4.4740   17.4101 C   0  0  0  0  0  0  0  0  0  0  0  0
    6.9051   -7.9575   16.4222 C   0  0  0  0  0  0  0  0  0  0  0  0
    8.9969   -6.3552   17.9668 N   0  0  0  0  0  0  0  0  0  0  0  0
   10.6702   -3.9051   22.4070 C   0  0  0  0  0  0  0  0  0  0  0  0
   11.0625   -3.0028   18.8894 C   0  0  0  0  0  0  0  0  0  0  0  0
    5.6180   -7.9194   16.1754 O   0  0  0  0  0  0  0  0  0  0  0  0
    9.7259   -5.3080   18.4485 C   0  0  0  0  0  0  0  0  0  0  0  0
    9.4578   -5.0200   16.3036 N   0  0  0  0  0  0  0  0  0  0  0  0
    5.0287   -8.9365   16.8223 C   0  0  0  0  0  0  0  0  0  0  0  0
    8.7742   -6.1498   16.6764 C   0  0  0  0  0  0  0  0  0  0  0  0
   10.9418   -3.4032   21.2053 O   0  0  0  0  0  0  0  0  0  0  0  0
    1.4797   -8.6258   16.2950 C   0  0  0  0  0  0  0  0  0  0  0  0
    9.2861   -1.2743   25.3585 C   0  0  0  0  0  0  0  0  0  0  0  0
    1.8892  -10.3985   17.7511 N   0  0  0  0  0  0  0  0  0  0  0  0
    9.6210   -0.6952   24.0976 C   0  0  0  0  0  0  0  0  0  0  0  0
    7.0792   -9.0217   17.1429 C   0  0  0  0  0  0  0  0  0  0  0  0
    3.1713  -10.1816   17.6634 C   0  0  0  0  0  0  0  0  0  0  0  0
    2.7878   -8.3822   16.2137 C   0  0  0  0  0  0  0  0  0  0  0  0
    9.4601   -2.6590   25.6528 C   0  0  0  0  0  0  0  0  0  0  0  0
   10.1182   -1.5672   23.1165 C   0  0  0  0  0  0  0  0  0  0  0  0
    1.0552   -9.6360   17.0650 C   0  0  0  0  0  0  0  0  0  0  0  0
    3.6519   -9.1783   16.9039 C   0  0  0  0  0  0  0  0  0  0  0  0
    7.8675   -7.0096   15.9415 C   0  0  0  0  0  0  0  0  0  0  0  0
    5.9733   -9.6553   17.3832 N   0  0  0  0  0  0  0  0  0  0  0  0
   10.2411   -2.9363   23.4301 C   0  0  0  0  0  0  0  0  0  0  0  0
   10.7288   -3.8197   19.9525 C   0  0  0  0  0  0  0  0  0  0  0  0
   10.1189   -5.0054   19.6987 C   0  0  0  0  0  0  0  0  0  0  0  0
  1  3  4  0
  1  7  4  0
  2 21  4  0
  2 27  4  0
  3  9  4  0
  3 10  4  0
  4  8  4  0
  4 18  4  0
  4 25  1  0
  5  9  4  0
  5 12  4  0
  6 13  1  0
  6 27  1  0
  7 28  4  0
  8 11  4  0
  9 29  4  0
 10 12  4  0
 11 24  1  0
 11 26  4  0
 12 25  1  0
 13 28  1  0
 14 20  4  0
 14 23  4  0
 15 17  4  0
 15 21  4  0
 16 19  4  0
 16 23  4  0
 17 22  4  0
 18 26  4  0
 19 24  4  0
 20 24  4  0
 22 27  4  0
 28 29  4  0
M  END
$$$$

 Created by Python create_sdf_string function

 29 33  0  0  0  0  0  0  0  0999 V2000
   10.7215   -3.3326   17.6437 C   0  0  0  0  0  0  0  0  0  0  0  0
    9.9489   -3.4675   24.6487 N   0  0  0  0  0  0  0  0  0  0  0  0
   10.0172   -4.4740   17.4101 C   0  0  0  0  0  0  0  0  0  0  0  0
    6.9051   -7.9575   16.4222 C   0  0  0  0  0  0  0  0  0  0  0  0
    8.9969   -6.3552   17.9668 N   0  0  0  0  0  0  0  0  0  0  0  0
   10.6702   -3.9051   22.4070 C   0  0  0  0  0  0  0  0  0  0  0  0
   11.0625   -3.0028   18.8894 C   0  0  0  0  0  0  0  0  0  0  0  0
    5.6180   -7.9194   16.1754 O   0  0  0  0  0  0  0  0  0  0  0  0
    9.7259   -5.3080   18.4485 C   0  0  0  0  0  0  0  0  0  0  0  0
    9.4578   -5.0200   16.3036 N   0  0  0  0  0  0  0  0  0  0  0  0
    5.0287   -8.9365   16.8223 C   0  0  0  0  0  0  0  0  0  0  0  0
    8.7742   -6.1498   16.6764 C   0  0  0  0  0  0  0  0  0  0  0  0
   10.9418   -3.4032   21.2053 O   0  0  0  0  0  0  0  0  0  0  0  0
    1.4797   -8.6258   16.2950 C   0  0  0  0  0  0  0  0  0  0  0  0
    9.2861   -1.2743   25.3585 C   0  0  0  0  0  0  0  0  0  0  0  0
    1.8892  -10.3985   17.7511 N   0  0  0  0  0  0  0  0  0  0  0  0
    9.6210   -0.6952   24.0976 C   0  0  0  0  0  0  0  0  0  0  0  0
    7.0792   -9.0217   17.1429 C   0  0  0  0  0  0  0  0  0  0  0  0
    3.1713  -10.1816   17.6634 C   0  0  0  0  0  0  0  0  0  0  0  0
    2.7878   -8.3822   16.2137 C   0  0  0  0  0  0  0  0  0  0  0  0
    9.4601   -2.6590   25.6528 C   0  0  0  0  0  0  0  0  0  0  0  0
   10.1182   -1.5672   23.1165 C   0  0  0  0  0  0  0  0  0  0  0  0
    1.0552   -9.6360   17.0650 C   0  0  0  0  0  0  0  0  0  0  0  0
    3.6519   -9.1783   16.9039 C   0  0  0  0  0  0  0  0  0  0  0  0
    7.8675   -7.0096   15.9415 C   0  0  0  0  0  0  0  0  0  0  0  0
    5.9733   -9.6553   17.3832 N   0  0  0  0  0  0  0  0  0  0  0  0
   10.2411   -2.9363   23.4301 C   0  0  0  0  0  0  0  0  0  0  0  0
   10.7288   -3.8197   19.9525 C   0  0  0  0  0  0  0  0  0  0  0  0
   10.1189   -5.0054   19.6987 C   0  0  0  0  0  0  0  0  0  0  0  0
  1  3  4  0
  1  7  4  0
  2 21  4  0
  2 27  4  0
  3  9  4  0
  3 10  4  0
  4  8  4  0
  4 18  4  0
  4 25  1  0
  5  9  4  0
  5 12  4  0
  6 13  1  0
  6 27  1  0
  7 28  4  0
  8 11  4  0
  9 29  4  0
 10 12  4  0
 11 24  1  0
 11 26  4  0
 12 25  1  0
 13 28  1  0
 14 20  4  0
 14 23  4  0
 15 17  4  0
 15 21  4  0
 16 19  4  0
 16 23  4  0
 17 22  4  0
 18 26  4  0
 19 24  4  0
 20 24  4  0
 22 27  4  0
 28 29  4  0
M  END
$$$$

 Created by Python create_sdf_string function

 29 33  0  0  0  0  0  0  0  0999 V2000
   10.7215   -3.3326   17.6437 C   0  0  0  0  0  0  0  0  0  0  0  0
    9.9489   -3.4675   24.6487 N   0  0  0  0  0  0  0  0  0  0  0  0
   10.0172   -4.4740   17.4101 C   0  0  0  0  0  0  0  0  0  0  0  0
    6.9051   -7.9575   16.4222 C   0  0  0  0  0  0  0  0  0  0  0  0
    8.9969   -6.3552   17.9668 N   0  0  0  0  0  0  0  0  0  0  0  0
   10.6702   -3.9051   22.4070 C   0  0  0  0  0  0  0  0  0  0  0  0
   11.0625   -3.0028   18.8894 C   0  0  0  0  0  0  0  0  0  0  0  0
    5.6180   -7.9194   16.1754 O   0  0  0  0  0  0  0  0  0  0  0  0
    9.7259   -5.3080   18.4485 C   0  0  0  0  0  0  0  0  0  0  0  0
    9.4578   -5.0200   16.3036 N   0  0  0  0  0  0  0  0  0  0  0  0
    5.0287   -8.9365   16.8223 C   0  0  0  0  0  0  0  0  0  0  0  0
    8.7742   -6.1498   16.6764 C   0  0  0  0  0  0  0  0  0  0  0  0
   10.9418   -3.4032   21.2053 O   0  0  0  0  0  0  0  0  0  0  0  0
    1.4797   -8.6258   16.2950 C   0  0  0  0  0  0  0  0  0  0  0  0
    9.2861   -1.2743   25.3585 C   0  0  0  0  0  0  0  0  0  0  0  0
    1.8892  -10.3985   17.7511 N   0  0  0  0  0  0  0  0  0  0  0  0
    9.6210   -0.6952   24.0976 C   0  0  0  0  0  0  0  0  0  0  0  0
    7.0792   -9.0217   17.1429 C   0  0  0  0  0  0  0  0  0  0  0  0
    3.1713  -10.1816   17.6634 C   0  0  0  0  0  0  0  0  0  0  0  0
    2.7878   -8.3822   16.2137 C   0  0  0  0  0  0  0  0  0  0  0  0
    9.4601   -2.6590   25.6528 C   0  0  0  0  0  0  0  0  0  0  0  0
   10.1182   -1.5672   23.1165 C   0  0  0  0  0  0  0  0  0  0  0  0
    1.0552   -9.6360   17.0650 C   0  0  0  0  0  0  0  0  0  0  0  0
    3.6519   -9.1783   16.9039 C   0  0  0  0  0  0  0  0  0  0  0  0
    7.8675   -7.0096   15.9415 C   0  0  0  0  0  0  0  0  0  0  0  0
    5.9733   -9.6553   17.3832 N   0  0  0  0  0  0  0  0  0  0  0  0
   10.2411   -2.9363   23.4301 C   0  0  0  0  0  0  0  0  0  0  0  0
   10.7288   -3.8197   19.9525 C   0  0  0  0  0  0  0  0  0  0  0  0
   10.1189   -5.0054   19.6987 C   0  0  0  0  0  0  0  0  0  0  0  0
  1  3  4  0
  1  7  4  0
  2 21  4  0
  2 27  4  0
  3  9  4  0
  3 10  4  0
  4  8  4  0
  4 18  4  0
  4 25  1  0
  5  9  4  0
  5 12  4  0
  6 13  1  0
  6 27  1  0
  7 28  4  0
  8 11  4  0
  9 29  4  0
 10 12  4  0
 11 24  1  0
 11 26  4  0
 12 25  1  0
 13 28  1  0
 14 20  4  0
 14 23  4  0
 15 17  4  0
 15 21  4  0
 16 19  4  0
 16 23  4  0
 17 22  4  0
 18 26  4  0
 19 24  4  0
 20 24  4  0
 22 27  4  0
 28 29  4  0
M  END
$$$$

 Created by Python create_sdf_string function

 29 33  0  0  0  0  0  0  0  0999 V2000
   10.7215   -3.3326   17.6437 C   0  0  0  0  0  0  0  0  0  0  0  0
    9.9489   -3.4675   24.6487 N   0  0  0  0  0  0  0  0  0  0  0  0
   10.0172   -4.4740   17.4101 C   0  0  0  0  0  0  0  0  0  0  0  0
    6.9051   -7.9575   16.4222 C   0  0  0  0  0  0  0  0  0  0  0  0
    8.9969   -6.3552   17.9668 N   0  0  0  0  0  0  0  0  0  0  0  0
   10.6702   -3.9051   22.4070 C   0  0  0  0  0  0  0  0  0  0  0  0
   11.0625   -3.0028   18.8894 C   0  0  0  0  0  0  0  0  0  0  0  0
    5.6180   -7.9194   16.1754 O   0  0  0  0  0  0  0  0  0  0  0  0
    9.7259   -5.3080   18.4485 C   0  0  0  0  0  0  0  0  0  0  0  0
    9.4578   -5.0200   16.3036 N   0  0  0  0  0  0  0  0  0  0  0  0
    5.0287   -8.9365   16.8223 C   0  0  0  0  0  0  0  0  0  0  0  0
    8.7742   -6.1498   16.6764 C   0  0  0  0  0  0  0  0  0  0  0  0
   10.9418   -3.4032   21.2053 O   0  0  0  0  0  0  0  0  0  0  0  0
    1.4797   -8.6258   16.2950 C   0  0  0  0  0  0  0  0  0  0  0  0
    9.2861   -1.2743   25.3585 C   0  0  0  0  0  0  0  0  0  0  0  0
    1.8892  -10.3985   17.7511 N   0  0  0  0  0  0  0  0  0  0  0  0
    9.6210   -0.6952   24.0976 C   0  0  0  0  0  0  0  0  0  0  0  0
    7.0792   -9.0217   17.1429 C   0  0  0  0  0  0  0  0  0  0  0  0
    3.1713  -10.1816   17.6634 C   0  0  0  0  0  0  0  0  0  0  0  0
    2.7878   -8.3822   16.2137 C   0  0  0  0  0  0  0  0  0  0  0  0
    9.4601   -2.6590   25.6528 C   0  0  0  0  0  0  0  0  0  0  0  0
   10.1182   -1.5672   23.1165 C   0  0  0  0  0  0  0  0  0  0  0  0
    1.0552   -9.6360   17.0650 C   0  0  0  0  0  0  0  0  0  0  0  0
    3.6519   -9.1783   16.9039 C   0  0  0  0  0  0  0  0  0  0  0  0
    7.8675   -7.0096   15.9415 C   0  0  0  0  0  0  0  0  0  0  0  0
    5.9733   -9.6553   17.3832 N   0  0  0  0  0  0  0  0  0  0  0  0
   10.2411   -2.9363   23.4301 C   0  0  0  0  0  0  0  0  0  0  0  0
   10.7288   -3.8197   19.9525 C   0  0  0  0  0  0  0  0  0  0  0  0
   10.1189   -5.0054   19.6987 C   0  0  0  0  0  0  0  0  0  0  0  0
  1  3  4  0
  1  7  4  0
  2 21  4  0
  2 27  4  0
  3  9  4  0
  3 10  4  0
  4  8  4  0
  4 18  4  0
  4 25  1  0
  5  9  4  0
  5 12  4  0
  6 13  1  0
  6 27  1  0
  7 28  4  0
  8 11  4  0
  9 29  4  0
 10 12  4  0
 11 24  1  0
 11 26  4  0
 12 25  1  0
 13 28  1  0
 14 20  4  0
 14 23  4  0
 15 17  4  0
 15 21  4  0
 16 19  4  0
 16 23  4  0
 17 22  4  0
 18 26  4  0
 19 24  4  0
 20 24  4  0
 22 27  4  0
 28 29  4  0
M  END
$$$$

 Created by Python create_sdf_string function

 29 33  0  0  0  0  0  0  0  0999 V2000
   10.7215   -3.3326   17.6437 C   0  0  0  0  0  0  0  0  0  0  0  0
    9.9489   -3.4675   24.6487 N   0  0  0  0  0  0  0  0  0  0  0  0
   10.0172   -4.4740   17.4101 C   0  0  0  0  0  0  0  0  0  0  0  0
    6.9051   -7.9575   16.4222 C   0  0  0  0  0  0  0  0  0  0  0  0
    8.9969   -6.3552   17.9668 N   0  0  0  0  0  0  0  0  0  0  0  0
   10.6702   -3.9051   22.4070 C   0  0  0  0  0  0  0  0  0  0  0  0
   11.0625   -3.0028   18.8894 C   0  0  0  0  0  0  0  0  0  0  0  0
    5.6180   -7.9194   16.1754 O   0  0  0  0  0  0  0  0  0  0  0  0
    9.7259   -5.3080   18.4485 C   0  0  0  0  0  0  0  0  0  0  0  0
    9.4578   -5.0200   16.3036 N   0  0  0  0  0  0  0  0  0  0  0  0
    5.0287   -8.9365   16.8223 C   0  0  0  0  0  0  0  0  0  0  0  0
    8.7742   -6.1498   16.6764 C   0  0  0  0  0  0  0  0  0  0  0  0
   10.9418   -3.4032   21.2053 O   0  0  0  0  0  0  0  0  0  0  0  0
    1.4797   -8.6258   16.2950 C   0  0  0  0  0  0  0  0  0  0  0  0
    9.2861   -1.2743   25.3585 C   0  0  0  0  0  0  0  0  0  0  0  0
    1.8892  -10.3985   17.7511 N   0  0  0  0  0  0  0  0  0  0  0  0
    9.6210   -0.6952   24.0976 C   0  0  0  0  0  0  0  0  0  0  0  0
    7.0792   -9.0217   17.1429 C   0  0  0  0  0  0  0  0  0  0  0  0
    3.1713  -10.1816   17.6634 C   0  0  0  0  0  0  0  0  0  0  0  0
    2.7878   -8.3822   16.2137 C   0  0  0  0  0  0  0  0  0  0  0  0
    9.4601   -2.6590   25.6528 C   0  0  0  0  0  0  0  0  0  0  0  0
   10.1182   -1.5672   23.1165 C   0  0  0  0  0  0  0  0  0  0  0  0
    1.0552   -9.6360   17.0650 C   0  0  0  0  0  0  0  0  0  0  0  0
    3.6519   -9.1783   16.9039 C   0  0  0  0  0  0  0  0  0  0  0  0
    7.8675   -7.0096   15.9415 C   0  0  0  0  0  0  0  0  0  0  0  0
    5.9733   -9.6553   17.3832 N   0  0  0  0  0  0  0  0  0  0  0  0
   10.2411   -2.9363   23.4301 C   0  0  0  0  0  0  0  0  0  0  0  0
   10.7288   -3.8197   19.9525 C   0  0  0  0  0  0  0  0  0  0  0  0
   10.1189   -5.0054   19.6987 C   0  0  0  0  0  0  0  0  0  0  0  0
  1  3  4  0
  1  7  4  0
  2 21  4  0
  2 27  4  0
  3  9  4  0
  3 10  4  0
  4  8  4  0
  4 18  4  0
  4 25  1  0
  5  9  4  0
  5 12  4  0
  6 13  1  0
  6 27  1  0
  7 28  4  0
  8 11  4  0
  9 29  4  0
 10 12  4  0
 11 24  1  0
 11 26  4  0
 12 25  1  0
 13 28  1  0
 14 20  4  0
 14 23  4  0
 15 17  4  0
 15 21  4  0
 16 19  4  0
 16 23  4  0
 17 22  4  0
 18 26  4  0
 19 24  4  0
 20 24  4  0
 22 27  4  0
 28 29  4  0
M  END
$$$$

 Created by Python create_sdf_string function

 29 33  0  0  0  0  0  0  0  0999 V2000
   10.7215   -3.3326   17.6437 C   0  0  0  0  0  0  0  0  0  0  0  0
    9.9489   -3.4675   24.6487 N   0  0  0  0  0  0  0  0  0  0  0  0
   10.0172   -4.4740   17.4101 C   0  0  0  0  0  0  0  0  0  0  0  0
    6.9051   -7.9575   16.4222 C   0  0  0  0  0  0  0  0  0  0  0  0
    8.9969   -6.3552   17.9668 N   0  0  0  0  0  0  0  0  0  0  0  0
   10.6702   -3.9051   22.4070 C   0  0  0  0  0  0  0  0  0  0  0  0
   11.0625   -3.0028   18.8894 C   0  0  0  0  0  0  0  0  0  0  0  0
    5.6180   -7.9194   16.1754 O   0  0  0  0  0  0  0  0  0  0  0  0
    9.7259   -5.3080   18.4485 C   0  0  0  0  0  0  0  0  0  0  0  0
    9.4578   -5.0200   16.3036 N   0  0  0  0  0  0  0  0  0  0  0  0
    5.0287   -8.9365   16.8223 C   0  0  0  0  0  0  0  0  0  0  0  0
    8.7742   -6.1498   16.6764 C   0  0  0  0  0  0  0  0  0  0  0  0
   10.9418   -3.4032   21.2053 O   0  0  0  0  0  0  0  0  0  0  0  0
    1.4797   -8.6258   16.2950 C   0  0  0  0  0  0  0  0  0  0  0  0
    9.2861   -1.2743   25.3585 C   0  0  0  0  0  0  0  0  0  0  0  0
    1.8892  -10.3985   17.7511 N   0  0  0  0  0  0  0  0  0  0  0  0
    9.6210   -0.6952   24.0976 C   0  0  0  0  0  0  0  0  0  0  0  0
    7.0792   -9.0217   17.1429 C   0  0  0  0  0  0  0  0  0  0  0  0
    3.1713  -10.1816   17.6634 C   0  0  0  0  0  0  0  0  0  0  0  0
    2.7878   -8.3822   16.2137 C   0  0  0  0  0  0  0  0  0  0  0  0
    9.4601   -2.6590   25.6528 C   0  0  0  0  0  0  0  0  0  0  0  0
   10.1182   -1.5672   23.1165 C   0  0  0  0  0  0  0  0  0  0  0  0
    1.0552   -9.6360   17.0650 C   0  0  0  0  0  0  0  0  0  0  0  0
    3.6519   -9.1783   16.9039 C   0  0  0  0  0  0  0  0  0  0  0  0
    7.8675   -7.0096   15.9415 C   0  0  0  0  0  0  0  0  0  0  0  0
    5.9733   -9.6553   17.3832 N   0  0  0  0  0  0  0  0  0  0  0  0
   10.2411   -2.9363   23.4301 C   0  0  0  0  0  0  0  0  0  0  0  0
   10.7288   -3.8197   19.9525 C   0  0  0  0  0  0  0  0  0  0  0  0
   10.1189   -5.0054   19.6987 C   0  0  0  0  0  0  0  0  0  0  0  0
  1  3  4  0
  1  7  4  0
  2 21  4  0
  2 27  4  0
  3  9  4  0
  3 10  4  0
  4  8  4  0
  4 18  4  0
  4 25  1  0
  5  9  4  0
  5 12  4  0
  6 13  1  0
  6 27  1  0
  7 28  4  0
  8 11  4  0
  9 29  4  0
 10 12  4  0
 11 24  1  0
 11 26  4  0
 12 25  1  0
 13 28  1  0
 14 20  4  0
 14 23  4  0
 15 17  4  0
 15 21  4  0
 16 19  4  0
 16 23  4  0
 17 22  4  0
 18 26  4  0
 19 24  4  0
 20 24  4  0
 22 27  4  0
 28 29  4  0
M  END
$$$$

 Created by Python create_sdf_string function

 29 33  0  0  0  0  0  0  0  0999 V2000
   10.7215   -3.3326   17.6437 C   0  0  0  0  0  0  0  0  0  0  0  0
    9.9489   -3.4675   24.6487 N   0  0  0  0  0  0  0  0  0  0  0  0
   10.0172   -4.4740   17.4101 C   0  0  0  0  0  0  0  0  0  0  0  0
    6.9051   -7.9575   16.4222 C   0  0  0  0  0  0  0  0  0  0  0  0
    8.9969   -6.3552   17.9668 N   0  0  0  0  0  0  0  0  0  0  0  0
   10.6702   -3.9051   22.4070 C   0  0  0  0  0  0  0  0  0  0  0  0
   11.0625   -3.0028   18.8894 C   0  0  0  0  0  0  0  0  0  0  0  0
    5.6180   -7.9194   16.1754 O   0  0  0  0  0  0  0  0  0  0  0  0
    9.7259   -5.3080   18.4485 C   0  0  0  0  0  0  0  0  0  0  0  0
    9.4578   -5.0200   16.3036 N   0  0  0  0  0  0  0  0  0  0  0  0
    5.0287   -8.9365   16.8223 C   0  0  0  0  0  0  0  0  0  0  0  0
    8.7742   -6.1498   16.6764 C   0  0  0  0  0  0  0  0  0  0  0  0
   10.9418   -3.4032   21.2053 O   0  0  0  0  0  0  0  0  0  0  0  0
    1.4797   -8.6258   16.2950 C   0  0  0  0  0  0  0  0  0  0  0  0
    9.2861   -1.2743   25.3585 C   0  0  0  0  0  0  0  0  0  0  0  0
    1.8892  -10.3985   17.7511 N   0  0  0  0  0  0  0  0  0  0  0  0
    9.6210   -0.6952   24.0976 C   0  0  0  0  0  0  0  0  0  0  0  0
    7.0792   -9.0217   17.1429 C   0  0  0  0  0  0  0  0  0  0  0  0
    3.1713  -10.1816   17.6634 C   0  0  0  0  0  0  0  0  0  0  0  0
    2.7878   -8.3822   16.2137 C   0  0  0  0  0  0  0  0  0  0  0  0
    9.4601   -2.6590   25.6528 C   0  0  0  0  0  0  0  0  0  0  0  0
   10.1182   -1.5672   23.1165 C   0  0  0  0  0  0  0  0  0  0  0  0
    1.0552   -9.6360   17.0650 C   0  0  0  0  0  0  0  0  0  0  0  0
    3.6519   -9.1783   16.9039 C   0  0  0  0  0  0  0  0  0  0  0  0
    7.8675   -7.0096   15.9415 C   0  0  0  0  0  0  0  0  0  0  0  0
    5.9733   -9.6553   17.3832 N   0  0  0  0  0  0  0  0  0  0  0  0
   10.2411   -2.9363   23.4301 C   0  0  0  0  0  0  0  0  0  0  0  0
   10.7288   -3.8197   19.9525 C   0  0  0  0  0  0  0  0  0  0  0  0
   10.1189   -5.0054   19.6987 C   0  0  0  0  0  0  0  0  0  0  0  0
  1  3  4  0
  1  7  4  0
  2 21  4  0
  2 27  4  0
  3  9  4  0
  3 10  4  0
  4  8  4  0
  4 18  4  0
  4 25  1  0
  5  9  4  0
  5 12  4  0
  6 13  1  0
  6 27  1  0
  7 28  4  0
  8 11  4  0
  9 29  4  0
 10 12  4  0
 11 24  1  0
 11 26  4  0
 12 25  1  0
 13 28  1  0
 14 20  4  0
 14 23  4  0
 15 17  4  0
 15 21  4  0
 16 19  4  0
 16 23  4  0
 17 22  4  0
 18 26  4  0
 19 24  4  0
 20 24  4  0
 22 27  4  0
 28 29  4  0
M  END
$$$$

 Created by Python create_sdf_string function

 29 33  0  0  0  0  0  0  0  0999 V2000
   10.7215   -3.3326   17.6437 C   0  0  0  0  0  0  0  0  0  0  0  0
    9.9489   -3.4675   24.6487 N   0  0  0  0  0  0  0  0  0  0  0  0
   10.0172   -4.4740   17.4101 C   0  0  0  0  0  0  0  0  0  0  0  0
    6.9051   -7.9575   16.4222 C   0  0  0  0  0  0  0  0  0  0  0  0
    8.9969   -6.3552   17.9668 N   0  0  0  0  0  0  0  0  0  0  0  0
   10.6702   -3.9051   22.4070 C   0  0  0  0  0  0  0  0  0  0  0  0
   11.0625   -3.0028   18.8894 C   0  0  0  0  0  0  0  0  0  0  0  0
    5.6180   -7.9194   16.1754 O   0  0  0  0  0  0  0  0  0  0  0  0
    9.7259   -5.3080   18.4485 C   0  0  0  0  0  0  0  0  0  0  0  0
    9.4578   -5.0200   16.3036 N   0  0  0  0  0  0  0  0  0  0  0  0
    5.0287   -8.9365   16.8223 C   0  0  0  0  0  0  0  0  0  0  0  0
    8.7742   -6.1498   16.6764 C   0  0  0  0  0  0  0  0  0  0  0  0
   10.9418   -3.4032   21.2053 O   0  0  0  0  0  0  0  0  0  0  0  0
    1.4797   -8.6258   16.2950 C   0  0  0  0  0  0  0  0  0  0  0  0
    9.2861   -1.2743   25.3585 C   0  0  0  0  0  0  0  0  0  0  0  0
    1.8892  -10.3985   17.7511 N   0  0  0  0  0  0  0  0  0  0  0  0
    9.6210   -0.6952   24.0976 C   0  0  0  0  0  0  0  0  0  0  0  0
    7.0792   -9.0217   17.1429 C   0  0  0  0  0  0  0  0  0  0  0  0
    3.1713  -10.1816   17.6634 C   0  0  0  0  0  0  0  0  0  0  0  0
    2.7878   -8.3822   16.2137 C   0  0  0  0  0  0  0  0  0  0  0  0
    9.4601   -2.6590   25.6528 C   0  0  0  0  0  0  0  0  0  0  0  0
   10.1182   -1.5672   23.1165 C   0  0  0  0  0  0  0  0  0  0  0  0
    1.0552   -9.6360   17.0650 C   0  0  0  0  0  0  0  0  0  0  0  0
    3.6519   -9.1783   16.9039 C   0  0  0  0  0  0  0  0  0  0  0  0
    7.8675   -7.0096   15.9415 C   0  0  0  0  0  0  0  0  0  0  0  0
    5.9733   -9.6553   17.3832 N   0  0  0  0  0  0  0  0  0  0  0  0
   10.2411   -2.9363   23.4301 C   0  0  0  0  0  0  0  0  0  0  0  0
   10.7288   -3.8197   19.9525 C   0  0  0  0  0  0  0  0  0  0  0  0
   10.1189   -5.0054   19.6987 C   0  0  0  0  0  0  0  0  0  0  0  0
  1  3  4  0
  1  7  4  0
  2 21  4  0
  2 27  4  0
  3  9  4  0
  3 10  4  0
  4  8  4  0
  4 18  4  0
  4 25  1  0
  5  9  4  0
  5 12  4  0
  6 13  1  0
  6 27  1  0
  7 28  4  0
  8 11  4  0
  9 29  4  0
 10 12  4  0
 11 24  1  0
 11 26  4  0
 12 25  1  0
 13 28  1  0
 14 20  4  0
 14 23  4  0
 15 17  4  0
 15 21  4  0
 16 19  4  0
 16 23  4  0
 17 22  4  0
 18 26  4  0
 19 24  4  0
 20 24  4  0
 22 27  4  0
 28 29  4  0
M  END
$$$$

 Created by Python create_sdf_string function

 29 33  0  0  0  0  0  0  0  0999 V2000
   10.7215   -3.3326   17.6437 C   0  0  0  0  0  0  0  0  0  0  0  0
    9.9489   -3.4675   24.6487 N   0  0  0  0  0  0  0  0  0  0  0  0
   10.0172   -4.4740   17.4101 C   0  0  0  0  0  0  0  0  0  0  0  0
    6.9051   -7.9575   16.4222 C   0  0  0  0  0  0  0  0  0  0  0  0
    8.9969   -6.3552   17.9668 N   0  0  0  0  0  0  0  0  0  0  0  0
   10.6702   -3.9051   22.4070 C   0  0  0  0  0  0  0  0  0  0  0  0
   11.0625   -3.0028   18.8894 C   0  0  0  0  0  0  0  0  0  0  0  0
    5.6180   -7.9194   16.1754 O   0  0  0  0  0  0  0  0  0  0  0  0
    9.7259   -5.3080   18.4485 C   0  0  0  0  0  0  0  0  0  0  0  0
    9.4578   -5.0200   16.3036 N   0  0  0  0  0  0  0  0  0  0  0  0
    5.0287   -8.9365   16.8223 C   0  0  0  0  0  0  0  0  0  0  0  0
    8.7742   -6.1498   16.6764 C   0  0  0  0  0  0  0  0  0  0  0  0
   10.9418   -3.4032   21.2053 O   0  0  0  0  0  0  0  0  0  0  0  0
    1.4797   -8.6258   16.2950 C   0  0  0  0  0  0  0  0  0  0  0  0
    9.2861   -1.2743   25.3585 C   0  0  0  0  0  0  0  0  0  0  0  0
    1.8892  -10.3985   17.7511 N   0  0  0  0  0  0  0  0  0  0  0  0
    9.6210   -0.6952   24.0976 C   0  0  0  0  0  0  0  0  0  0  0  0
    7.0792   -9.0217   17.1429 C   0  0  0  0  0  0  0  0  0  0  0  0
    3.1713  -10.1816   17.6634 C   0  0  0  0  0  0  0  0  0  0  0  0
    2.7878   -8.3822   16.2137 C   0  0  0  0  0  0  0  0  0  0  0  0
    9.4601   -2.6590   25.6528 C   0  0  0  0  0  0  0  0  0  0  0  0
   10.1182   -1.5672   23.1165 C   0  0  0  0  0  0  0  0  0  0  0  0
    1.0552   -9.6360   17.0650 C   0  0  0  0  0  0  0  0  0  0  0  0
    3.6519   -9.1783   16.9039 C   0  0  0  0  0  0  0  0  0  0  0  0
    7.8675   -7.0096   15.9415 C   0  0  0  0  0  0  0  0  0  0  0  0
    5.9733   -9.6553   17.3832 N   0  0  0  0  0  0  0  0  0  0  0  0
   10.2411   -2.9363   23.4301 C   0  0  0  0  0  0  0  0  0  0  0  0
   10.7288   -3.8197   19.9525 C   0  0  0  0  0  0  0  0  0  0  0  0
   10.1189   -5.0054   19.6987 C   0  0  0  0  0  0  0  0  0  0  0  0
  1  3  4  0
  1  7  4  0
  2 21  4  0
  2 27  4  0
  3  9  4  0
  3 10  4  0
  4  8  4  0
  4 18  4  0
  4 25  1  0
  5  9  4  0
  5 12  4  0
  6 13  1  0
  6 27  1  0
  7 28  4  0
  8 11  4  0
  9 29  4  0
 10 12  4  0
 11 24  1  0
 11 26  4  0
 12 25  1  0
 13 28  1  0
 14 20  4  0
 14 23  4  0
 15 17  4  0
 15 21  4  0
 16 19  4  0
 16 23  4  0
 17 22  4  0
 18 26  4  0
 19 24  4  0
 20 24  4  0
 22 27  4  0
 28 29  4  0
M  END
$$$$

 Created by Python create_sdf_string function

 29 33  0  0  0  0  0  0  0  0999 V2000
   10.7215   -3.3326   17.6437 C   0  0  0  0  0  0  0  0  0  0  0  0
    9.9489   -3.4675   24.6487 N   0  0  0  0  0  0  0  0  0  0  0  0
   10.0172   -4.4740   17.4101 C   0  0  0  0  0  0  0  0  0  0  0  0
    6.9051   -7.9575   16.4222 C   0  0  0  0  0  0  0  0  0  0  0  0
    8.9969   -6.3552   17.9668 N   0  0  0  0  0  0  0  0  0  0  0  0
   10.6702   -3.9051   22.4070 C   0  0  0  0  0  0  0  0  0  0  0  0
   11.0625   -3.0028   18.8894 C   0  0  0  0  0  0  0  0  0  0  0  0
    5.6180   -7.9194   16.1754 O   0  0  0  0  0  0  0  0  0  0  0  0
    9.7259   -5.3080   18.4485 C   0  0  0  0  0  0  0  0  0  0  0  0
    9.4578   -5.0200   16.3036 N   0  0  0  0  0  0  0  0  0  0  0  0
    5.0287   -8.9365   16.8223 C   0  0  0  0  0  0  0  0  0  0  0  0
    8.7742   -6.1498   16.6764 C   0  0  0  0  0  0  0  0  0  0  0  0
   10.9418   -3.4032   21.2053 O   0  0  0  0  0  0  0  0  0  0  0  0
    1.4797   -8.6258   16.2950 C   0  0  0  0  0  0  0  0  0  0  0  0
    9.2861   -1.2743   25.3585 C   0  0  0  0  0  0  0  0  0  0  0  0
    1.8892  -10.3985   17.7511 N   0  0  0  0  0  0  0  0  0  0  0  0
    9.6210   -0.6952   24.0976 C   0  0  0  0  0  0  0  0  0  0  0  0
    7.0792   -9.0217   17.1429 C   0  0  0  0  0  0  0  0  0  0  0  0
    3.1713  -10.1816   17.6634 C   0  0  0  0  0  0  0  0  0  0  0  0
    2.7878   -8.3822   16.2137 C   0  0  0  0  0  0  0  0  0  0  0  0
    9.4601   -2.6590   25.6528 C   0  0  0  0  0  0  0  0  0  0  0  0
   10.1182   -1.5672   23.1165 C   0  0  0  0  0  0  0  0  0  0  0  0
    1.0552   -9.6360   17.0650 C   0  0  0  0  0  0  0  0  0  0  0  0
    3.6519   -9.1783   16.9039 C   0  0  0  0  0  0  0  0  0  0  0  0
    7.8675   -7.0096   15.9415 C   0  0  0  0  0  0  0  0  0  0  0  0
    5.9733   -9.6553   17.3832 N   0  0  0  0  0  0  0  0  0  0  0  0
   10.2411   -2.9363   23.4301 C   0  0  0  0  0  0  0  0  0  0  0  0
   10.7288   -3.8197   19.9525 C   0  0  0  0  0  0  0  0  0  0  0  0
   10.1189   -5.0054   19.6987 C   0  0  0  0  0  0  0  0  0  0  0  0
  1  3  4  0
  1  7  4  0
  2 21  4  0
  2 27  4  0
  3  9  4  0
  3 10  4  0
  4  8  4  0
  4 18  4  0
  4 25  1  0
  5  9  4  0
  5 12  4  0
  6 13  1  0
  6 27  1  0
  7 28  4  0
  8 11  4  0
  9 29  4  0
 10 12  4  0
 11 24  1  0
 11 26  4  0
 12 25  1  0
 13 28  1  0
 14 20  4  0
 14 23  4  0
 15 17  4  0
 15 21  4  0
 16 19  4  0
 16 23  4  0
 17 22  4  0
 18 26  4  0
 19 24  4  0
 20 24  4  0
 22 27  4  0
 28 29  4  0
M  END
$$$$

 Created by Python create_sdf_string function

 29 33  0  0  0  0  0  0  0  0999 V2000
   10.7215   -3.3326   17.6437 C   0  0  0  0  0  0  0  0  0  0  0  0
    9.9489   -3.4675   24.6487 N   0  0  0  0  0  0  0  0  0  0  0  0
   10.0172   -4.4740   17.4101 C   0  0  0  0  0  0  0  0  0  0  0  0
    6.9051   -7.9575   16.4222 C   0  0  0  0  0  0  0  0  0  0  0  0
    8.9969   -6.3552   17.9668 N   0  0  0  0  0  0  0  0  0  0  0  0
   10.6702   -3.9051   22.4070 C   0  0  0  0  0  0  0  0  0  0  0  0
   11.0625   -3.0028   18.8894 C   0  0  0  0  0  0  0  0  0  0  0  0
    5.6180   -7.9194   16.1754 O   0  0  0  0  0  0  0  0  0  0  0  0
    9.7259   -5.3080   18.4485 C   0  0  0  0  0  0  0  0  0  0  0  0
    9.4578   -5.0200   16.3036 N   0  0  0  0  0  0  0  0  0  0  0  0
    5.0287   -8.9365   16.8223 C   0  0  0  0  0  0  0  0  0  0  0  0
    8.7742   -6.1498   16.6764 C   0  0  0  0  0  0  0  0  0  0  0  0
   10.9418   -3.4032   21.2053 O   0  0  0  0  0  0  0  0  0  0  0  0
    1.4797   -8.6258   16.2950 C   0  0  0  0  0  0  0  0  0  0  0  0
    9.2861   -1.2743   25.3585 C   0  0  0  0  0  0  0  0  0  0  0  0
    1.8892  -10.3985   17.7511 N   0  0  0  0  0  0  0  0  0  0  0  0
    9.6210   -0.6952   24.0976 C   0  0  0  0  0  0  0  0  0  0  0  0
    7.0792   -9.0217   17.1429 C   0  0  0  0  0  0  0  0  0  0  0  0
    3.1713  -10.1816   17.6634 C   0  0  0  0  0  0  0  0  0  0  0  0
    2.7878   -8.3822   16.2137 C   0  0  0  0  0  0  0  0  0  0  0  0
    9.4601   -2.6590   25.6528 C   0  0  0  0  0  0  0  0  0  0  0  0
   10.1182   -1.5672   23.1165 C   0  0  0  0  0  0  0  0  0  0  0  0
    1.0552   -9.6360   17.0650 C   0  0  0  0  0  0  0  0  0  0  0  0
    3.6519   -9.1783   16.9039 C   0  0  0  0  0  0  0  0  0  0  0  0
    7.8675   -7.0096   15.9415 C   0  0  0  0  0  0  0  0  0  0  0  0
    5.9733   -9.6553   17.3832 N   0  0  0  0  0  0  0  0  0  0  0  0
   10.2411   -2.9363   23.4301 C   0  0  0  0  0  0  0  0  0  0  0  0
   10.7288   -3.8197   19.9525 C   0  0  0  0  0  0  0  0  0  0  0  0
   10.1189   -5.0054   19.6987 C   0  0  0  0  0  0  0  0  0  0  0  0
  1  3  4  0
  1  7  4  0
  2 21  4  0
  2 27  4  0
  3  9  4  0
  3 10  4  0
  4  8  4  0
  4 18  4  0
  4 25  1  0
  5  9  4  0
  5 12  4  0
  6 13  1  0
  6 27  1  0
  7 28  4  0
  8 11  4  0
  9 29  4  0
 10 12  4  0
 11 24  1  0
 11 26  4  0
 12 25  1  0
 13 28  1  0
 14 20  4  0
 14 23  4  0
 15 17  4  0
 15 21  4  0
 16 19  4  0
 16 23  4  0
 17 22  4  0
 18 26  4  0
 19 24  4  0
 20 24  4  0
 22 27  4  0
 28 29  4  0
M  END
$$$$

 Created by Python create_sdf_string function

 29 33  0  0  0  0  0  0  0  0999 V2000
   10.7215   -3.3326   17.6437 C   0  0  0  0  0  0  0  0  0  0  0  0
    9.9489   -3.4675   24.6487 N   0  0  0  0  0  0  0  0  0  0  0  0
   10.0172   -4.4740   17.4101 C   0  0  0  0  0  0  0  0  0  0  0  0
    6.9051   -7.9575   16.4222 C   0  0  0  0  0  0  0  0  0  0  0  0
    8.9969   -6.3552   17.9668 N   0  0  0  0  0  0  0  0  0  0  0  0
   10.6702   -3.9051   22.4070 C   0  0  0  0  0  0  0  0  0  0  0  0
   11.0625   -3.0028   18.8894 C   0  0  0  0  0  0  0  0  0  0  0  0
    5.6180   -7.9194   16.1754 O   0  0  0  0  0  0  0  0  0  0  0  0
    9.7259   -5.3080   18.4485 C   0  0  0  0  0  0  0  0  0  0  0  0
    9.4578   -5.0200   16.3036 N   0  0  0  0  0  0  0  0  0  0  0  0
    5.0287   -8.9365   16.8223 C   0  0  0  0  0  0  0  0  0  0  0  0
    8.7742   -6.1498   16.6764 C   0  0  0  0  0  0  0  0  0  0  0  0
   10.9418   -3.4032   21.2053 O   0  0  0  0  0  0  0  0  0  0  0  0
    1.4797   -8.6258   16.2950 C   0  0  0  0  0  0  0  0  0  0  0  0
    9.2861   -1.2743   25.3585 C   0  0  0  0  0  0  0  0  0  0  0  0
    1.8892  -10.3985   17.7511 N   0  0  0  0  0  0  0  0  0  0  0  0
    9.6210   -0.6952   24.0976 C   0  0  0  0  0  0  0  0  0  0  0  0
    7.0792   -9.0217   17.1429 C   0  0  0  0  0  0  0  0  0  0  0  0
    3.1713  -10.1816   17.6634 C   0  0  0  0  0  0  0  0  0  0  0  0
    2.7878   -8.3822   16.2137 C   0  0  0  0  0  0  0  0  0  0  0  0
    9.4601   -2.6590   25.6528 C   0  0  0  0  0  0  0  0  0  0  0  0
   10.1182   -1.5672   23.1165 C   0  0  0  0  0  0  0  0  0  0  0  0
    1.0552   -9.6360   17.0650 C   0  0  0  0  0  0  0  0  0  0  0  0
    3.6519   -9.1783   16.9039 C   0  0  0  0  0  0  0  0  0  0  0  0
    7.8675   -7.0096   15.9415 C   0  0  0  0  0  0  0  0  0  0  0  0
    5.9733   -9.6553   17.3832 N   0  0  0  0  0  0  0  0  0  0  0  0
   10.2411   -2.9363   23.4301 C   0  0  0  0  0  0  0  0  0  0  0  0
   10.7288   -3.8197   19.9525 C   0  0  0  0  0  0  0  0  0  0  0  0
   10.1189   -5.0054   19.6987 C   0  0  0  0  0  0  0  0  0  0  0  0
  1  3  4  0
  1  7  4  0
  2 21  4  0
  2 27  4  0
  3  9  4  0
  3 10  4  0
  4  8  4  0
  4 18  4  0
  4 25  1  0
  5  9  4  0
  5 12  4  0
  6 13  1  0
  6 27  1  0
  7 28  4  0
  8 11  4  0
  9 29  4  0
 10 12  4  0
 11 24  1  0
 11 26  4  0
 12 25  1  0
 13 28  1  0
 14 20  4  0
 14 23  4  0
 15 17  4  0
 15 21  4  0
 16 19  4  0
 16 23  4  0
 17 22  4  0
 18 26  4  0
 19 24  4  0
 20 24  4  0
 22 27  4  0
 28 29  4  0
M  END
$$$$

 Created by Python create_sdf_string function

 29 33  0  0  0  0  0  0  0  0999 V2000
   10.7215   -3.3326   17.6437 C   0  0  0  0  0  0  0  0  0  0  0  0
    9.9489   -3.4675   24.6487 N   0  0  0  0  0  0  0  0  0  0  0  0
   10.0172   -4.4740   17.4101 C   0  0  0  0  0  0  0  0  0  0  0  0
    6.9051   -7.9575   16.4222 C   0  0  0  0  0  0  0  0  0  0  0  0
    8.9969   -6.3552   17.9668 N   0  0  0  0  0  0  0  0  0  0  0  0
   10.6702   -3.9051   22.4070 C   0  0  0  0  0  0  0  0  0  0  0  0
   11.0625   -3.0028   18.8894 C   0  0  0  0  0  0  0  0  0  0  0  0
    5.6180   -7.9194   16.1754 O   0  0  0  0  0  0  0  0  0  0  0  0
    9.7259   -5.3080   18.4485 C   0  0  0  0  0  0  0  0  0  0  0  0
    9.4578   -5.0200   16.3036 N   0  0  0  0  0  0  0  0  0  0  0  0
    5.0287   -8.9365   16.8223 C   0  0  0  0  0  0  0  0  0  0  0  0
    8.7742   -6.1498   16.6764 C   0  0  0  0  0  0  0  0  0  0  0  0
   10.9418   -3.4032   21.2053 O   0  0  0  0  0  0  0  0  0  0  0  0
    1.4797   -8.6258   16.2950 C   0  0  0  0  0  0  0  0  0  0  0  0
    9.2861   -1.2743   25.3585 C   0  0  0  0  0  0  0  0  0  0  0  0
    1.8892  -10.3985   17.7511 N   0  0  0  0  0  0  0  0  0  0  0  0
    9.6210   -0.6952   24.0976 C   0  0  0  0  0  0  0  0  0  0  0  0
    7.0792   -9.0217   17.1429 C   0  0  0  0  0  0  0  0  0  0  0  0
    3.1713  -10.1816   17.6634 C   0  0  0  0  0  0  0  0  0  0  0  0
    2.7878   -8.3822   16.2137 C   0  0  0  0  0  0  0  0  0  0  0  0
    9.4601   -2.6590   25.6528 C   0  0  0  0  0  0  0  0  0  0  0  0
   10.1182   -1.5672   23.1165 C   0  0  0  0  0  0  0  0  0  0  0  0
    1.0552   -9.6360   17.0650 C   0  0  0  0  0  0  0  0  0  0  0  0
    3.6519   -9.1783   16.9039 C   0  0  0  0  0  0  0  0  0  0  0  0
    7.8675   -7.0096   15.9415 C   0  0  0  0  0  0  0  0  0  0  0  0
    5.9733   -9.6553   17.3832 N   0  0  0  0  0  0  0  0  0  0  0  0
   10.2411   -2.9363   23.4301 C   0  0  0  0  0  0  0  0  0  0  0  0
   10.7288   -3.8197   19.9525 C   0  0  0  0  0  0  0  0  0  0  0  0
   10.1189   -5.0054   19.6987 C   0  0  0  0  0  0  0  0  0  0  0  0
  1  3  4  0
  1  7  4  0
  2 21  4  0
  2 27  4  0
  3  9  4  0
  3 10  4  0
  4  8  4  0
  4 18  4  0
  4 25  1  0
  5  9  4  0
  5 12  4  0
  6 13  1  0
  6 27  1  0
  7 28  4  0
  8 11  4  0
  9 29  4  0
 10 12  4  0
 11 24  1  0
 11 26  4  0
 12 25  1  0
 13 28  1  0
 14 20  4  0
 14 23  4  0
 15 17  4  0
 15 21  4  0
 16 19  4  0
 16 23  4  0
 17 22  4  0
 18 26  4  0
 19 24  4  0
 20 24  4  0
 22 27  4  0
 28 29  4  0
M  END
$$$$

 Created by Python create_sdf_string function

 29 33  0  0  0  0  0  0  0  0999 V2000
   10.7215   -3.3326   17.6437 C   0  0  0  0  0  0  0  0  0  0  0  0
    9.9489   -3.4675   24.6487 N   0  0  0  0  0  0  0  0  0  0  0  0
   10.0172   -4.4740   17.4101 C   0  0  0  0  0  0  0  0  0  0  0  0
    6.9051   -7.9575   16.4222 C   0  0  0  0  0  0  0  0  0  0  0  0
    8.9969   -6.3552   17.9668 N   0  0  0  0  0  0  0  0  0  0  0  0
   10.6702   -3.9051   22.4070 C   0  0  0  0  0  0  0  0  0  0  0  0
   11.0625   -3.0028   18.8894 C   0  0  0  0  0  0  0  0  0  0  0  0
    5.6180   -7.9194   16.1754 O   0  0  0  0  0  0  0  0  0  0  0  0
    9.7259   -5.3080   18.4485 C   0  0  0  0  0  0  0  0  0  0  0  0
    9.4578   -5.0200   16.3036 N   0  0  0  0  0  0  0  0  0  0  0  0
    5.0287   -8.9365   16.8223 C   0  0  0  0  0  0  0  0  0  0  0  0
    8.7742   -6.1498   16.6764 C   0  0  0  0  0  0  0  0  0  0  0  0
   10.9418   -3.4032   21.2053 O   0  0  0  0  0  0  0  0  0  0  0  0
    1.4797   -8.6258   16.2950 C   0  0  0  0  0  0  0  0  0  0  0  0
    9.2861   -1.2743   25.3585 C   0  0  0  0  0  0  0  0  0  0  0  0
    1.8892  -10.3985   17.7511 N   0  0  0  0  0  0  0  0  0  0  0  0
    9.6210   -0.6952   24.0976 C   0  0  0  0  0  0  0  0  0  0  0  0
    7.0792   -9.0217   17.1429 C   0  0  0  0  0  0  0  0  0  0  0  0
    3.1713  -10.1816   17.6634 C   0  0  0  0  0  0  0  0  0  0  0  0
    2.7878   -8.3822   16.2137 C   0  0  0  0  0  0  0  0  0  0  0  0
    9.4601   -2.6590   25.6528 C   0  0  0  0  0  0  0  0  0  0  0  0
   10.1182   -1.5672   23.1165 C   0  0  0  0  0  0  0  0  0  0  0  0
    1.0552   -9.6360   17.0650 C   0  0  0  0  0  0  0  0  0  0  0  0
    3.6519   -9.1783   16.9039 C   0  0  0  0  0  0  0  0  0  0  0  0
    7.8675   -7.0096   15.9415 C   0  0  0  0  0  0  0  0  0  0  0  0
    5.9733   -9.6553   17.3832 N   0  0  0  0  0  0  0  0  0  0  0  0
   10.2411   -2.9363   23.4301 C   0  0  0  0  0  0  0  0  0  0  0  0
   10.7288   -3.8197   19.9525 C   0  0  0  0  0  0  0  0  0  0  0  0
   10.1189   -5.0054   19.6987 C   0  0  0  0  0  0  0  0  0  0  0  0
  1  3  4  0
  1  7  4  0
  2 21  4  0
  2 27  4  0
  3  9  4  0
  3 10  4  0
  4  8  4  0
  4 18  4  0
  4 25  1  0
  5  9  4  0
  5 12  4  0
  6 13  1  0
  6 27  1  0
  7 28  4  0
  8 11  4  0
  9 29  4  0
 10 12  4  0
 11 24  1  0
 11 26  4  0
 12 25  1  0
 13 28  1  0
 14 20  4  0
 14 23  4  0
 15 17  4  0
 15 21  4  0
 16 19  4  0
 16 23  4  0
 17 22  4  0
 18 26  4  0
 19 24  4  0
 20 24  4  0
 22 27  4  0
 28 29  4  0
M  END
$$$$

 Created by Python create_sdf_string function

 29 33  0  0  0  0  0  0  0  0999 V2000
   10.7215   -3.3326   17.6437 C   0  0  0  0  0  0  0  0  0  0  0  0
    9.9489   -3.4675   24.6487 N   0  0  0  0  0  0  0  0  0  0  0  0
   10.0172   -4.4740   17.4101 C   0  0  0  0  0  0  0  0  0  0  0  0
    6.9051   -7.9575   16.4222 C   0  0  0  0  0  0  0  0  0  0  0  0
    8.9969   -6.3552   17.9668 N   0  0  0  0  0  0  0  0  0  0  0  0
   10.6702   -3.9051   22.4070 C   0  0  0  0  0  0  0  0  0  0  0  0
   11.0625   -3.0028   18.8894 C   0  0  0  0  0  0  0  0  0  0  0  0
    5.6180   -7.9194   16.1754 O   0  0  0  0  0  0  0  0  0  0  0  0
    9.7259   -5.3080   18.4485 C   0  0  0  0  0  0  0  0  0  0  0  0
    9.4578   -5.0200   16.3036 N   0  0  0  0  0  0  0  0  0  0  0  0
    5.0287   -8.9365   16.8223 C   0  0  0  0  0  0  0  0  0  0  0  0
    8.7742   -6.1498   16.6764 C   0  0  0  0  0  0  0  0  0  0  0  0
   10.9418   -3.4032   21.2053 O   0  0  0  0  0  0  0  0  0  0  0  0
    1.4797   -8.6258   16.2950 C   0  0  0  0  0  0  0  0  0  0  0  0
    9.2861   -1.2743   25.3585 C   0  0  0  0  0  0  0  0  0  0  0  0
    1.8892  -10.3985   17.7511 N   0  0  0  0  0  0  0  0  0  0  0  0
    9.6210   -0.6952   24.0976 C   0  0  0  0  0  0  0  0  0  0  0  0
    7.0792   -9.0217   17.1429 C   0  0  0  0  0  0  0  0  0  0  0  0
    3.1713  -10.1816   17.6634 C   0  0  0  0  0  0  0  0  0  0  0  0
    2.7878   -8.3822   16.2137 C   0  0  0  0  0  0  0  0  0  0  0  0
    9.4601   -2.6590   25.6528 C   0  0  0  0  0  0  0  0  0  0  0  0
   10.1182   -1.5672   23.1165 C   0  0  0  0  0  0  0  0  0  0  0  0
    1.0552   -9.6360   17.0650 C   0  0  0  0  0  0  0  0  0  0  0  0
    3.6519   -9.1783   16.9039 C   0  0  0  0  0  0  0  0  0  0  0  0
    7.8675   -7.0096   15.9415 C   0  0  0  0  0  0  0  0  0  0  0  0
    5.9733   -9.6553   17.3832 N   0  0  0  0  0  0  0  0  0  0  0  0
   10.2411   -2.9363   23.4301 C   0  0  0  0  0  0  0  0  0  0  0  0
   10.7288   -3.8197   19.9525 C   0  0  0  0  0  0  0  0  0  0  0  0
   10.1189   -5.0054   19.6987 C   0  0  0  0  0  0  0  0  0  0  0  0
  1  3  4  0
  1  7  4  0
  2 21  4  0
  2 27  4  0
  3  9  4  0
  3 10  4  0
  4  8  4  0
  4 18  4  0
  4 25  1  0
  5  9  4  0
  5 12  4  0
  6 13  1  0
  6 27  1  0
  7 28  4  0
  8 11  4  0
  9 29  4  0
 10 12  4  0
 11 24  1  0
 11 26  4  0
 12 25  1  0
 13 28  1  0
 14 20  4  0
 14 23  4  0
 15 17  4  0
 15 21  4  0
 16 19  4  0
 16 23  4  0
 17 22  4  0
 18 26  4  0
 19 24  4  0
 20 24  4  0
 22 27  4  0
 28 29  4  0
M  END
$$$$

 Created by Python create_sdf_string function

 29 33  0  0  0  0  0  0  0  0999 V2000
   10.7215   -3.3326   17.6437 C   0  0  0  0  0  0  0  0  0  0  0  0
    9.9489   -3.4675   24.6487 N   0  0  0  0  0  0  0  0  0  0  0  0
   10.0172   -4.4740   17.4101 C   0  0  0  0  0  0  0  0  0  0  0  0
    6.9051   -7.9575   16.4222 C   0  0  0  0  0  0  0  0  0  0  0  0
    8.9969   -6.3552   17.9668 N   0  0  0  0  0  0  0  0  0  0  0  0
   10.6702   -3.9051   22.4070 C   0  0  0  0  0  0  0  0  0  0  0  0
   11.0625   -3.0028   18.8894 C   0  0  0  0  0  0  0  0  0  0  0  0
    5.6180   -7.9194   16.1754 O   0  0  0  0  0  0  0  0  0  0  0  0
    9.7259   -5.3080   18.4485 C   0  0  0  0  0  0  0  0  0  0  0  0
    9.4578   -5.0200   16.3036 N   0  0  0  0  0  0  0  0  0  0  0  0
    5.0287   -8.9365   16.8223 C   0  0  0  0  0  0  0  0  0  0  0  0
    8.7742   -6.1498   16.6764 C   0  0  0  0  0  0  0  0  0  0  0  0
   10.9418   -3.4032   21.2053 O   0  0  0  0  0  0  0  0  0  0  0  0
    1.4797   -8.6258   16.2950 C   0  0  0  0  0  0  0  0  0  0  0  0
    9.2861   -1.2743   25.3585 C   0  0  0  0  0  0  0  0  0  0  0  0
    1.8892  -10.3985   17.7511 N   0  0  0  0  0  0  0  0  0  0  0  0
    9.6210   -0.6952   24.0976 C   0  0  0  0  0  0  0  0  0  0  0  0
    7.0792   -9.0217   17.1429 C   0  0  0  0  0  0  0  0  0  0  0  0
    3.1713  -10.1816   17.6634 C   0  0  0  0  0  0  0  0  0  0  0  0
    2.7878   -8.3822   16.2137 C   0  0  0  0  0  0  0  0  0  0  0  0
    9.4601   -2.6590   25.6528 C   0  0  0  0  0  0  0  0  0  0  0  0
   10.1182   -1.5672   23.1165 C   0  0  0  0  0  0  0  0  0  0  0  0
    1.0552   -9.6360   17.0650 C   0  0  0  0  0  0  0  0  0  0  0  0
    3.6519   -9.1783   16.9039 C   0  0  0  0  0  0  0  0  0  0  0  0
    7.8675   -7.0096   15.9415 C   0  0  0  0  0  0  0  0  0  0  0  0
    5.9733   -9.6553   17.3832 N   0  0  0  0  0  0  0  0  0  0  0  0
   10.2411   -2.9363   23.4301 C   0  0  0  0  0  0  0  0  0  0  0  0
   10.7288   -3.8197   19.9525 C   0  0  0  0  0  0  0  0  0  0  0  0
   10.1189   -5.0054   19.6987 C   0  0  0  0  0  0  0  0  0  0  0  0
  1  3  4  0
  1  7  4  0
  2 21  4  0
  2 27  4  0
  3  9  4  0
  3 10  4  0
  4  8  4  0
  4 18  4  0
  4 25  1  0
  5  9  4  0
  5 12  4  0
  6 13  1  0
  6 27  1  0
  7 28  4  0
  8 11  4  0
  9 29  4  0
 10 12  4  0
 11 24  1  0
 11 26  4  0
 12 25  1  0
 13 28  1  0
 14 20  4  0
 14 23  4  0
 15 17  4  0
 15 21  4  0
 16 19  4  0
 16 23  4  0
 17 22  4  0
 18 26  4  0
 19 24  4  0
 20 24  4  0
 22 27  4  0
 28 29  4  0
M  END
$$$$

 Created by Python create_sdf_string function

 29 33  0  0  0  0  0  0  0  0999 V2000
   10.7215   -3.3326   17.6437 C   0  0  0  0  0  0  0  0  0  0  0  0
    9.9489   -3.4675   24.6487 N   0  0  0  0  0  0  0  0  0  0  0  0
   10.0172   -4.4740   17.4101 C   0  0  0  0  0  0  0  0  0  0  0  0
    6.9051   -7.9575   16.4222 C   0  0  0  0  0  0  0  0  0  0  0  0
    8.9969   -6.3552   17.9668 N   0  0  0  0  0  0  0  0  0  0  0  0
   10.6702   -3.9051   22.4070 C   0  0  0  0  0  0  0  0  0  0  0  0
   11.0625   -3.0028   18.8894 C   0  0  0  0  0  0  0  0  0  0  0  0
    5.6180   -7.9194   16.1754 O   0  0  0  0  0  0  0  0  0  0  0  0
    9.7259   -5.3080   18.4485 C   0  0  0  0  0  0  0  0  0  0  0  0
    9.4578   -5.0200   16.3036 N   0  0  0  0  0  0  0  0  0  0  0  0
    5.0287   -8.9365   16.8223 C   0  0  0  0  0  0  0  0  0  0  0  0
    8.7742   -6.1498   16.6764 C   0  0  0  0  0  0  0  0  0  0  0  0
   10.9418   -3.4032   21.2053 O   0  0  0  0  0  0  0  0  0  0  0  0
    1.4797   -8.6258   16.2950 C   0  0  0  0  0  0  0  0  0  0  0  0
    9.2861   -1.2743   25.3585 C   0  0  0  0  0  0  0  0  0  0  0  0
    1.8892  -10.3985   17.7511 N   0  0  0  0  0  0  0  0  0  0  0  0
    9.6210   -0.6952   24.0976 C   0  0  0  0  0  0  0  0  0  0  0  0
    7.0792   -9.0217   17.1429 C   0  0  0  0  0  0  0  0  0  0  0  0
    3.1713  -10.1816   17.6634 C   0  0  0  0  0  0  0  0  0  0  0  0
    2.7878   -8.3822   16.2137 C   0  0  0  0  0  0  0  0  0  0  0  0
    9.4601   -2.6590   25.6528 C   0  0  0  0  0  0  0  0  0  0  0  0
   10.1182   -1.5672   23.1165 C   0  0  0  0  0  0  0  0  0  0  0  0
    1.0552   -9.6360   17.0650 C   0  0  0  0  0  0  0  0  0  0  0  0
    3.6519   -9.1783   16.9039 C   0  0  0  0  0  0  0  0  0  0  0  0
    7.8675   -7.0096   15.9415 C   0  0  0  0  0  0  0  0  0  0  0  0
    5.9733   -9.6553   17.3832 N   0  0  0  0  0  0  0  0  0  0  0  0
   10.2411   -2.9363   23.4301 C   0  0  0  0  0  0  0  0  0  0  0  0
   10.7288   -3.8197   19.9525 C   0  0  0  0  0  0  0  0  0  0  0  0
   10.1189   -5.0054   19.6987 C   0  0  0  0  0  0  0  0  0  0  0  0
  1  3  4  0
  1  7  4  0
  2 21  4  0
  2 27  4  0
  3  9  4  0
  3 10  4  0
  4  8  4  0
  4 18  4  0
  4 25  1  0
  5  9  4  0
  5 12  4  0
  6 13  1  0
  6 27  1  0
  7 28  4  0
  8 11  4  0
  9 29  4  0
 10 12  4  0
 11 24  1  0
 11 26  4  0
 12 25  1  0
 13 28  1  0
 14 20  4  0
 14 23  4  0
 15 17  4  0
 15 21  4  0
 16 19  4  0
 16 23  4  0
 17 22  4  0
 18 26  4  0
 19 24  4  0
 20 24  4  0
 22 27  4  0
 28 29  4  0
M  END
$$$$

 Created by Python create_sdf_string function

 29 33  0  0  0  0  0  0  0  0999 V2000
   10.7215   -3.3326   17.6437 C   0  0  0  0  0  0  0  0  0  0  0  0
    9.9489   -3.4675   24.6487 N   0  0  0  0  0  0  0  0  0  0  0  0
   10.0172   -4.4740   17.4101 C   0  0  0  0  0  0  0  0  0  0  0  0
    6.9051   -7.9575   16.4222 C   0  0  0  0  0  0  0  0  0  0  0  0
    8.9969   -6.3552   17.9668 N   0  0  0  0  0  0  0  0  0  0  0  0
   10.6702   -3.9051   22.4070 C   0  0  0  0  0  0  0  0  0  0  0  0
   11.0625   -3.0028   18.8894 C   0  0  0  0  0  0  0  0  0  0  0  0
    5.6180   -7.9194   16.1754 O   0  0  0  0  0  0  0  0  0  0  0  0
    9.7259   -5.3080   18.4485 C   0  0  0  0  0  0  0  0  0  0  0  0
    9.4578   -5.0200   16.3036 N   0  0  0  0  0  0  0  0  0  0  0  0
    5.0287   -8.9365   16.8223 C   0  0  0  0  0  0  0  0  0  0  0  0
    8.7742   -6.1498   16.6764 C   0  0  0  0  0  0  0  0  0  0  0  0
   10.9418   -3.4032   21.2053 O   0  0  0  0  0  0  0  0  0  0  0  0
    1.4797   -8.6258   16.2950 C   0  0  0  0  0  0  0  0  0  0  0  0
    9.2861   -1.2743   25.3585 C   0  0  0  0  0  0  0  0  0  0  0  0
    1.8892  -10.3985   17.7511 N   0  0  0  0  0  0  0  0  0  0  0  0
    9.6210   -0.6952   24.0976 C   0  0  0  0  0  0  0  0  0  0  0  0
    7.0792   -9.0217   17.1429 C   0  0  0  0  0  0  0  0  0  0  0  0
    3.1713  -10.1816   17.6634 C   0  0  0  0  0  0  0  0  0  0  0  0
    2.7878   -8.3822   16.2137 C   0  0  0  0  0  0  0  0  0  0  0  0
    9.4601   -2.6590   25.6528 C   0  0  0  0  0  0  0  0  0  0  0  0
   10.1182   -1.5672   23.1165 C   0  0  0  0  0  0  0  0  0  0  0  0
    1.0552   -9.6360   17.0650 C   0  0  0  0  0  0  0  0  0  0  0  0
    3.6519   -9.1783   16.9039 C   0  0  0  0  0  0  0  0  0  0  0  0
    7.8675   -7.0096   15.9415 C   0  0  0  0  0  0  0  0  0  0  0  0
    5.9733   -9.6553   17.3832 N   0  0  0  0  0  0  0  0  0  0  0  0
   10.2411   -2.9363   23.4301 C   0  0  0  0  0  0  0  0  0  0  0  0
   10.7288   -3.8197   19.9525 C   0  0  0  0  0  0  0  0  0  0  0  0
   10.1189   -5.0054   19.6987 C   0  0  0  0  0  0  0  0  0  0  0  0
  1  3  4  0
  1  7  4  0
  2 21  4  0
  2 27  4  0
  3  9  4  0
  3 10  4  0
  4  8  4  0
  4 18  4  0
  4 25  1  0
  5  9  4  0
  5 12  4  0
  6 13  1  0
  6 27  1  0
  7 28  4  0
  8 11  4  0
  9 29  4  0
 10 12  4  0
 11 24  1  0
 11 26  4  0
 12 25  1  0
 13 28  1  0
 14 20  4  0
 14 23  4  0
 15 17  4  0
 15 21  4  0
 16 19  4  0
 16 23  4  0
 17 22  4  0
 18 26  4  0
 19 24  4  0
 20 24  4  0
 22 27  4  0
 28 29  4  0
M  END
$$$$

 Created by Python create_sdf_string function

 29 33  0  0  0  0  0  0  0  0999 V2000
   10.7215   -3.3326   17.6437 C   0  0  0  0  0  0  0  0  0  0  0  0
    9.9489   -3.4675   24.6487 N   0  0  0  0  0  0  0  0  0  0  0  0
   10.0172   -4.4740   17.4101 C   0  0  0  0  0  0  0  0  0  0  0  0
    6.9051   -7.9575   16.4222 C   0  0  0  0  0  0  0  0  0  0  0  0
    8.9969   -6.3552   17.9668 N   0  0  0  0  0  0  0  0  0  0  0  0
   10.6702   -3.9051   22.4070 C   0  0  0  0  0  0  0  0  0  0  0  0
   11.0625   -3.0028   18.8894 C   0  0  0  0  0  0  0  0  0  0  0  0
    5.6180   -7.9194   16.1754 O   0  0  0  0  0  0  0  0  0  0  0  0
    9.7259   -5.3080   18.4485 C   0  0  0  0  0  0  0  0  0  0  0  0
    9.4578   -5.0200   16.3036 N   0  0  0  0  0  0  0  0  0  0  0  0
    5.0287   -8.9365   16.8223 C   0  0  0  0  0  0  0  0  0  0  0  0
    8.7742   -6.1498   16.6764 C   0  0  0  0  0  0  0  0  0  0  0  0
   10.9418   -3.4032   21.2053 O   0  0  0  0  0  0  0  0  0  0  0  0
    1.4797   -8.6258   16.2950 C   0  0  0  0  0  0  0  0  0  0  0  0
    9.2861   -1.2743   25.3585 C   0  0  0  0  0  0  0  0  0  0  0  0
    1.8892  -10.3985   17.7511 N   0  0  0  0  0  0  0  0  0  0  0  0
    9.6210   -0.6952   24.0976 C   0  0  0  0  0  0  0  0  0  0  0  0
    7.0792   -9.0217   17.1429 C   0  0  0  0  0  0  0  0  0  0  0  0
    3.1713  -10.1816   17.6634 C   0  0  0  0  0  0  0  0  0  0  0  0
    2.7878   -8.3822   16.2137 C   0  0  0  0  0  0  0  0  0  0  0  0
    9.4601   -2.6590   25.6528 C   0  0  0  0  0  0  0  0  0  0  0  0
   10.1182   -1.5672   23.1165 C   0  0  0  0  0  0  0  0  0  0  0  0
    1.0552   -9.6360   17.0650 C   0  0  0  0  0  0  0  0  0  0  0  0
    3.6519   -9.1783   16.9039 C   0  0  0  0  0  0  0  0  0  0  0  0
    7.8675   -7.0096   15.9415 C   0  0  0  0  0  0  0  0  0  0  0  0
    5.9733   -9.6553   17.3832 N   0  0  0  0  0  0  0  0  0  0  0  0
   10.2411   -2.9363   23.4301 C   0  0  0  0  0  0  0  0  0  0  0  0
   10.7288   -3.8197   19.9525 C   0  0  0  0  0  0  0  0  0  0  0  0
   10.1189   -5.0054   19.6987 C   0  0  0  0  0  0  0  0  0  0  0  0
  1  3  4  0
  1  7  4  0
  2 21  4  0
  2 27  4  0
  3  9  4  0
  3 10  4  0
  4  8  4  0
  4 18  4  0
  4 25  1  0
  5  9  4  0
  5 12  4  0
  6 13  1  0
  6 27  1  0
  7 28  4  0
  8 11  4  0
  9 29  4  0
 10 12  4  0
 11 24  1  0
 11 26  4  0
 12 25  1  0
 13 28  1  0
 14 20  4  0
 14 23  4  0
 15 17  4  0
 15 21  4  0
 16 19  4  0
 16 23  4  0
 17 22  4  0
 18 26  4  0
 19 24  4  0
 20 24  4  0
 22 27  4  0
 28 29  4  0
M  END
$$$$

 Created by Python create_sdf_string function

 29 33  0  0  0  0  0  0  0  0999 V2000
   10.7215   -3.3326   17.6437 C   0  0  0  0  0  0  0  0  0  0  0  0
    9.9489   -3.4675   24.6487 N   0  0  0  0  0  0  0  0  0  0  0  0
   10.0172   -4.4740   17.4101 C   0  0  0  0  0  0  0  0  0  0  0  0
    6.9051   -7.9575   16.4222 C   0  0  0  0  0  0  0  0  0  0  0  0
    8.9969   -6.3552   17.9668 N   0  0  0  0  0  0  0  0  0  0  0  0
   10.6702   -3.9051   22.4070 C   0  0  0  0  0  0  0  0  0  0  0  0
   11.0625   -3.0028   18.8894 C   0  0  0  0  0  0  0  0  0  0  0  0
    5.6180   -7.9194   16.1754 O   0  0  0  0  0  0  0  0  0  0  0  0
    9.7259   -5.3080   18.4485 C   0  0  0  0  0  0  0  0  0  0  0  0
    9.4578   -5.0200   16.3036 N   0  0  0  0  0  0  0  0  0  0  0  0
    5.0287   -8.9365   16.8223 C   0  0  0  0  0  0  0  0  0  0  0  0
    8.7742   -6.1498   16.6764 C   0  0  0  0  0  0  0  0  0  0  0  0
   10.9418   -3.4032   21.2053 O   0  0  0  0  0  0  0  0  0  0  0  0
    1.4797   -8.6258   16.2950 C   0  0  0  0  0  0  0  0  0  0  0  0
    9.2861   -1.2743   25.3585 C   0  0  0  0  0  0  0  0  0  0  0  0
    1.8892  -10.3985   17.7511 N   0  0  0  0  0  0  0  0  0  0  0  0
    9.6210   -0.6952   24.0976 C   0  0  0  0  0  0  0  0  0  0  0  0
    7.0792   -9.0217   17.1429 C   0  0  0  0  0  0  0  0  0  0  0  0
    3.1713  -10.1816   17.6634 C   0  0  0  0  0  0  0  0  0  0  0  0
    2.7878   -8.3822   16.2137 C   0  0  0  0  0  0  0  0  0  0  0  0
    9.4601   -2.6590   25.6528 C   0  0  0  0  0  0  0  0  0  0  0  0
   10.1182   -1.5672   23.1165 C   0  0  0  0  0  0  0  0  0  0  0  0
    1.0552   -9.6360   17.0650 C   0  0  0  0  0  0  0  0  0  0  0  0
    3.6519   -9.1783   16.9039 C   0  0  0  0  0  0  0  0  0  0  0  0
    7.8675   -7.0096   15.9415 C   0  0  0  0  0  0  0  0  0  0  0  0
    5.9733   -9.6553   17.3832 N   0  0  0  0  0  0  0  0  0  0  0  0
   10.2411   -2.9363   23.4301 C   0  0  0  0  0  0  0  0  0  0  0  0
   10.7288   -3.8197   19.9525 C   0  0  0  0  0  0  0  0  0  0  0  0
   10.1189   -5.0054   19.6987 C   0  0  0  0  0  0  0  0  0  0  0  0
  1  3  4  0
  1  7  4  0
  2 21  4  0
  2 27  4  0
  3  9  4  0
  3 10  4  0
  4  8  4  0
  4 18  4  0
  4 25  1  0
  5  9  4  0
  5 12  4  0
  6 13  1  0
  6 27  1  0
  7 28  4  0
  8 11  4  0
  9 29  4  0
 10 12  4  0
 11 24  1  0
 11 26  4  0
 12 25  1  0
 13 28  1  0
 14 20  4  0
 14 23  4  0
 15 17  4  0
 15 21  4  0
 16 19  4  0
 16 23  4  0
 17 22  4  0
 18 26  4  0
 19 24  4  0
 20 24  4  0
 22 27  4  0
 28 29  4  0
M  END
$$$$

 Created by Python create_sdf_string function

 29 33  0  0  0  0  0  0  0  0999 V2000
   10.7215   -3.3326   17.6437 C   0  0  0  0  0  0  0  0  0  0  0  0
    9.9489   -3.4675   24.6487 N   0  0  0  0  0  0  0  0  0  0  0  0
   10.0172   -4.4740   17.4101 C   0  0  0  0  0  0  0  0  0  0  0  0
    6.9051   -7.9575   16.4222 C   0  0  0  0  0  0  0  0  0  0  0  0
    8.9969   -6.3552   17.9668 N   0  0  0  0  0  0  0  0  0  0  0  0
   10.6702   -3.9051   22.4070 C   0  0  0  0  0  0  0  0  0  0  0  0
   11.0625   -3.0028   18.8894 C   0  0  0  0  0  0  0  0  0  0  0  0
    5.6180   -7.9194   16.1754 O   0  0  0  0  0  0  0  0  0  0  0  0
    9.7259   -5.3080   18.4485 C   0  0  0  0  0  0  0  0  0  0  0  0
    9.4578   -5.0200   16.3036 N   0  0  0  0  0  0  0  0  0  0  0  0
    5.0287   -8.9365   16.8223 C   0  0  0  0  0  0  0  0  0  0  0  0
    8.7742   -6.1498   16.6764 C   0  0  0  0  0  0  0  0  0  0  0  0
   10.9418   -3.4032   21.2053 O   0  0  0  0  0  0  0  0  0  0  0  0
    1.4797   -8.6258   16.2950 C   0  0  0  0  0  0  0  0  0  0  0  0
    9.2861   -1.2743   25.3585 C   0  0  0  0  0  0  0  0  0  0  0  0
    1.8892  -10.3985   17.7511 N   0  0  0  0  0  0  0  0  0  0  0  0
    9.6210   -0.6952   24.0976 C   0  0  0  0  0  0  0  0  0  0  0  0
    7.0792   -9.0217   17.1429 C   0  0  0  0  0  0  0  0  0  0  0  0
    3.1713  -10.1816   17.6634 C   0  0  0  0  0  0  0  0  0  0  0  0
    2.7878   -8.3822   16.2137 C   0  0  0  0  0  0  0  0  0  0  0  0
    9.4601   -2.6590   25.6528 C   0  0  0  0  0  0  0  0  0  0  0  0
   10.1182   -1.5672   23.1165 C   0  0  0  0  0  0  0  0  0  0  0  0
    1.0552   -9.6360   17.0650 C   0  0  0  0  0  0  0  0  0  0  0  0
    3.6519   -9.1783   16.9039 C   0  0  0  0  0  0  0  0  0  0  0  0
    7.8675   -7.0096   15.9415 C   0  0  0  0  0  0  0  0  0  0  0  0
    5.9733   -9.6553   17.3832 N   0  0  0  0  0  0  0  0  0  0  0  0
   10.2411   -2.9363   23.4301 C   0  0  0  0  0  0  0  0  0  0  0  0
   10.7288   -3.8197   19.9525 C   0  0  0  0  0  0  0  0  0  0  0  0
   10.1189   -5.0054   19.6987 C   0  0  0  0  0  0  0  0  0  0  0  0
  1  3  4  0
  1  7  4  0
  2 21  4  0
  2 27  4  0
  3  9  4  0
  3 10  4  0
  4  8  4  0
  4 18  4  0
  4 25  1  0
  5  9  4  0
  5 12  4  0
  6 13  1  0
  6 27  1  0
  7 28  4  0
  8 11  4  0
  9 29  4  0
 10 12  4  0
 11 24  1  0
 11 26  4  0
 12 25  1  0
 13 28  1  0
 14 20  4  0
 14 23  4  0
 15 17  4  0
 15 21  4  0
 16 19  4  0
 16 23  4  0
 17 22  4  0
 18 26  4  0
 19 24  4  0
 20 24  4  0
 22 27  4  0
 28 29  4  0
M  END
$$$$

 Created by Python create_sdf_string function

 29 33  0  0  0  0  0  0  0  0999 V2000
   10.7215   -3.3326   17.6437 C   0  0  0  0  0  0  0  0  0  0  0  0
    9.9489   -3.4675   24.6487 N   0  0  0  0  0  0  0  0  0  0  0  0
   10.0172   -4.4740   17.4101 C   0  0  0  0  0  0  0  0  0  0  0  0
    6.9051   -7.9575   16.4222 C   0  0  0  0  0  0  0  0  0  0  0  0
    8.9969   -6.3552   17.9668 N   0  0  0  0  0  0  0  0  0  0  0  0
   10.6702   -3.9051   22.4070 C   0  0  0  0  0  0  0  0  0  0  0  0
   11.0625   -3.0028   18.8894 C   0  0  0  0  0  0  0  0  0  0  0  0
    5.6180   -7.9194   16.1754 O   0  0  0  0  0  0  0  0  0  0  0  0
    9.7259   -5.3080   18.4485 C   0  0  0  0  0  0  0  0  0  0  0  0
    9.4578   -5.0200   16.3036 N   0  0  0  0  0  0  0  0  0  0  0  0
    5.0287   -8.9365   16.8223 C   0  0  0  0  0  0  0  0  0  0  0  0
    8.7742   -6.1498   16.6764 C   0  0  0  0  0  0  0  0  0  0  0  0
   10.9418   -3.4032   21.2053 O   0  0  0  0  0  0  0  0  0  0  0  0
    1.4797   -8.6258   16.2950 C   0  0  0  0  0  0  0  0  0  0  0  0
    9.2861   -1.2743   25.3585 C   0  0  0  0  0  0  0  0  0  0  0  0
    1.8892  -10.3985   17.7511 N   0  0  0  0  0  0  0  0  0  0  0  0
    9.6210   -0.6952   24.0976 C   0  0  0  0  0  0  0  0  0  0  0  0
    7.0792   -9.0217   17.1429 C   0  0  0  0  0  0  0  0  0  0  0  0
    3.1713  -10.1816   17.6634 C   0  0  0  0  0  0  0  0  0  0  0  0
    2.7878   -8.3822   16.2137 C   0  0  0  0  0  0  0  0  0  0  0  0
    9.4601   -2.6590   25.6528 C   0  0  0  0  0  0  0  0  0  0  0  0
   10.1182   -1.5672   23.1165 C   0  0  0  0  0  0  0  0  0  0  0  0
    1.0552   -9.6360   17.0650 C   0  0  0  0  0  0  0  0  0  0  0  0
    3.6519   -9.1783   16.9039 C   0  0  0  0  0  0  0  0  0  0  0  0
    7.8675   -7.0096   15.9415 C   0  0  0  0  0  0  0  0  0  0  0  0
    5.9733   -9.6553   17.3832 N   0  0  0  0  0  0  0  0  0  0  0  0
   10.2411   -2.9363   23.4301 C   0  0  0  0  0  0  0  0  0  0  0  0
   10.7288   -3.8197   19.9525 C   0  0  0  0  0  0  0  0  0  0  0  0
   10.1189   -5.0054   19.6987 C   0  0  0  0  0  0  0  0  0  0  0  0
  1  3  4  0
  1  7  4  0
  2 21  4  0
  2 27  4  0
  3  9  4  0
  3 10  4  0
  4  8  4  0
  4 18  4  0
  4 25  1  0
  5  9  4  0
  5 12  4  0
  6 13  1  0
  6 27  1  0
  7 28  4  0
  8 11  4  0
  9 29  4  0
 10 12  4  0
 11 24  1  0
 11 26  4  0
 12 25  1  0
 13 28  1  0
 14 20  4  0
 14 23  4  0
 15 17  4  0
 15 21  4  0
 16 19  4  0
 16 23  4  0
 17 22  4  0
 18 26  4  0
 19 24  4  0
 20 24  4  0
 22 27  4  0
 28 29  4  0
M  END
$$$$

 Created by Python create_sdf_string function

 29 33  0  0  0  0  0  0  0  0999 V2000
   10.7215   -3.3326   17.6437 C   0  0  0  0  0  0  0  0  0  0  0  0
    9.9489   -3.4675   24.6487 N   0  0  0  0  0  0  0  0  0  0  0  0
   10.0172   -4.4740   17.4101 C   0  0  0  0  0  0  0  0  0  0  0  0
    6.9051   -7.9575   16.4222 C   0  0  0  0  0  0  0  0  0  0  0  0
    8.9969   -6.3552   17.9668 N   0  0  0  0  0  0  0  0  0  0  0  0
   10.6702   -3.9051   22.4070 C   0  0  0  0  0  0  0  0  0  0  0  0
   11.0625   -3.0028   18.8894 C   0  0  0  0  0  0  0  0  0  0  0  0
    5.6180   -7.9194   16.1754 O   0  0  0  0  0  0  0  0  0  0  0  0
    9.7259   -5.3080   18.4485 C   0  0  0  0  0  0  0  0  0  0  0  0
    9.4578   -5.0200   16.3036 N   0  0  0  0  0  0  0  0  0  0  0  0
    5.0287   -8.9365   16.8223 C   0  0  0  0  0  0  0  0  0  0  0  0
    8.7742   -6.1498   16.6764 C   0  0  0  0  0  0  0  0  0  0  0  0
   10.9418   -3.4032   21.2053 O   0  0  0  0  0  0  0  0  0  0  0  0
    1.4797   -8.6258   16.2950 C   0  0  0  0  0  0  0  0  0  0  0  0
    9.2861   -1.2743   25.3585 C   0  0  0  0  0  0  0  0  0  0  0  0
    1.8892  -10.3985   17.7511 N   0  0  0  0  0  0  0  0  0  0  0  0
    9.6210   -0.6952   24.0976 C   0  0  0  0  0  0  0  0  0  0  0  0
    7.0792   -9.0217   17.1429 C   0  0  0  0  0  0  0  0  0  0  0  0
    3.1713  -10.1816   17.6634 C   0  0  0  0  0  0  0  0  0  0  0  0
    2.7878   -8.3822   16.2137 C   0  0  0  0  0  0  0  0  0  0  0  0
    9.4601   -2.6590   25.6528 C   0  0  0  0  0  0  0  0  0  0  0  0
   10.1182   -1.5672   23.1165 C   0  0  0  0  0  0  0  0  0  0  0  0
    1.0552   -9.6360   17.0650 C   0  0  0  0  0  0  0  0  0  0  0  0
    3.6519   -9.1783   16.9039 C   0  0  0  0  0  0  0  0  0  0  0  0
    7.8675   -7.0096   15.9415 C   0  0  0  0  0  0  0  0  0  0  0  0
    5.9733   -9.6553   17.3832 N   0  0  0  0  0  0  0  0  0  0  0  0
   10.2411   -2.9363   23.4301 C   0  0  0  0  0  0  0  0  0  0  0  0
   10.7288   -3.8197   19.9525 C   0  0  0  0  0  0  0  0  0  0  0  0
   10.1189   -5.0054   19.6987 C   0  0  0  0  0  0  0  0  0  0  0  0
  1  3  4  0
  1  7  4  0
  2 21  4  0
  2 27  4  0
  3  9  4  0
  3 10  4  0
  4  8  4  0
  4 18  4  0
  4 25  1  0
  5  9  4  0
  5 12  4  0
  6 13  1  0
  6 27  1  0
  7 28  4  0
  8 11  4  0
  9 29  4  0
 10 12  4  0
 11 24  1  0
 11 26  4  0
 12 25  1  0
 13 28  1  0
 14 20  4  0
 14 23  4  0
 15 17  4  0
 15 21  4  0
 16 19  4  0
 16 23  4  0
 17 22  4  0
 18 26  4  0
 19 24  4  0
 20 24  4  0
 22 27  4  0
 28 29  4  0
M  END
$$$$

 Created by Python create_sdf_string function

 29 33  0  0  0  0  0  0  0  0999 V2000
   10.7215   -3.3326   17.6437 C   0  0  0  0  0  0  0  0  0  0  0  0
    9.9489   -3.4675   24.6487 N   0  0  0  0  0  0  0  0  0  0  0  0
   10.0172   -4.4740   17.4101 C   0  0  0  0  0  0  0  0  0  0  0  0
    6.9051   -7.9575   16.4222 C   0  0  0  0  0  0  0  0  0  0  0  0
    8.9969   -6.3552   17.9668 N   0  0  0  0  0  0  0  0  0  0  0  0
   10.6702   -3.9051   22.4070 C   0  0  0  0  0  0  0  0  0  0  0  0
   11.0625   -3.0028   18.8894 C   0  0  0  0  0  0  0  0  0  0  0  0
    5.6180   -7.9194   16.1754 O   0  0  0  0  0  0  0  0  0  0  0  0
    9.7259   -5.3080   18.4485 C   0  0  0  0  0  0  0  0  0  0  0  0
    9.4578   -5.0200   16.3036 N   0  0  0  0  0  0  0  0  0  0  0  0
    5.0287   -8.9365   16.8223 C   0  0  0  0  0  0  0  0  0  0  0  0
    8.7742   -6.1498   16.6764 C   0  0  0  0  0  0  0  0  0  0  0  0
   10.9418   -3.4032   21.2053 O   0  0  0  0  0  0  0  0  0  0  0  0
    1.4797   -8.6258   16.2950 C   0  0  0  0  0  0  0  0  0  0  0  0
    9.2861   -1.2743   25.3585 C   0  0  0  0  0  0  0  0  0  0  0  0
    1.8892  -10.3985   17.7511 N   0  0  0  0  0  0  0  0  0  0  0  0
    9.6210   -0.6952   24.0976 C   0  0  0  0  0  0  0  0  0  0  0  0
    7.0792   -9.0217   17.1429 C   0  0  0  0  0  0  0  0  0  0  0  0
    3.1713  -10.1816   17.6634 C   0  0  0  0  0  0  0  0  0  0  0  0
    2.7878   -8.3822   16.2137 C   0  0  0  0  0  0  0  0  0  0  0  0
    9.4601   -2.6590   25.6528 C   0  0  0  0  0  0  0  0  0  0  0  0
   10.1182   -1.5672   23.1165 C   0  0  0  0  0  0  0  0  0  0  0  0
    1.0552   -9.6360   17.0650 C   0  0  0  0  0  0  0  0  0  0  0  0
    3.6519   -9.1783   16.9039 C   0  0  0  0  0  0  0  0  0  0  0  0
    7.8675   -7.0096   15.9415 C   0  0  0  0  0  0  0  0  0  0  0  0
    5.9733   -9.6553   17.3832 N   0  0  0  0  0  0  0  0  0  0  0  0
   10.2411   -2.9363   23.4301 C   0  0  0  0  0  0  0  0  0  0  0  0
   10.7288   -3.8197   19.9525 C   0  0  0  0  0  0  0  0  0  0  0  0
   10.1189   -5.0054   19.6987 C   0  0  0  0  0  0  0  0  0  0  0  0
  1  3  4  0
  1  7  4  0
  2 21  4  0
  2 27  4  0
  3  9  4  0
  3 10  4  0
  4  8  4  0
  4 18  4  0
  4 25  1  0
  5  9  4  0
  5 12  4  0
  6 13  1  0
  6 27  1  0
  7 28  4  0
  8 11  4  0
  9 29  4  0
 10 12  4  0
 11 24  1  0
 11 26  4  0
 12 25  1  0
 13 28  1  0
 14 20  4  0
 14 23  4  0
 15 17  4  0
 15 21  4  0
 16 19  4  0
 16 23  4  0
 17 22  4  0
 18 26  4  0
 19 24  4  0
 20 24  4  0
 22 27  4  0
 28 29  4  0
M  END
$$$$

 Created by Python create_sdf_string function

 29 33  0  0  0  0  0  0  0  0999 V2000
   10.7215   -3.3326   17.6437 C   0  0  0  0  0  0  0  0  0  0  0  0
    9.9489   -3.4675   24.6487 N   0  0  0  0  0  0  0  0  0  0  0  0
   10.0172   -4.4740   17.4101 C   0  0  0  0  0  0  0  0  0  0  0  0
    6.9051   -7.9575   16.4222 C   0  0  0  0  0  0  0  0  0  0  0  0
    8.9969   -6.3552   17.9668 N   0  0  0  0  0  0  0  0  0  0  0  0
   10.6702   -3.9051   22.4070 C   0  0  0  0  0  0  0  0  0  0  0  0
   11.0625   -3.0028   18.8894 C   0  0  0  0  0  0  0  0  0  0  0  0
    5.6180   -7.9194   16.1754 O   0  0  0  0  0  0  0  0  0  0  0  0
    9.7259   -5.3080   18.4485 C   0  0  0  0  0  0  0  0  0  0  0  0
    9.4578   -5.0200   16.3036 N   0  0  0  0  0  0  0  0  0  0  0  0
    5.0287   -8.9365   16.8223 C   0  0  0  0  0  0  0  0  0  0  0  0
    8.7742   -6.1498   16.6764 C   0  0  0  0  0  0  0  0  0  0  0  0
   10.9418   -3.4032   21.2053 O   0  0  0  0  0  0  0  0  0  0  0  0
    1.4797   -8.6258   16.2950 C   0  0  0  0  0  0  0  0  0  0  0  0
    9.2861   -1.2743   25.3585 C   0  0  0  0  0  0  0  0  0  0  0  0
    1.8892  -10.3985   17.7511 N   0  0  0  0  0  0  0  0  0  0  0  0
    9.6210   -0.6952   24.0976 C   0  0  0  0  0  0  0  0  0  0  0  0
    7.0792   -9.0217   17.1429 C   0  0  0  0  0  0  0  0  0  0  0  0
    3.1713  -10.1816   17.6634 C   0  0  0  0  0  0  0  0  0  0  0  0
    2.7878   -8.3822   16.2137 C   0  0  0  0  0  0  0  0  0  0  0  0
    9.4601   -2.6590   25.6528 C   0  0  0  0  0  0  0  0  0  0  0  0
   10.1182   -1.5672   23.1165 C   0  0  0  0  0  0  0  0  0  0  0  0
    1.0552   -9.6360   17.0650 C   0  0  0  0  0  0  0  0  0  0  0  0
    3.6519   -9.1783   16.9039 C   0  0  0  0  0  0  0  0  0  0  0  0
    7.8675   -7.0096   15.9415 C   0  0  0  0  0  0  0  0  0  0  0  0
    5.9733   -9.6553   17.3832 N   0  0  0  0  0  0  0  0  0  0  0  0
   10.2411   -2.9363   23.4301 C   0  0  0  0  0  0  0  0  0  0  0  0
   10.7288   -3.8197   19.9525 C   0  0  0  0  0  0  0  0  0  0  0  0
   10.1189   -5.0054   19.6987 C   0  0  0  0  0  0  0  0  0  0  0  0
  1  3  4  0
  1  7  4  0
  2 21  4  0
  2 27  4  0
  3  9  4  0
  3 10  4  0
  4  8  4  0
  4 18  4  0
  4 25  1  0
  5  9  4  0
  5 12  4  0
  6 13  1  0
  6 27  1  0
  7 28  4  0
  8 11  4  0
  9 29  4  0
 10 12  4  0
 11 24  1  0
 11 26  4  0
 12 25  1  0
 13 28  1  0
 14 20  4  0
 14 23  4  0
 15 17  4  0
 15 21  4  0
 16 19  4  0
 16 23  4  0
 17 22  4  0
 18 26  4  0
 19 24  4  0
 20 24  4  0
 22 27  4  0
 28 29  4  0
M  END
$$$$

 Created by Python create_sdf_string function

 29 33  0  0  0  0  0  0  0  0999 V2000
   10.7215   -3.3326   17.6437 C   0  0  0  0  0  0  0  0  0  0  0  0
    9.9489   -3.4675   24.6487 N   0  0  0  0  0  0  0  0  0  0  0  0
   10.0172   -4.4740   17.4101 C   0  0  0  0  0  0  0  0  0  0  0  0
    6.9051   -7.9575   16.4222 C   0  0  0  0  0  0  0  0  0  0  0  0
    8.9969   -6.3552   17.9668 N   0  0  0  0  0  0  0  0  0  0  0  0
   10.6702   -3.9051   22.4070 C   0  0  0  0  0  0  0  0  0  0  0  0
   11.0625   -3.0028   18.8894 C   0  0  0  0  0  0  0  0  0  0  0  0
    5.6180   -7.9194   16.1754 O   0  0  0  0  0  0  0  0  0  0  0  0
    9.7259   -5.3080   18.4485 C   0  0  0  0  0  0  0  0  0  0  0  0
    9.4578   -5.0200   16.3036 N   0  0  0  0  0  0  0  0  0  0  0  0
    5.0287   -8.9365   16.8223 C   0  0  0  0  0  0  0  0  0  0  0  0
    8.7742   -6.1498   16.6764 C   0  0  0  0  0  0  0  0  0  0  0  0
   10.9418   -3.4032   21.2053 O   0  0  0  0  0  0  0  0  0  0  0  0
    1.4797   -8.6258   16.2950 C   0  0  0  0  0  0  0  0  0  0  0  0
    9.2861   -1.2743   25.3585 C   0  0  0  0  0  0  0  0  0  0  0  0
    1.8892  -10.3985   17.7511 N   0  0  0  0  0  0  0  0  0  0  0  0
    9.6210   -0.6952   24.0976 C   0  0  0  0  0  0  0  0  0  0  0  0
    7.0792   -9.0217   17.1429 C   0  0  0  0  0  0  0  0  0  0  0  0
    3.1713  -10.1816   17.6634 C   0  0  0  0  0  0  0  0  0  0  0  0
    2.7878   -8.3822   16.2137 C   0  0  0  0  0  0  0  0  0  0  0  0
    9.4601   -2.6590   25.6528 C   0  0  0  0  0  0  0  0  0  0  0  0
   10.1182   -1.5672   23.1165 C   0  0  0  0  0  0  0  0  0  0  0  0
    1.0552   -9.6360   17.0650 C   0  0  0  0  0  0  0  0  0  0  0  0
    3.6519   -9.1783   16.9039 C   0  0  0  0  0  0  0  0  0  0  0  0
    7.8675   -7.0096   15.9415 C   0  0  0  0  0  0  0  0  0  0  0  0
    5.9733   -9.6553   17.3832 N   0  0  0  0  0  0  0  0  0  0  0  0
   10.2411   -2.9363   23.4301 C   0  0  0  0  0  0  0  0  0  0  0  0
   10.7288   -3.8197   19.9525 C   0  0  0  0  0  0  0  0  0  0  0  0
   10.1189   -5.0054   19.6987 C   0  0  0  0  0  0  0  0  0  0  0  0
  1  3  4  0
  1  7  4  0
  2 21  4  0
  2 27  4  0
  3  9  4  0
  3 10  4  0
  4  8  4  0
  4 18  4  0
  4 25  1  0
  5  9  4  0
  5 12  4  0
  6 13  1  0
  6 27  1  0
  7 28  4  0
  8 11  4  0
  9 29  4  0
 10 12  4  0
 11 24  1  0
 11 26  4  0
 12 25  1  0
 13 28  1  0
 14 20  4  0
 14 23  4  0
 15 17  4  0
 15 21  4  0
 16 19  4  0
 16 23  4  0
 17 22  4  0
 18 26  4  0
 19 24  4  0
 20 24  4  0
 22 27  4  0
 28 29  4  0
M  END
$$$$

 Created by Python create_sdf_string function

 29 33  0  0  0  0  0  0  0  0999 V2000
   10.7215   -3.3326   17.6437 C   0  0  0  0  0  0  0  0  0  0  0  0
    9.9489   -3.4675   24.6487 N   0  0  0  0  0  0  0  0  0  0  0  0
   10.0172   -4.4740   17.4101 C   0  0  0  0  0  0  0  0  0  0  0  0
    6.9051   -7.9575   16.4222 C   0  0  0  0  0  0  0  0  0  0  0  0
    8.9969   -6.3552   17.9668 N   0  0  0  0  0  0  0  0  0  0  0  0
   10.6702   -3.9051   22.4070 C   0  0  0  0  0  0  0  0  0  0  0  0
   11.0625   -3.0028   18.8894 C   0  0  0  0  0  0  0  0  0  0  0  0
    5.6180   -7.9194   16.1754 O   0  0  0  0  0  0  0  0  0  0  0  0
    9.7259   -5.3080   18.4485 C   0  0  0  0  0  0  0  0  0  0  0  0
    9.4578   -5.0200   16.3036 N   0  0  0  0  0  0  0  0  0  0  0  0
    5.0287   -8.9365   16.8223 C   0  0  0  0  0  0  0  0  0  0  0  0
    8.7742   -6.1498   16.6764 C   0  0  0  0  0  0  0  0  0  0  0  0
   10.9418   -3.4032   21.2053 O   0  0  0  0  0  0  0  0  0  0  0  0
    1.4797   -8.6258   16.2950 C   0  0  0  0  0  0  0  0  0  0  0  0
    9.2861   -1.2743   25.3585 C   0  0  0  0  0  0  0  0  0  0  0  0
    1.8892  -10.3985   17.7511 N   0  0  0  0  0  0  0  0  0  0  0  0
    9.6210   -0.6952   24.0976 C   0  0  0  0  0  0  0  0  0  0  0  0
    7.0792   -9.0217   17.1429 C   0  0  0  0  0  0  0  0  0  0  0  0
    3.1713  -10.1816   17.6634 C   0  0  0  0  0  0  0  0  0  0  0  0
    2.7878   -8.3822   16.2137 C   0  0  0  0  0  0  0  0  0  0  0  0
    9.4601   -2.6590   25.6528 C   0  0  0  0  0  0  0  0  0  0  0  0
   10.1182   -1.5672   23.1165 C   0  0  0  0  0  0  0  0  0  0  0  0
    1.0552   -9.6360   17.0650 C   0  0  0  0  0  0  0  0  0  0  0  0
    3.6519   -9.1783   16.9039 C   0  0  0  0  0  0  0  0  0  0  0  0
    7.8675   -7.0096   15.9415 C   0  0  0  0  0  0  0  0  0  0  0  0
    5.9733   -9.6553   17.3832 N   0  0  0  0  0  0  0  0  0  0  0  0
   10.2411   -2.9363   23.4301 C   0  0  0  0  0  0  0  0  0  0  0  0
   10.7288   -3.8197   19.9525 C   0  0  0  0  0  0  0  0  0  0  0  0
   10.1189   -5.0054   19.6987 C   0  0  0  0  0  0  0  0  0  0  0  0
  1  3  4  0
  1  7  4  0
  2 21  4  0
  2 27  4  0
  3  9  4  0
  3 10  4  0
  4  8  4  0
  4 18  4  0
  4 25  1  0
  5  9  4  0
  5 12  4  0
  6 13  1  0
  6 27  1  0
  7 28  4  0
  8 11  4  0
  9 29  4  0
 10 12  4  0
 11 24  1  0
 11 26  4  0
 12 25  1  0
 13 28  1  0
 14 20  4  0
 14 23  4  0
 15 17  4  0
 15 21  4  0
 16 19  4  0
 16 23  4  0
 17 22  4  0
 18 26  4  0
 19 24  4  0
 20 24  4  0
 22 27  4  0
 28 29  4  0
M  END
$$$$

 Created by Python create_sdf_string function

 29 33  0  0  0  0  0  0  0  0999 V2000
   10.7215   -3.3326   17.6437 C   0  0  0  0  0  0  0  0  0  0  0  0
    9.9489   -3.4675   24.6487 N   0  0  0  0  0  0  0  0  0  0  0  0
   10.0172   -4.4740   17.4101 C   0  0  0  0  0  0  0  0  0  0  0  0
    6.9051   -7.9575   16.4222 C   0  0  0  0  0  0  0  0  0  0  0  0
    8.9969   -6.3552   17.9668 N   0  0  0  0  0  0  0  0  0  0  0  0
   10.6702   -3.9051   22.4070 C   0  0  0  0  0  0  0  0  0  0  0  0
   11.0625   -3.0028   18.8894 C   0  0  0  0  0  0  0  0  0  0  0  0
    5.6180   -7.9194   16.1754 O   0  0  0  0  0  0  0  0  0  0  0  0
    9.7259   -5.3080   18.4485 C   0  0  0  0  0  0  0  0  0  0  0  0
    9.4578   -5.0200   16.3036 N   0  0  0  0  0  0  0  0  0  0  0  0
    5.0287   -8.9365   16.8223 C   0  0  0  0  0  0  0  0  0  0  0  0
    8.7742   -6.1498   16.6764 C   0  0  0  0  0  0  0  0  0  0  0  0
   10.9418   -3.4032   21.2053 O   0  0  0  0  0  0  0  0  0  0  0  0
    1.4797   -8.6258   16.2950 C   0  0  0  0  0  0  0  0  0  0  0  0
    9.2861   -1.2743   25.3585 C   0  0  0  0  0  0  0  0  0  0  0  0
    1.8892  -10.3985   17.7511 N   0  0  0  0  0  0  0  0  0  0  0  0
    9.6210   -0.6952   24.0976 C   0  0  0  0  0  0  0  0  0  0  0  0
    7.0792   -9.0217   17.1429 C   0  0  0  0  0  0  0  0  0  0  0  0
    3.1713  -10.1816   17.6634 C   0  0  0  0  0  0  0  0  0  0  0  0
    2.7878   -8.3822   16.2137 C   0  0  0  0  0  0  0  0  0  0  0  0
    9.4601   -2.6590   25.6528 C   0  0  0  0  0  0  0  0  0  0  0  0
   10.1182   -1.5672   23.1165 C   0  0  0  0  0  0  0  0  0  0  0  0
    1.0552   -9.6360   17.0650 C   0  0  0  0  0  0  0  0  0  0  0  0
    3.6519   -9.1783   16.9039 C   0  0  0  0  0  0  0  0  0  0  0  0
    7.8675   -7.0096   15.9415 C   0  0  0  0  0  0  0  0  0  0  0  0
    5.9733   -9.6553   17.3832 N   0  0  0  0  0  0  0  0  0  0  0  0
   10.2411   -2.9363   23.4301 C   0  0  0  0  0  0  0  0  0  0  0  0
   10.7288   -3.8197   19.9525 C   0  0  0  0  0  0  0  0  0  0  0  0
   10.1189   -5.0054   19.6987 C   0  0  0  0  0  0  0  0  0  0  0  0
  1  3  4  0
  1  7  4  0
  2 21  4  0
  2 27  4  0
  3  9  4  0
  3 10  4  0
  4  8  4  0
  4 18  4  0
  4 25  1  0
  5  9  4  0
  5 12  4  0
  6 13  1  0
  6 27  1  0
  7 28  4  0
  8 11  4  0
  9 29  4  0
 10 12  4  0
 11 24  1  0
 11 26  4  0
 12 25  1  0
 13 28  1  0
 14 20  4  0
 14 23  4  0
 15 17  4  0
 15 21  4  0
 16 19  4  0
 16 23  4  0
 17 22  4  0
 18 26  4  0
 19 24  4  0
 20 24  4  0
 22 27  4  0
 28 29  4  0
M  END
$$$$

 Created by Python create_sdf_string function

 29 33  0  0  0  0  0  0  0  0999 V2000
   10.7215   -3.3326   17.6437 C   0  0  0  0  0  0  0  0  0  0  0  0
    9.9489   -3.4675   24.6487 N   0  0  0  0  0  0  0  0  0  0  0  0
   10.0172   -4.4740   17.4101 C   0  0  0  0  0  0  0  0  0  0  0  0
    6.9051   -7.9575   16.4222 C   0  0  0  0  0  0  0  0  0  0  0  0
    8.9969   -6.3552   17.9668 N   0  0  0  0  0  0  0  0  0  0  0  0
   10.6702   -3.9051   22.4070 C   0  0  0  0  0  0  0  0  0  0  0  0
   11.0625   -3.0028   18.8894 C   0  0  0  0  0  0  0  0  0  0  0  0
    5.6180   -7.9194   16.1754 O   0  0  0  0  0  0  0  0  0  0  0  0
    9.7259   -5.3080   18.4485 C   0  0  0  0  0  0  0  0  0  0  0  0
    9.4578   -5.0200   16.3036 N   0  0  0  0  0  0  0  0  0  0  0  0
    5.0287   -8.9365   16.8223 C   0  0  0  0  0  0  0  0  0  0  0  0
    8.7742   -6.1498   16.6764 C   0  0  0  0  0  0  0  0  0  0  0  0
   10.9418   -3.4032   21.2053 O   0  0  0  0  0  0  0  0  0  0  0  0
    1.4797   -8.6258   16.2950 C   0  0  0  0  0  0  0  0  0  0  0  0
    9.2861   -1.2743   25.3585 C   0  0  0  0  0  0  0  0  0  0  0  0
    1.8892  -10.3985   17.7511 N   0  0  0  0  0  0  0  0  0  0  0  0
    9.6210   -0.6952   24.0976 C   0  0  0  0  0  0  0  0  0  0  0  0
    7.0792   -9.0217   17.1429 C   0  0  0  0  0  0  0  0  0  0  0  0
    3.1713  -10.1816   17.6634 C   0  0  0  0  0  0  0  0  0  0  0  0
    2.7878   -8.3822   16.2137 C   0  0  0  0  0  0  0  0  0  0  0  0
    9.4601   -2.6590   25.6528 C   0  0  0  0  0  0  0  0  0  0  0  0
   10.1182   -1.5672   23.1165 C   0  0  0  0  0  0  0  0  0  0  0  0
    1.0552   -9.6360   17.0650 C   0  0  0  0  0  0  0  0  0  0  0  0
    3.6519   -9.1783   16.9039 C   0  0  0  0  0  0  0  0  0  0  0  0
    7.8675   -7.0096   15.9415 C   0  0  0  0  0  0  0  0  0  0  0  0
    5.9733   -9.6553   17.3832 N   0  0  0  0  0  0  0  0  0  0  0  0
   10.2411   -2.9363   23.4301 C   0  0  0  0  0  0  0  0  0  0  0  0
   10.7288   -3.8197   19.9525 C   0  0  0  0  0  0  0  0  0  0  0  0
   10.1189   -5.0054   19.6987 C   0  0  0  0  0  0  0  0  0  0  0  0
  1  3  4  0
  1  7  4  0
  2 21  4  0
  2 27  4  0
  3  9  4  0
  3 10  4  0
  4  8  4  0
  4 18  4  0
  4 25  1  0
  5  9  4  0
  5 12  4  0
  6 13  1  0
  6 27  1  0
  7 28  4  0
  8 11  4  0
  9 29  4  0
 10 12  4  0
 11 24  1  0
 11 26  4  0
 12 25  1  0
 13 28  1  0
 14 20  4  0
 14 23  4  0
 15 17  4  0
 15 21  4  0
 16 19  4  0
 16 23  4  0
 17 22  4  0
 18 26  4  0
 19 24  4  0
 20 24  4  0
 22 27  4  0
 28 29  4  0
M  END
$$$$

 Created by Python create_sdf_string function

 29 33  0  0  0  0  0  0  0  0999 V2000
   10.7215   -3.3326   17.6437 C   0  0  0  0  0  0  0  0  0  0  0  0
    9.9489   -3.4675   24.6487 N   0  0  0  0  0  0  0  0  0  0  0  0
   10.0172   -4.4740   17.4101 C   0  0  0  0  0  0  0  0  0  0  0  0
    6.9051   -7.9575   16.4222 C   0  0  0  0  0  0  0  0  0  0  0  0
    8.9969   -6.3552   17.9668 N   0  0  0  0  0  0  0  0  0  0  0  0
   10.6702   -3.9051   22.4070 C   0  0  0  0  0  0  0  0  0  0  0  0
   11.0625   -3.0028   18.8894 C   0  0  0  0  0  0  0  0  0  0  0  0
    5.6180   -7.9194   16.1754 O   0  0  0  0  0  0  0  0  0  0  0  0
    9.7259   -5.3080   18.4485 C   0  0  0  0  0  0  0  0  0  0  0  0
    9.4578   -5.0200   16.3036 N   0  0  0  0  0  0  0  0  0  0  0  0
    5.0287   -8.9365   16.8223 C   0  0  0  0  0  0  0  0  0  0  0  0
    8.7742   -6.1498   16.6764 C   0  0  0  0  0  0  0  0  0  0  0  0
   10.9418   -3.4032   21.2053 O   0  0  0  0  0  0  0  0  0  0  0  0
    1.4797   -8.6258   16.2950 C   0  0  0  0  0  0  0  0  0  0  0  0
    9.2861   -1.2743   25.3585 C   0  0  0  0  0  0  0  0  0  0  0  0
    1.8892  -10.3985   17.7511 N   0  0  0  0  0  0  0  0  0  0  0  0
    9.6210   -0.6952   24.0976 C   0  0  0  0  0  0  0  0  0  0  0  0
    7.0792   -9.0217   17.1429 C   0  0  0  0  0  0  0  0  0  0  0  0
    3.1713  -10.1816   17.6634 C   0  0  0  0  0  0  0  0  0  0  0  0
    2.7878   -8.3822   16.2137 C   0  0  0  0  0  0  0  0  0  0  0  0
    9.4601   -2.6590   25.6528 C   0  0  0  0  0  0  0  0  0  0  0  0
   10.1182   -1.5672   23.1165 C   0  0  0  0  0  0  0  0  0  0  0  0
    1.0552   -9.6360   17.0650 C   0  0  0  0  0  0  0  0  0  0  0  0
    3.6519   -9.1783   16.9039 C   0  0  0  0  0  0  0  0  0  0  0  0
    7.8675   -7.0096   15.9415 C   0  0  0  0  0  0  0  0  0  0  0  0
    5.9733   -9.6553   17.3832 N   0  0  0  0  0  0  0  0  0  0  0  0
   10.2411   -2.9363   23.4301 C   0  0  0  0  0  0  0  0  0  0  0  0
   10.7288   -3.8197   19.9525 C   0  0  0  0  0  0  0  0  0  0  0  0
   10.1189   -5.0054   19.6987 C   0  0  0  0  0  0  0  0  0  0  0  0
  1  3  4  0
  1  7  4  0
  2 21  4  0
  2 27  4  0
  3  9  4  0
  3 10  4  0
  4  8  4  0
  4 18  4  0
  4 25  1  0
  5  9  4  0
  5 12  4  0
  6 13  1  0
  6 27  1  0
  7 28  4  0
  8 11  4  0
  9 29  4  0
 10 12  4  0
 11 24  1  0
 11 26  4  0
 12 25  1  0
 13 28  1  0
 14 20  4  0
 14 23  4  0
 15 17  4  0
 15 21  4  0
 16 19  4  0
 16 23  4  0
 17 22  4  0
 18 26  4  0
 19 24  4  0
 20 24  4  0
 22 27  4  0
 28 29  4  0
M  END
$$$$

 Created by Python create_sdf_string function

 29 33  0  0  0  0  0  0  0  0999 V2000
   10.7215   -3.3326   17.6437 C   0  0  0  0  0  0  0  0  0  0  0  0
    9.9489   -3.4675   24.6487 N   0  0  0  0  0  0  0  0  0  0  0  0
   10.0172   -4.4740   17.4101 C   0  0  0  0  0  0  0  0  0  0  0  0
    6.9051   -7.9575   16.4222 C   0  0  0  0  0  0  0  0  0  0  0  0
    8.9969   -6.3552   17.9668 N   0  0  0  0  0  0  0  0  0  0  0  0
   10.6702   -3.9051   22.4070 C   0  0  0  0  0  0  0  0  0  0  0  0
   11.0625   -3.0028   18.8894 C   0  0  0  0  0  0  0  0  0  0  0  0
    5.6180   -7.9194   16.1754 O   0  0  0  0  0  0  0  0  0  0  0  0
    9.7259   -5.3080   18.4485 C   0  0  0  0  0  0  0  0  0  0  0  0
    9.4578   -5.0200   16.3036 N   0  0  0  0  0  0  0  0  0  0  0  0
    5.0287   -8.9365   16.8223 C   0  0  0  0  0  0  0  0  0  0  0  0
    8.7742   -6.1498   16.6764 C   0  0  0  0  0  0  0  0  0  0  0  0
   10.9418   -3.4032   21.2053 O   0  0  0  0  0  0  0  0  0  0  0  0
    1.4797   -8.6258   16.2950 C   0  0  0  0  0  0  0  0  0  0  0  0
    9.2861   -1.2743   25.3585 C   0  0  0  0  0  0  0  0  0  0  0  0
    1.8892  -10.3985   17.7511 N   0  0  0  0  0  0  0  0  0  0  0  0
    9.6210   -0.6952   24.0976 C   0  0  0  0  0  0  0  0  0  0  0  0
    7.0792   -9.0217   17.1429 C   0  0  0  0  0  0  0  0  0  0  0  0
    3.1713  -10.1816   17.6634 C   0  0  0  0  0  0  0  0  0  0  0  0
    2.7878   -8.3822   16.2137 C   0  0  0  0  0  0  0  0  0  0  0  0
    9.4601   -2.6590   25.6528 C   0  0  0  0  0  0  0  0  0  0  0  0
   10.1182   -1.5672   23.1165 C   0  0  0  0  0  0  0  0  0  0  0  0
    1.0552   -9.6360   17.0650 C   0  0  0  0  0  0  0  0  0  0  0  0
    3.6519   -9.1783   16.9039 C   0  0  0  0  0  0  0  0  0  0  0  0
    7.8675   -7.0096   15.9415 C   0  0  0  0  0  0  0  0  0  0  0  0
    5.9733   -9.6553   17.3832 N   0  0  0  0  0  0  0  0  0  0  0  0
   10.2411   -2.9363   23.4301 C   0  0  0  0  0  0  0  0  0  0  0  0
   10.7288   -3.8197   19.9525 C   0  0  0  0  0  0  0  0  0  0  0  0
   10.1189   -5.0054   19.6987 C   0  0  0  0  0  0  0  0  0  0  0  0
  1  3  4  0
  1  7  4  0
  2 21  4  0
  2 27  4  0
  3  9  4  0
  3 10  4  0
  4  8  4  0
  4 18  4  0
  4 25  1  0
  5  9  4  0
  5 12  4  0
  6 13  1  0
  6 27  1  0
  7 28  4  0
  8 11  4  0
  9 29  4  0
 10 12  4  0
 11 24  1  0
 11 26  4  0
 12 25  1  0
 13 28  1  0
 14 20  4  0
 14 23  4  0
 15 17  4  0
 15 21  4  0
 16 19  4  0
 16 23  4  0
 17 22  4  0
 18 26  4  0
 19 24  4  0
 20 24  4  0
 22 27  4  0
 28 29  4  0
M  END
$$$$

 Created by Python create_sdf_string function

 29 33  0  0  0  0  0  0  0  0999 V2000
   10.7215   -3.3326   17.6437 C   0  0  0  0  0  0  0  0  0  0  0  0
    9.9489   -3.4675   24.6487 N   0  0  0  0  0  0  0  0  0  0  0  0
   10.0172   -4.4740   17.4101 C   0  0  0  0  0  0  0  0  0  0  0  0
    6.9051   -7.9575   16.4222 C   0  0  0  0  0  0  0  0  0  0  0  0
    8.9969   -6.3552   17.9668 N   0  0  0  0  0  0  0  0  0  0  0  0
   10.6702   -3.9051   22.4070 C   0  0  0  0  0  0  0  0  0  0  0  0
   11.0625   -3.0028   18.8894 C   0  0  0  0  0  0  0  0  0  0  0  0
    5.6180   -7.9194   16.1754 O   0  0  0  0  0  0  0  0  0  0  0  0
    9.7259   -5.3080   18.4485 C   0  0  0  0  0  0  0  0  0  0  0  0
    9.4578   -5.0200   16.3036 N   0  0  0  0  0  0  0  0  0  0  0  0
    5.0287   -8.9365   16.8223 C   0  0  0  0  0  0  0  0  0  0  0  0
    8.7742   -6.1498   16.6764 C   0  0  0  0  0  0  0  0  0  0  0  0
   10.9418   -3.4032   21.2053 O   0  0  0  0  0  0  0  0  0  0  0  0
    1.4797   -8.6258   16.2950 C   0  0  0  0  0  0  0  0  0  0  0  0
    9.2861   -1.2743   25.3585 C   0  0  0  0  0  0  0  0  0  0  0  0
    1.8892  -10.3985   17.7511 N   0  0  0  0  0  0  0  0  0  0  0  0
    9.6210   -0.6952   24.0976 C   0  0  0  0  0  0  0  0  0  0  0  0
    7.0792   -9.0217   17.1429 C   0  0  0  0  0  0  0  0  0  0  0  0
    3.1713  -10.1816   17.6634 C   0  0  0  0  0  0  0  0  0  0  0  0
    2.7878   -8.3822   16.2137 C   0  0  0  0  0  0  0  0  0  0  0  0
    9.4601   -2.6590   25.6528 C   0  0  0  0  0  0  0  0  0  0  0  0
   10.1182   -1.5672   23.1165 C   0  0  0  0  0  0  0  0  0  0  0  0
    1.0552   -9.6360   17.0650 C   0  0  0  0  0  0  0  0  0  0  0  0
    3.6519   -9.1783   16.9039 C   0  0  0  0  0  0  0  0  0  0  0  0
    7.8675   -7.0096   15.9415 C   0  0  0  0  0  0  0  0  0  0  0  0
    5.9733   -9.6553   17.3832 N   0  0  0  0  0  0  0  0  0  0  0  0
   10.2411   -2.9363   23.4301 C   0  0  0  0  0  0  0  0  0  0  0  0
   10.7288   -3.8197   19.9525 C   0  0  0  0  0  0  0  0  0  0  0  0
   10.1189   -5.0054   19.6987 C   0  0  0  0  0  0  0  0  0  0  0  0
  1  3  4  0
  1  7  4  0
  2 21  4  0
  2 27  4  0
  3  9  4  0
  3 10  4  0
  4  8  4  0
  4 18  4  0
  4 25  1  0
  5  9  4  0
  5 12  4  0
  6 13  1  0
  6 27  1  0
  7 28  4  0
  8 11  4  0
  9 29  4  0
 10 12  4  0
 11 24  1  0
 11 26  4  0
 12 25  1  0
 13 28  1  0
 14 20  4  0
 14 23  4  0
 15 17  4  0
 15 21  4  0
 16 19  4  0
 16 23  4  0
 17 22  4  0
 18 26  4  0
 19 24  4  0
 20 24  4  0
 22 27  4  0
 28 29  4  0
M  END
$$$$

 Created by Python create_sdf_string function

 29 33  0  0  0  0  0  0  0  0999 V2000
   10.7215   -3.3326   17.6437 C   0  0  0  0  0  0  0  0  0  0  0  0
    9.9489   -3.4675   24.6487 N   0  0  0  0  0  0  0  0  0  0  0  0
   10.0172   -4.4740   17.4101 C   0  0  0  0  0  0  0  0  0  0  0  0
    6.9051   -7.9575   16.4222 C   0  0  0  0  0  0  0  0  0  0  0  0
    8.9969   -6.3552   17.9668 N   0  0  0  0  0  0  0  0  0  0  0  0
   10.6702   -3.9051   22.4070 C   0  0  0  0  0  0  0  0  0  0  0  0
   11.0625   -3.0028   18.8894 C   0  0  0  0  0  0  0  0  0  0  0  0
    5.6180   -7.9194   16.1754 O   0  0  0  0  0  0  0  0  0  0  0  0
    9.7259   -5.3080   18.4485 C   0  0  0  0  0  0  0  0  0  0  0  0
    9.4578   -5.0200   16.3036 N   0  0  0  0  0  0  0  0  0  0  0  0
    5.0287   -8.9365   16.8223 C   0  0  0  0  0  0  0  0  0  0  0  0
    8.7742   -6.1498   16.6764 C   0  0  0  0  0  0  0  0  0  0  0  0
   10.9418   -3.4032   21.2053 O   0  0  0  0  0  0  0  0  0  0  0  0
    1.4797   -8.6258   16.2950 C   0  0  0  0  0  0  0  0  0  0  0  0
    9.2861   -1.2743   25.3585 C   0  0  0  0  0  0  0  0  0  0  0  0
    1.8892  -10.3985   17.7511 N   0  0  0  0  0  0  0  0  0  0  0  0
    9.6210   -0.6952   24.0976 C   0  0  0  0  0  0  0  0  0  0  0  0
    7.0792   -9.0217   17.1429 C   0  0  0  0  0  0  0  0  0  0  0  0
    3.1713  -10.1816   17.6634 C   0  0  0  0  0  0  0  0  0  0  0  0
    2.7878   -8.3822   16.2137 C   0  0  0  0  0  0  0  0  0  0  0  0
    9.4601   -2.6590   25.6528 C   0  0  0  0  0  0  0  0  0  0  0  0
   10.1182   -1.5672   23.1165 C   0  0  0  0  0  0  0  0  0  0  0  0
    1.0552   -9.6360   17.0650 C   0  0  0  0  0  0  0  0  0  0  0  0
    3.6519   -9.1783   16.9039 C   0  0  0  0  0  0  0  0  0  0  0  0
    7.8675   -7.0096   15.9415 C   0  0  0  0  0  0  0  0  0  0  0  0
    5.9733   -9.6553   17.3832 N   0  0  0  0  0  0  0  0  0  0  0  0
   10.2411   -2.9363   23.4301 C   0  0  0  0  0  0  0  0  0  0  0  0
   10.7288   -3.8197   19.9525 C   0  0  0  0  0  0  0  0  0  0  0  0
   10.1189   -5.0054   19.6987 C   0  0  0  0  0  0  0  0  0  0  0  0
  1  3  4  0
  1  7  4  0
  2 21  4  0
  2 27  4  0
  3  9  4  0
  3 10  4  0
  4  8  4  0
  4 18  4  0
  4 25  1  0
  5  9  4  0
  5 12  4  0
  6 13  1  0
  6 27  1  0
  7 28  4  0
  8 11  4  0
  9 29  4  0
 10 12  4  0
 11 24  1  0
 11 26  4  0
 12 25  1  0
 13 28  1  0
 14 20  4  0
 14 23  4  0
 15 17  4  0
 15 21  4  0
 16 19  4  0
 16 23  4  0
 17 22  4  0
 18 26  4  0
 19 24  4  0
 20 24  4  0
 22 27  4  0
 28 29  4  0
M  END
$$$$

 Created by Python create_sdf_string function

 29 33  0  0  0  0  0  0  0  0999 V2000
   10.7215   -3.3326   17.6437 C   0  0  0  0  0  0  0  0  0  0  0  0
    9.9489   -3.4675   24.6487 N   0  0  0  0  0  0  0  0  0  0  0  0
   10.0172   -4.4740   17.4101 C   0  0  0  0  0  0  0  0  0  0  0  0
    6.9051   -7.9575   16.4222 C   0  0  0  0  0  0  0  0  0  0  0  0
    8.9969   -6.3552   17.9668 N   0  0  0  0  0  0  0  0  0  0  0  0
   10.6702   -3.9051   22.4070 C   0  0  0  0  0  0  0  0  0  0  0  0
   11.0625   -3.0028   18.8894 C   0  0  0  0  0  0  0  0  0  0  0  0
    5.6180   -7.9194   16.1754 O   0  0  0  0  0  0  0  0  0  0  0  0
    9.7259   -5.3080   18.4485 C   0  0  0  0  0  0  0  0  0  0  0  0
    9.4578   -5.0200   16.3036 N   0  0  0  0  0  0  0  0  0  0  0  0
    5.0287   -8.9365   16.8223 C   0  0  0  0  0  0  0  0  0  0  0  0
    8.7742   -6.1498   16.6764 C   0  0  0  0  0  0  0  0  0  0  0  0
   10.9418   -3.4032   21.2053 O   0  0  0  0  0  0  0  0  0  0  0  0
    1.4797   -8.6258   16.2950 C   0  0  0  0  0  0  0  0  0  0  0  0
    9.2861   -1.2743   25.3585 C   0  0  0  0  0  0  0  0  0  0  0  0
    1.8892  -10.3985   17.7511 N   0  0  0  0  0  0  0  0  0  0  0  0
    9.6210   -0.6952   24.0976 C   0  0  0  0  0  0  0  0  0  0  0  0
    7.0792   -9.0217   17.1429 C   0  0  0  0  0  0  0  0  0  0  0  0
    3.1713  -10.1816   17.6634 C   0  0  0  0  0  0  0  0  0  0  0  0
    2.7878   -8.3822   16.2137 C   0  0  0  0  0  0  0  0  0  0  0  0
    9.4601   -2.6590   25.6528 C   0  0  0  0  0  0  0  0  0  0  0  0
   10.1182   -1.5672   23.1165 C   0  0  0  0  0  0  0  0  0  0  0  0
    1.0552   -9.6360   17.0650 C   0  0  0  0  0  0  0  0  0  0  0  0
    3.6519   -9.1783   16.9039 C   0  0  0  0  0  0  0  0  0  0  0  0
    7.8675   -7.0096   15.9415 C   0  0  0  0  0  0  0  0  0  0  0  0
    5.9733   -9.6553   17.3832 N   0  0  0  0  0  0  0  0  0  0  0  0
   10.2411   -2.9363   23.4301 C   0  0  0  0  0  0  0  0  0  0  0  0
   10.7288   -3.8197   19.9525 C   0  0  0  0  0  0  0  0  0  0  0  0
   10.1189   -5.0054   19.6987 C   0  0  0  0  0  0  0  0  0  0  0  0
  1  3  4  0
  1  7  4  0
  2 21  4  0
  2 27  4  0
  3  9  4  0
  3 10  4  0
  4  8  4  0
  4 18  4  0
  4 25  1  0
  5  9  4  0
  5 12  4  0
  6 13  1  0
  6 27  1  0
  7 28  4  0
  8 11  4  0
  9 29  4  0
 10 12  4  0
 11 24  1  0
 11 26  4  0
 12 25  1  0
 13 28  1  0
 14 20  4  0
 14 23  4  0
 15 17  4  0
 15 21  4  0
 16 19  4  0
 16 23  4  0
 17 22  4  0
 18 26  4  0
 19 24  4  0
 20 24  4  0
 22 27  4  0
 28 29  4  0
M  END
$$$$

 Created by Python create_sdf_string function

 29 33  0  0  0  0  0  0  0  0999 V2000
   10.7215   -3.3326   17.6437 C   0  0  0  0  0  0  0  0  0  0  0  0
    9.9489   -3.4675   24.6487 N   0  0  0  0  0  0  0  0  0  0  0  0
   10.0172   -4.4740   17.4101 C   0  0  0  0  0  0  0  0  0  0  0  0
    6.9051   -7.9575   16.4222 C   0  0  0  0  0  0  0  0  0  0  0  0
    8.9969   -6.3552   17.9668 N   0  0  0  0  0  0  0  0  0  0  0  0
   10.6702   -3.9051   22.4070 C   0  0  0  0  0  0  0  0  0  0  0  0
   11.0625   -3.0028   18.8894 C   0  0  0  0  0  0  0  0  0  0  0  0
    5.6180   -7.9194   16.1754 O   0  0  0  0  0  0  0  0  0  0  0  0
    9.7259   -5.3080   18.4485 C   0  0  0  0  0  0  0  0  0  0  0  0
    9.4578   -5.0200   16.3036 N   0  0  0  0  0  0  0  0  0  0  0  0
    5.0287   -8.9365   16.8223 C   0  0  0  0  0  0  0  0  0  0  0  0
    8.7742   -6.1498   16.6764 C   0  0  0  0  0  0  0  0  0  0  0  0
   10.9418   -3.4032   21.2053 O   0  0  0  0  0  0  0  0  0  0  0  0
    1.4797   -8.6258   16.2950 C   0  0  0  0  0  0  0  0  0  0  0  0
    9.2861   -1.2743   25.3585 C   0  0  0  0  0  0  0  0  0  0  0  0
    1.8892  -10.3985   17.7511 N   0  0  0  0  0  0  0  0  0  0  0  0
    9.6210   -0.6952   24.0976 C   0  0  0  0  0  0  0  0  0  0  0  0
    7.0792   -9.0217   17.1429 C   0  0  0  0  0  0  0  0  0  0  0  0
    3.1713  -10.1816   17.6634 C   0  0  0  0  0  0  0  0  0  0  0  0
    2.7878   -8.3822   16.2137 C   0  0  0  0  0  0  0  0  0  0  0  0
    9.4601   -2.6590   25.6528 C   0  0  0  0  0  0  0  0  0  0  0  0
   10.1182   -1.5672   23.1165 C   0  0  0  0  0  0  0  0  0  0  0  0
    1.0552   -9.6360   17.0650 C   0  0  0  0  0  0  0  0  0  0  0  0
    3.6519   -9.1783   16.9039 C   0  0  0  0  0  0  0  0  0  0  0  0
    7.8675   -7.0096   15.9415 C   0  0  0  0  0  0  0  0  0  0  0  0
    5.9733   -9.6553   17.3832 N   0  0  0  0  0  0  0  0  0  0  0  0
   10.2411   -2.9363   23.4301 C   0  0  0  0  0  0  0  0  0  0  0  0
   10.7288   -3.8197   19.9525 C   0  0  0  0  0  0  0  0  0  0  0  0
   10.1189   -5.0054   19.6987 C   0  0  0  0  0  0  0  0  0  0  0  0
  1  3  4  0
  1  7  4  0
  2 21  4  0
  2 27  4  0
  3  9  4  0
  3 10  4  0
  4  8  4  0
  4 18  4  0
  4 25  1  0
  5  9  4  0
  5 12  4  0
  6 13  1  0
  6 27  1  0
  7 28  4  0
  8 11  4  0
  9 29  4  0
 10 12  4  0
 11 24  1  0
 11 26  4  0
 12 25  1  0
 13 28  1  0
 14 20  4  0
 14 23  4  0
 15 17  4  0
 15 21  4  0
 16 19  4  0
 16 23  4  0
 17 22  4  0
 18 26  4  0
 19 24  4  0
 20 24  4  0
 22 27  4  0
 28 29  4  0
M  END
$$$$

 Created by Python create_sdf_string function

 29 33  0  0  0  0  0  0  0  0999 V2000
   10.7215   -3.3326   17.6437 C   0  0  0  0  0  0  0  0  0  0  0  0
    9.9489   -3.4675   24.6487 N   0  0  0  0  0  0  0  0  0  0  0  0
   10.0172   -4.4740   17.4101 C   0  0  0  0  0  0  0  0  0  0  0  0
    6.9051   -7.9575   16.4222 C   0  0  0  0  0  0  0  0  0  0  0  0
    8.9969   -6.3552   17.9668 N   0  0  0  0  0  0  0  0  0  0  0  0
   10.6702   -3.9051   22.4070 C   0  0  0  0  0  0  0  0  0  0  0  0
   11.0625   -3.0028   18.8894 C   0  0  0  0  0  0  0  0  0  0  0  0
    5.6180   -7.9194   16.1754 O   0  0  0  0  0  0  0  0  0  0  0  0
    9.7259   -5.3080   18.4485 C   0  0  0  0  0  0  0  0  0  0  0  0
    9.4578   -5.0200   16.3036 N   0  0  0  0  0  0  0  0  0  0  0  0
    5.0287   -8.9365   16.8223 C   0  0  0  0  0  0  0  0  0  0  0  0
    8.7742   -6.1498   16.6764 C   0  0  0  0  0  0  0  0  0  0  0  0
   10.9418   -3.4032   21.2053 O   0  0  0  0  0  0  0  0  0  0  0  0
    1.4797   -8.6258   16.2950 C   0  0  0  0  0  0  0  0  0  0  0  0
    9.2861   -1.2743   25.3585 C   0  0  0  0  0  0  0  0  0  0  0  0
    1.8892  -10.3985   17.7511 N   0  0  0  0  0  0  0  0  0  0  0  0
    9.6210   -0.6952   24.0976 C   0  0  0  0  0  0  0  0  0  0  0  0
    7.0792   -9.0217   17.1429 C   0  0  0  0  0  0  0  0  0  0  0  0
    3.1713  -10.1816   17.6634 C   0  0  0  0  0  0  0  0  0  0  0  0
    2.7878   -8.3822   16.2137 C   0  0  0  0  0  0  0  0  0  0  0  0
    9.4601   -2.6590   25.6528 C   0  0  0  0  0  0  0  0  0  0  0  0
   10.1182   -1.5672   23.1165 C   0  0  0  0  0  0  0  0  0  0  0  0
    1.0552   -9.6360   17.0650 C   0  0  0  0  0  0  0  0  0  0  0  0
    3.6519   -9.1783   16.9039 C   0  0  0  0  0  0  0  0  0  0  0  0
    7.8675   -7.0096   15.9415 C   0  0  0  0  0  0  0  0  0  0  0  0
    5.9733   -9.6553   17.3832 N   0  0  0  0  0  0  0  0  0  0  0  0
   10.2411   -2.9363   23.4301 C   0  0  0  0  0  0  0  0  0  0  0  0
   10.7288   -3.8197   19.9525 C   0  0  0  0  0  0  0  0  0  0  0  0
   10.1189   -5.0054   19.6987 C   0  0  0  0  0  0  0  0  0  0  0  0
  1  3  4  0
  1  7  4  0
  2 21  4  0
  2 27  4  0
  3  9  4  0
  3 10  4  0
  4  8  4  0
  4 18  4  0
  4 25  1  0
  5  9  4  0
  5 12  4  0
  6 13  1  0
  6 27  1  0
  7 28  4  0
  8 11  4  0
  9 29  4  0
 10 12  4  0
 11 24  1  0
 11 26  4  0
 12 25  1  0
 13 28  1  0
 14 20  4  0
 14 23  4  0
 15 17  4  0
 15 21  4  0
 16 19  4  0
 16 23  4  0
 17 22  4  0
 18 26  4  0
 19 24  4  0
 20 24  4  0
 22 27  4  0
 28 29  4  0
M  END
$$$$

 Created by Python create_sdf_string function

 29 33  0  0  0  0  0  0  0  0999 V2000
   10.7215   -3.3326   17.6437 C   0  0  0  0  0  0  0  0  0  0  0  0
    9.9489   -3.4675   24.6487 N   0  0  0  0  0  0  0  0  0  0  0  0
   10.0172   -4.4740   17.4101 C   0  0  0  0  0  0  0  0  0  0  0  0
    6.9051   -7.9575   16.4222 C   0  0  0  0  0  0  0  0  0  0  0  0
    8.9969   -6.3552   17.9668 N   0  0  0  0  0  0  0  0  0  0  0  0
   10.6702   -3.9051   22.4070 C   0  0  0  0  0  0  0  0  0  0  0  0
   11.0625   -3.0028   18.8894 C   0  0  0  0  0  0  0  0  0  0  0  0
    5.6180   -7.9194   16.1754 O   0  0  0  0  0  0  0  0  0  0  0  0
    9.7259   -5.3080   18.4485 C   0  0  0  0  0  0  0  0  0  0  0  0
    9.4578   -5.0200   16.3036 N   0  0  0  0  0  0  0  0  0  0  0  0
    5.0287   -8.9365   16.8223 C   0  0  0  0  0  0  0  0  0  0  0  0
    8.7742   -6.1498   16.6764 C   0  0  0  0  0  0  0  0  0  0  0  0
   10.9418   -3.4032   21.2053 O   0  0  0  0  0  0  0  0  0  0  0  0
    1.4797   -8.6258   16.2950 C   0  0  0  0  0  0  0  0  0  0  0  0
    9.2861   -1.2743   25.3585 C   0  0  0  0  0  0  0  0  0  0  0  0
    1.8892  -10.3985   17.7511 N   0  0  0  0  0  0  0  0  0  0  0  0
    9.6210   -0.6952   24.0976 C   0  0  0  0  0  0  0  0  0  0  0  0
    7.0792   -9.0217   17.1429 C   0  0  0  0  0  0  0  0  0  0  0  0
    3.1713  -10.1816   17.6634 C   0  0  0  0  0  0  0  0  0  0  0  0
    2.7878   -8.3822   16.2137 C   0  0  0  0  0  0  0  0  0  0  0  0
    9.4601   -2.6590   25.6528 C   0  0  0  0  0  0  0  0  0  0  0  0
   10.1182   -1.5672   23.1165 C   0  0  0  0  0  0  0  0  0  0  0  0
    1.0552   -9.6360   17.0650 C   0  0  0  0  0  0  0  0  0  0  0  0
    3.6519   -9.1783   16.9039 C   0  0  0  0  0  0  0  0  0  0  0  0
    7.8675   -7.0096   15.9415 C   0  0  0  0  0  0  0  0  0  0  0  0
    5.9733   -9.6553   17.3832 N   0  0  0  0  0  0  0  0  0  0  0  0
   10.2411   -2.9363   23.4301 C   0  0  0  0  0  0  0  0  0  0  0  0
   10.7288   -3.8197   19.9525 C   0  0  0  0  0  0  0  0  0  0  0  0
   10.1189   -5.0054   19.6987 C   0  0  0  0  0  0  0  0  0  0  0  0
  1  3  4  0
  1  7  4  0
  2 21  4  0
  2 27  4  0
  3  9  4  0
  3 10  4  0
  4  8  4  0
  4 18  4  0
  4 25  1  0
  5  9  4  0
  5 12  4  0
  6 13  1  0
  6 27  1  0
  7 28  4  0
  8 11  4  0
  9 29  4  0
 10 12  4  0
 11 24  1  0
 11 26  4  0
 12 25  1  0
 13 28  1  0
 14 20  4  0
 14 23  4  0
 15 17  4  0
 15 21  4  0
 16 19  4  0
 16 23  4  0
 17 22  4  0
 18 26  4  0
 19 24  4  0
 20 24  4  0
 22 27  4  0
 28 29  4  0
M  END
$$$$

 Created by Python create_sdf_string function

 29 33  0  0  0  0  0  0  0  0999 V2000
   10.7215   -3.3326   17.6437 C   0  0  0  0  0  0  0  0  0  0  0  0
    9.9489   -3.4675   24.6487 N   0  0  0  0  0  0  0  0  0  0  0  0
   10.0172   -4.4740   17.4101 C   0  0  0  0  0  0  0  0  0  0  0  0
    6.9051   -7.9575   16.4222 C   0  0  0  0  0  0  0  0  0  0  0  0
    8.9969   -6.3552   17.9668 N   0  0  0  0  0  0  0  0  0  0  0  0
   10.6702   -3.9051   22.4070 C   0  0  0  0  0  0  0  0  0  0  0  0
   11.0625   -3.0028   18.8894 C   0  0  0  0  0  0  0  0  0  0  0  0
    5.6180   -7.9194   16.1754 O   0  0  0  0  0  0  0  0  0  0  0  0
    9.7259   -5.3080   18.4485 C   0  0  0  0  0  0  0  0  0  0  0  0
    9.4578   -5.0200   16.3036 N   0  0  0  0  0  0  0  0  0  0  0  0
    5.0287   -8.9365   16.8223 C   0  0  0  0  0  0  0  0  0  0  0  0
    8.7742   -6.1498   16.6764 C   0  0  0  0  0  0  0  0  0  0  0  0
   10.9418   -3.4032   21.2053 O   0  0  0  0  0  0  0  0  0  0  0  0
    1.4797   -8.6258   16.2950 C   0  0  0  0  0  0  0  0  0  0  0  0
    9.2861   -1.2743   25.3585 C   0  0  0  0  0  0  0  0  0  0  0  0
    1.8892  -10.3985   17.7511 N   0  0  0  0  0  0  0  0  0  0  0  0
    9.6210   -0.6952   24.0976 C   0  0  0  0  0  0  0  0  0  0  0  0
    7.0792   -9.0217   17.1429 C   0  0  0  0  0  0  0  0  0  0  0  0
    3.1713  -10.1816   17.6634 C   0  0  0  0  0  0  0  0  0  0  0  0
    2.7878   -8.3822   16.2137 C   0  0  0  0  0  0  0  0  0  0  0  0
    9.4601   -2.6590   25.6528 C   0  0  0  0  0  0  0  0  0  0  0  0
   10.1182   -1.5672   23.1165 C   0  0  0  0  0  0  0  0  0  0  0  0
    1.0552   -9.6360   17.0650 C   0  0  0  0  0  0  0  0  0  0  0  0
    3.6519   -9.1783   16.9039 C   0  0  0  0  0  0  0  0  0  0  0  0
    7.8675   -7.0096   15.9415 C   0  0  0  0  0  0  0  0  0  0  0  0
    5.9733   -9.6553   17.3832 N   0  0  0  0  0  0  0  0  0  0  0  0
   10.2411   -2.9363   23.4301 C   0  0  0  0  0  0  0  0  0  0  0  0
   10.7288   -3.8197   19.9525 C   0  0  0  0  0  0  0  0  0  0  0  0
   10.1189   -5.0054   19.6987 C   0  0  0  0  0  0  0  0  0  0  0  0
  1  3  4  0
  1  7  4  0
  2 21  4  0
  2 27  4  0
  3  9  4  0
  3 10  4  0
  4  8  4  0
  4 18  4  0
  4 25  1  0
  5  9  4  0
  5 12  4  0
  6 13  1  0
  6 27  1  0
  7 28  4  0
  8 11  4  0
  9 29  4  0
 10 12  4  0
 11 24  1  0
 11 26  4  0
 12 25  1  0
 13 28  1  0
 14 20  4  0
 14 23  4  0
 15 17  4  0
 15 21  4  0
 16 19  4  0
 16 23  4  0
 17 22  4  0
 18 26  4  0
 19 24  4  0
 20 24  4  0
 22 27  4  0
 28 29  4  0
M  END
$$$$

 Created by Python create_sdf_string function

 29 33  0  0  0  0  0  0  0  0999 V2000
   10.7215   -3.3326   17.6437 C   0  0  0  0  0  0  0  0  0  0  0  0
    9.9489   -3.4675   24.6487 N   0  0  0  0  0  0  0  0  0  0  0  0
   10.0172   -4.4740   17.4101 C   0  0  0  0  0  0  0  0  0  0  0  0
    6.9051   -7.9575   16.4222 C   0  0  0  0  0  0  0  0  0  0  0  0
    8.9969   -6.3552   17.9668 N   0  0  0  0  0  0  0  0  0  0  0  0
   10.6702   -3.9051   22.4070 C   0  0  0  0  0  0  0  0  0  0  0  0
   11.0625   -3.0028   18.8894 C   0  0  0  0  0  0  0  0  0  0  0  0
    5.6180   -7.9194   16.1754 O   0  0  0  0  0  0  0  0  0  0  0  0
    9.7259   -5.3080   18.4485 C   0  0  0  0  0  0  0  0  0  0  0  0
    9.4578   -5.0200   16.3036 N   0  0  0  0  0  0  0  0  0  0  0  0
    5.0287   -8.9365   16.8223 C   0  0  0  0  0  0  0  0  0  0  0  0
    8.7742   -6.1498   16.6764 C   0  0  0  0  0  0  0  0  0  0  0  0
   10.9418   -3.4032   21.2053 O   0  0  0  0  0  0  0  0  0  0  0  0
    1.4797   -8.6258   16.2950 C   0  0  0  0  0  0  0  0  0  0  0  0
    9.2861   -1.2743   25.3585 C   0  0  0  0  0  0  0  0  0  0  0  0
    1.8892  -10.3985   17.7511 N   0  0  0  0  0  0  0  0  0  0  0  0
    9.6210   -0.6952   24.0976 C   0  0  0  0  0  0  0  0  0  0  0  0
    7.0792   -9.0217   17.1429 C   0  0  0  0  0  0  0  0  0  0  0  0
    3.1713  -10.1816   17.6634 C   0  0  0  0  0  0  0  0  0  0  0  0
    2.7878   -8.3822   16.2137 C   0  0  0  0  0  0  0  0  0  0  0  0
    9.4601   -2.6590   25.6528 C   0  0  0  0  0  0  0  0  0  0  0  0
   10.1182   -1.5672   23.1165 C   0  0  0  0  0  0  0  0  0  0  0  0
    1.0552   -9.6360   17.0650 C   0  0  0  0  0  0  0  0  0  0  0  0
    3.6519   -9.1783   16.9039 C   0  0  0  0  0  0  0  0  0  0  0  0
    7.8675   -7.0096   15.9415 C   0  0  0  0  0  0  0  0  0  0  0  0
    5.9733   -9.6553   17.3832 N   0  0  0  0  0  0  0  0  0  0  0  0
   10.2411   -2.9363   23.4301 C   0  0  0  0  0  0  0  0  0  0  0  0
   10.7288   -3.8197   19.9525 C   0  0  0  0  0  0  0  0  0  0  0  0
   10.1189   -5.0054   19.6987 C   0  0  0  0  0  0  0  0  0  0  0  0
  1  3  4  0
  1  7  4  0
  2 21  4  0
  2 27  4  0
  3  9  4  0
  3 10  4  0
  4  8  4  0
  4 18  4  0
  4 25  1  0
  5  9  4  0
  5 12  4  0
  6 13  1  0
  6 27  1  0
  7 28  4  0
  8 11  4  0
  9 29  4  0
 10 12  4  0
 11 24  1  0
 11 26  4  0
 12 25  1  0
 13 28  1  0
 14 20  4  0
 14 23  4  0
 15 17  4  0
 15 21  4  0
 16 19  4  0
 16 23  4  0
 17 22  4  0
 18 26  4  0
 19 24  4  0
 20 24  4  0
 22 27  4  0
 28 29  4  0
M  END
$$$$

 Created by Python create_sdf_string function

 29 33  0  0  0  0  0  0  0  0999 V2000
   10.7215   -3.3326   17.6437 C   0  0  0  0  0  0  0  0  0  0  0  0
    9.9489   -3.4675   24.6487 N   0  0  0  0  0  0  0  0  0  0  0  0
   10.0172   -4.4740   17.4101 C   0  0  0  0  0  0  0  0  0  0  0  0
    6.9051   -7.9575   16.4222 C   0  0  0  0  0  0  0  0  0  0  0  0
    8.9969   -6.3552   17.9668 N   0  0  0  0  0  0  0  0  0  0  0  0
   10.6702   -3.9051   22.4070 C   0  0  0  0  0  0  0  0  0  0  0  0
   11.0625   -3.0028   18.8894 C   0  0  0  0  0  0  0  0  0  0  0  0
    5.6180   -7.9194   16.1754 O   0  0  0  0  0  0  0  0  0  0  0  0
    9.7259   -5.3080   18.4485 C   0  0  0  0  0  0  0  0  0  0  0  0
    9.4578   -5.0200   16.3036 N   0  0  0  0  0  0  0  0  0  0  0  0
    5.0287   -8.9365   16.8223 C   0  0  0  0  0  0  0  0  0  0  0  0
    8.7742   -6.1498   16.6764 C   0  0  0  0  0  0  0  0  0  0  0  0
   10.9418   -3.4032   21.2053 O   0  0  0  0  0  0  0  0  0  0  0  0
    1.4797   -8.6258   16.2950 C   0  0  0  0  0  0  0  0  0  0  0  0
    9.2861   -1.2743   25.3585 C   0  0  0  0  0  0  0  0  0  0  0  0
    1.8892  -10.3985   17.7511 N   0  0  0  0  0  0  0  0  0  0  0  0
    9.6210   -0.6952   24.0976 C   0  0  0  0  0  0  0  0  0  0  0  0
    7.0792   -9.0217   17.1429 C   0  0  0  0  0  0  0  0  0  0  0  0
    3.1713  -10.1816   17.6634 C   0  0  0  0  0  0  0  0  0  0  0  0
    2.7878   -8.3822   16.2137 C   0  0  0  0  0  0  0  0  0  0  0  0
    9.4601   -2.6590   25.6528 C   0  0  0  0  0  0  0  0  0  0  0  0
   10.1182   -1.5672   23.1165 C   0  0  0  0  0  0  0  0  0  0  0  0
    1.0552   -9.6360   17.0650 C   0  0  0  0  0  0  0  0  0  0  0  0
    3.6519   -9.1783   16.9039 C   0  0  0  0  0  0  0  0  0  0  0  0
    7.8675   -7.0096   15.9415 C   0  0  0  0  0  0  0  0  0  0  0  0
    5.9733   -9.6553   17.3832 N   0  0  0  0  0  0  0  0  0  0  0  0
   10.2411   -2.9363   23.4301 C   0  0  0  0  0  0  0  0  0  0  0  0
   10.7288   -3.8197   19.9525 C   0  0  0  0  0  0  0  0  0  0  0  0
   10.1189   -5.0054   19.6987 C   0  0  0  0  0  0  0  0  0  0  0  0
  1  3  4  0
  1  7  4  0
  2 21  4  0
  2 27  4  0
  3  9  4  0
  3 10  4  0
  4  8  4  0
  4 18  4  0
  4 25  1  0
  5  9  4  0
  5 12  4  0
  6 13  1  0
  6 27  1  0
  7 28  4  0
  8 11  4  0
  9 29  4  0
 10 12  4  0
 11 24  1  0
 11 26  4  0
 12 25  1  0
 13 28  1  0
 14 20  4  0
 14 23  4  0
 15 17  4  0
 15 21  4  0
 16 19  4  0
 16 23  4  0
 17 22  4  0
 18 26  4  0
 19 24  4  0
 20 24  4  0
 22 27  4  0
 28 29  4  0
M  END
$$$$

 Created by Python create_sdf_string function

 29 33  0  0  0  0  0  0  0  0999 V2000
   10.7215   -3.3326   17.6437 C   0  0  0  0  0  0  0  0  0  0  0  0
    9.9489   -3.4675   24.6487 N   0  0  0  0  0  0  0  0  0  0  0  0
   10.0172   -4.4740   17.4101 C   0  0  0  0  0  0  0  0  0  0  0  0
    6.9051   -7.9575   16.4222 C   0  0  0  0  0  0  0  0  0  0  0  0
    8.9969   -6.3552   17.9668 N   0  0  0  0  0  0  0  0  0  0  0  0
   10.6702   -3.9051   22.4070 C   0  0  0  0  0  0  0  0  0  0  0  0
   11.0625   -3.0028   18.8894 C   0  0  0  0  0  0  0  0  0  0  0  0
    5.6180   -7.9194   16.1754 O   0  0  0  0  0  0  0  0  0  0  0  0
    9.7259   -5.3080   18.4485 C   0  0  0  0  0  0  0  0  0  0  0  0
    9.4578   -5.0200   16.3036 N   0  0  0  0  0  0  0  0  0  0  0  0
    5.0287   -8.9365   16.8223 C   0  0  0  0  0  0  0  0  0  0  0  0
    8.7742   -6.1498   16.6764 C   0  0  0  0  0  0  0  0  0  0  0  0
   10.9418   -3.4032   21.2053 O   0  0  0  0  0  0  0  0  0  0  0  0
    1.4797   -8.6258   16.2950 C   0  0  0  0  0  0  0  0  0  0  0  0
    9.2861   -1.2743   25.3585 C   0  0  0  0  0  0  0  0  0  0  0  0
    1.8892  -10.3985   17.7511 N   0  0  0  0  0  0  0  0  0  0  0  0
    9.6210   -0.6952   24.0976 C   0  0  0  0  0  0  0  0  0  0  0  0
    7.0792   -9.0217   17.1429 C   0  0  0  0  0  0  0  0  0  0  0  0
    3.1713  -10.1816   17.6634 C   0  0  0  0  0  0  0  0  0  0  0  0
    2.7878   -8.3822   16.2137 C   0  0  0  0  0  0  0  0  0  0  0  0
    9.4601   -2.6590   25.6528 C   0  0  0  0  0  0  0  0  0  0  0  0
   10.1182   -1.5672   23.1165 C   0  0  0  0  0  0  0  0  0  0  0  0
    1.0552   -9.6360   17.0650 C   0  0  0  0  0  0  0  0  0  0  0  0
    3.6519   -9.1783   16.9039 C   0  0  0  0  0  0  0  0  0  0  0  0
    7.8675   -7.0096   15.9415 C   0  0  0  0  0  0  0  0  0  0  0  0
    5.9733   -9.6553   17.3832 N   0  0  0  0  0  0  0  0  0  0  0  0
   10.2411   -2.9363   23.4301 C   0  0  0  0  0  0  0  0  0  0  0  0
   10.7288   -3.8197   19.9525 C   0  0  0  0  0  0  0  0  0  0  0  0
   10.1189   -5.0054   19.6987 C   0  0  0  0  0  0  0  0  0  0  0  0
  1  3  4  0
  1  7  4  0
  2 21  4  0
  2 27  4  0
  3  9  4  0
  3 10  4  0
  4  8  4  0
  4 18  4  0
  4 25  1  0
  5  9  4  0
  5 12  4  0
  6 13  1  0
  6 27  1  0
  7 28  4  0
  8 11  4  0
  9 29  4  0
 10 12  4  0
 11 24  1  0
 11 26  4  0
 12 25  1  0
 13 28  1  0
 14 20  4  0
 14 23  4  0
 15 17  4  0
 15 21  4  0
 16 19  4  0
 16 23  4  0
 17 22  4  0
 18 26  4  0
 19 24  4  0
 20 24  4  0
 22 27  4  0
 28 29  4  0
M  END
$$$$

 Created by Python create_sdf_string function

 29 33  0  0  0  0  0  0  0  0999 V2000
   10.7215   -3.3326   17.6437 C   0  0  0  0  0  0  0  0  0  0  0  0
    9.9489   -3.4675   24.6487 N   0  0  0  0  0  0  0  0  0  0  0  0
   10.0172   -4.4740   17.4101 C   0  0  0  0  0  0  0  0  0  0  0  0
    6.9051   -7.9575   16.4222 C   0  0  0  0  0  0  0  0  0  0  0  0
    8.9969   -6.3552   17.9668 N   0  0  0  0  0  0  0  0  0  0  0  0
   10.6702   -3.9051   22.4070 C   0  0  0  0  0  0  0  0  0  0  0  0
   11.0625   -3.0028   18.8894 C   0  0  0  0  0  0  0  0  0  0  0  0
    5.6180   -7.9194   16.1754 O   0  0  0  0  0  0  0  0  0  0  0  0
    9.7259   -5.3080   18.4485 C   0  0  0  0  0  0  0  0  0  0  0  0
    9.4578   -5.0200   16.3036 N   0  0  0  0  0  0  0  0  0  0  0  0
    5.0287   -8.9365   16.8223 C   0  0  0  0  0  0  0  0  0  0  0  0
    8.7742   -6.1498   16.6764 C   0  0  0  0  0  0  0  0  0  0  0  0
   10.9418   -3.4032   21.2053 O   0  0  0  0  0  0  0  0  0  0  0  0
    1.4797   -8.6258   16.2950 C   0  0  0  0  0  0  0  0  0  0  0  0
    9.2861   -1.2743   25.3585 C   0  0  0  0  0  0  0  0  0  0  0  0
    1.8892  -10.3985   17.7511 N   0  0  0  0  0  0  0  0  0  0  0  0
    9.6210   -0.6952   24.0976 C   0  0  0  0  0  0  0  0  0  0  0  0
    7.0792   -9.0217   17.1429 C   0  0  0  0  0  0  0  0  0  0  0  0
    3.1713  -10.1816   17.6634 C   0  0  0  0  0  0  0  0  0  0  0  0
    2.7878   -8.3822   16.2137 C   0  0  0  0  0  0  0  0  0  0  0  0
    9.4601   -2.6590   25.6528 C   0  0  0  0  0  0  0  0  0  0  0  0
   10.1182   -1.5672   23.1165 C   0  0  0  0  0  0  0  0  0  0  0  0
    1.0552   -9.6360   17.0650 C   0  0  0  0  0  0  0  0  0  0  0  0
    3.6519   -9.1783   16.9039 C   0  0  0  0  0  0  0  0  0  0  0  0
    7.8675   -7.0096   15.9415 C   0  0  0  0  0  0  0  0  0  0  0  0
    5.9733   -9.6553   17.3832 N   0  0  0  0  0  0  0  0  0  0  0  0
   10.2411   -2.9363   23.4301 C   0  0  0  0  0  0  0  0  0  0  0  0
   10.7288   -3.8197   19.9525 C   0  0  0  0  0  0  0  0  0  0  0  0
   10.1189   -5.0054   19.6987 C   0  0  0  0  0  0  0  0  0  0  0  0
  1  3  4  0
  1  7  4  0
  2 21  4  0
  2 27  4  0
  3  9  4  0
  3 10  4  0
  4  8  4  0
  4 18  4  0
  4 25  1  0
  5  9  4  0
  5 12  4  0
  6 13  1  0
  6 27  1  0
  7 28  4  0
  8 11  4  0
  9 29  4  0
 10 12  4  0
 11 24  1  0
 11 26  4  0
 12 25  1  0
 13 28  1  0
 14 20  4  0
 14 23  4  0
 15 17  4  0
 15 21  4  0
 16 19  4  0
 16 23  4  0
 17 22  4  0
 18 26  4  0
 19 24  4  0
 20 24  4  0
 22 27  4  0
 28 29  4  0
M  END
$$$$

 Created by Python create_sdf_string function

 29 33  0  0  0  0  0  0  0  0999 V2000
   10.7215   -3.3326   17.6437 C   0  0  0  0  0  0  0  0  0  0  0  0
    9.9489   -3.4675   24.6487 N   0  0  0  0  0  0  0  0  0  0  0  0
   10.0172   -4.4740   17.4101 C   0  0  0  0  0  0  0  0  0  0  0  0
    6.9051   -7.9575   16.4222 C   0  0  0  0  0  0  0  0  0  0  0  0
    8.9969   -6.3552   17.9668 N   0  0  0  0  0  0  0  0  0  0  0  0
   10.6702   -3.9051   22.4070 C   0  0  0  0  0  0  0  0  0  0  0  0
   11.0625   -3.0028   18.8894 C   0  0  0  0  0  0  0  0  0  0  0  0
    5.6180   -7.9194   16.1754 O   0  0  0  0  0  0  0  0  0  0  0  0
    9.7259   -5.3080   18.4485 C   0  0  0  0  0  0  0  0  0  0  0  0
    9.4578   -5.0200   16.3036 N   0  0  0  0  0  0  0  0  0  0  0  0
    5.0287   -8.9365   16.8223 C   0  0  0  0  0  0  0  0  0  0  0  0
    8.7742   -6.1498   16.6764 C   0  0  0  0  0  0  0  0  0  0  0  0
   10.9418   -3.4032   21.2053 O   0  0  0  0  0  0  0  0  0  0  0  0
    1.4797   -8.6258   16.2950 C   0  0  0  0  0  0  0  0  0  0  0  0
    9.2861   -1.2743   25.3585 C   0  0  0  0  0  0  0  0  0  0  0  0
    1.8892  -10.3985   17.7511 N   0  0  0  0  0  0  0  0  0  0  0  0
    9.6210   -0.6952   24.0976 C   0  0  0  0  0  0  0  0  0  0  0  0
    7.0792   -9.0217   17.1429 C   0  0  0  0  0  0  0  0  0  0  0  0
    3.1713  -10.1816   17.6634 C   0  0  0  0  0  0  0  0  0  0  0  0
    2.7878   -8.3822   16.2137 C   0  0  0  0  0  0  0  0  0  0  0  0
    9.4601   -2.6590   25.6528 C   0  0  0  0  0  0  0  0  0  0  0  0
   10.1182   -1.5672   23.1165 C   0  0  0  0  0  0  0  0  0  0  0  0
    1.0552   -9.6360   17.0650 C   0  0  0  0  0  0  0  0  0  0  0  0
    3.6519   -9.1783   16.9039 C   0  0  0  0  0  0  0  0  0  0  0  0
    7.8675   -7.0096   15.9415 C   0  0  0  0  0  0  0  0  0  0  0  0
    5.9733   -9.6553   17.3832 N   0  0  0  0  0  0  0  0  0  0  0  0
   10.2411   -2.9363   23.4301 C   0  0  0  0  0  0  0  0  0  0  0  0
   10.7288   -3.8197   19.9525 C   0  0  0  0  0  0  0  0  0  0  0  0
   10.1189   -5.0054   19.6987 C   0  0  0  0  0  0  0  0  0  0  0  0
  1  3  4  0
  1  7  4  0
  2 21  4  0
  2 27  4  0
  3  9  4  0
  3 10  4  0
  4  8  4  0
  4 18  4  0
  4 25  1  0
  5  9  4  0
  5 12  4  0
  6 13  1  0
  6 27  1  0
  7 28  4  0
  8 11  4  0
  9 29  4  0
 10 12  4  0
 11 24  1  0
 11 26  4  0
 12 25  1  0
 13 28  1  0
 14 20  4  0
 14 23  4  0
 15 17  4  0
 15 21  4  0
 16 19  4  0
 16 23  4  0
 17 22  4  0
 18 26  4  0
 19 24  4  0
 20 24  4  0
 22 27  4  0
 28 29  4  0
M  END
$$$$

 Created by Python create_sdf_string function

 29 33  0  0  0  0  0  0  0  0999 V2000
   10.7215   -3.3326   17.6437 C   0  0  0  0  0  0  0  0  0  0  0  0
    9.9489   -3.4675   24.6487 N   0  0  0  0  0  0  0  0  0  0  0  0
   10.0172   -4.4740   17.4101 C   0  0  0  0  0  0  0  0  0  0  0  0
    6.9051   -7.9575   16.4222 C   0  0  0  0  0  0  0  0  0  0  0  0
    8.9969   -6.3552   17.9668 N   0  0  0  0  0  0  0  0  0  0  0  0
   10.6702   -3.9051   22.4070 C   0  0  0  0  0  0  0  0  0  0  0  0
   11.0625   -3.0028   18.8894 C   0  0  0  0  0  0  0  0  0  0  0  0
    5.6180   -7.9194   16.1754 O   0  0  0  0  0  0  0  0  0  0  0  0
    9.7259   -5.3080   18.4485 C   0  0  0  0  0  0  0  0  0  0  0  0
    9.4578   -5.0200   16.3036 N   0  0  0  0  0  0  0  0  0  0  0  0
    5.0287   -8.9365   16.8223 C   0  0  0  0  0  0  0  0  0  0  0  0
    8.7742   -6.1498   16.6764 C   0  0  0  0  0  0  0  0  0  0  0  0
   10.9418   -3.4032   21.2053 O   0  0  0  0  0  0  0  0  0  0  0  0
    1.4797   -8.6258   16.2950 C   0  0  0  0  0  0  0  0  0  0  0  0
    9.2861   -1.2743   25.3585 C   0  0  0  0  0  0  0  0  0  0  0  0
    1.8892  -10.3985   17.7511 N   0  0  0  0  0  0  0  0  0  0  0  0
    9.6210   -0.6952   24.0976 C   0  0  0  0  0  0  0  0  0  0  0  0
    7.0792   -9.0217   17.1429 C   0  0  0  0  0  0  0  0  0  0  0  0
    3.1713  -10.1816   17.6634 C   0  0  0  0  0  0  0  0  0  0  0  0
    2.7878   -8.3822   16.2137 C   0  0  0  0  0  0  0  0  0  0  0  0
    9.4601   -2.6590   25.6528 C   0  0  0  0  0  0  0  0  0  0  0  0
   10.1182   -1.5672   23.1165 C   0  0  0  0  0  0  0  0  0  0  0  0
    1.0552   -9.6360   17.0650 C   0  0  0  0  0  0  0  0  0  0  0  0
    3.6519   -9.1783   16.9039 C   0  0  0  0  0  0  0  0  0  0  0  0
    7.8675   -7.0096   15.9415 C   0  0  0  0  0  0  0  0  0  0  0  0
    5.9733   -9.6553   17.3832 N   0  0  0  0  0  0  0  0  0  0  0  0
   10.2411   -2.9363   23.4301 C   0  0  0  0  0  0  0  0  0  0  0  0
   10.7288   -3.8197   19.9525 C   0  0  0  0  0  0  0  0  0  0  0  0
   10.1189   -5.0054   19.6987 C   0  0  0  0  0  0  0  0  0  0  0  0
  1  3  4  0
  1  7  4  0
  2 21  4  0
  2 27  4  0
  3  9  4  0
  3 10  4  0
  4  8  4  0
  4 18  4  0
  4 25  1  0
  5  9  4  0
  5 12  4  0
  6 13  1  0
  6 27  1  0
  7 28  4  0
  8 11  4  0
  9 29  4  0
 10 12  4  0
 11 24  1  0
 11 26  4  0
 12 25  1  0
 13 28  1  0
 14 20  4  0
 14 23  4  0
 15 17  4  0
 15 21  4  0
 16 19  4  0
 16 23  4  0
 17 22  4  0
 18 26  4  0
 19 24  4  0
 20 24  4  0
 22 27  4  0
 28 29  4  0
M  END
$$$$

 Created by Python create_sdf_string function

 29 33  0  0  0  0  0  0  0  0999 V2000
   10.7215   -3.3326   17.6437 C   0  0  0  0  0  0  0  0  0  0  0  0
    9.9489   -3.4675   24.6487 N   0  0  0  0  0  0  0  0  0  0  0  0
   10.0172   -4.4740   17.4101 C   0  0  0  0  0  0  0  0  0  0  0  0
    6.9051   -7.9575   16.4222 C   0  0  0  0  0  0  0  0  0  0  0  0
    8.9969   -6.3552   17.9668 N   0  0  0  0  0  0  0  0  0  0  0  0
   10.6702   -3.9051   22.4070 C   0  0  0  0  0  0  0  0  0  0  0  0
   11.0625   -3.0028   18.8894 C   0  0  0  0  0  0  0  0  0  0  0  0
    5.6180   -7.9194   16.1754 O   0  0  0  0  0  0  0  0  0  0  0  0
    9.7259   -5.3080   18.4485 C   0  0  0  0  0  0  0  0  0  0  0  0
    9.4578   -5.0200   16.3036 N   0  0  0  0  0  0  0  0  0  0  0  0
    5.0287   -8.9365   16.8223 C   0  0  0  0  0  0  0  0  0  0  0  0
    8.7742   -6.1498   16.6764 C   0  0  0  0  0  0  0  0  0  0  0  0
   10.9418   -3.4032   21.2053 O   0  0  0  0  0  0  0  0  0  0  0  0
    1.4797   -8.6258   16.2950 C   0  0  0  0  0  0  0  0  0  0  0  0
    9.2861   -1.2743   25.3585 C   0  0  0  0  0  0  0  0  0  0  0  0
    1.8892  -10.3985   17.7511 N   0  0  0  0  0  0  0  0  0  0  0  0
    9.6210   -0.6952   24.0976 C   0  0  0  0  0  0  0  0  0  0  0  0
    7.0792   -9.0217   17.1429 C   0  0  0  0  0  0  0  0  0  0  0  0
    3.1713  -10.1816   17.6634 C   0  0  0  0  0  0  0  0  0  0  0  0
    2.7878   -8.3822   16.2137 C   0  0  0  0  0  0  0  0  0  0  0  0
    9.4601   -2.6590   25.6528 C   0  0  0  0  0  0  0  0  0  0  0  0
   10.1182   -1.5672   23.1165 C   0  0  0  0  0  0  0  0  0  0  0  0
    1.0552   -9.6360   17.0650 C   0  0  0  0  0  0  0  0  0  0  0  0
    3.6519   -9.1783   16.9039 C   0  0  0  0  0  0  0  0  0  0  0  0
    7.8675   -7.0096   15.9415 C   0  0  0  0  0  0  0  0  0  0  0  0
    5.9733   -9.6553   17.3832 N   0  0  0  0  0  0  0  0  0  0  0  0
   10.2411   -2.9363   23.4301 C   0  0  0  0  0  0  0  0  0  0  0  0
   10.7288   -3.8197   19.9525 C   0  0  0  0  0  0  0  0  0  0  0  0
   10.1189   -5.0054   19.6987 C   0  0  0  0  0  0  0  0  0  0  0  0
  1  3  4  0
  1  7  4  0
  2 21  4  0
  2 27  4  0
  3  9  4  0
  3 10  4  0
  4  8  4  0
  4 18  4  0
  4 25  1  0
  5  9  4  0
  5 12  4  0
  6 13  1  0
  6 27  1  0
  7 28  4  0
  8 11  4  0
  9 29  4  0
 10 12  4  0
 11 24  1  0
 11 26  4  0
 12 25  1  0
 13 28  1  0
 14 20  4  0
 14 23  4  0
 15 17  4  0
 15 21  4  0
 16 19  4  0
 16 23  4  0
 17 22  4  0
 18 26  4  0
 19 24  4  0
 20 24  4  0
 22 27  4  0
 28 29  4  0
M  END
$$$$

 Created by Python create_sdf_string function

 29 33  0  0  0  0  0  0  0  0999 V2000
   10.7215   -3.3326   17.6437 C   0  0  0  0  0  0  0  0  0  0  0  0
    9.9489   -3.4675   24.6487 N   0  0  0  0  0  0  0  0  0  0  0  0
   10.0172   -4.4740   17.4101 C   0  0  0  0  0  0  0  0  0  0  0  0
    6.9051   -7.9575   16.4222 C   0  0  0  0  0  0  0  0  0  0  0  0
    8.9969   -6.3552   17.9668 N   0  0  0  0  0  0  0  0  0  0  0  0
   10.6702   -3.9051   22.4070 C   0  0  0  0  0  0  0  0  0  0  0  0
   11.0625   -3.0028   18.8894 C   0  0  0  0  0  0  0  0  0  0  0  0
    5.6180   -7.9194   16.1754 O   0  0  0  0  0  0  0  0  0  0  0  0
    9.7259   -5.3080   18.4485 C   0  0  0  0  0  0  0  0  0  0  0  0
    9.4578   -5.0200   16.3036 N   0  0  0  0  0  0  0  0  0  0  0  0
    5.0287   -8.9365   16.8223 C   0  0  0  0  0  0  0  0  0  0  0  0
    8.7742   -6.1498   16.6764 C   0  0  0  0  0  0  0  0  0  0  0  0
   10.9418   -3.4032   21.2053 O   0  0  0  0  0  0  0  0  0  0  0  0
    1.4797   -8.6258   16.2950 C   0  0  0  0  0  0  0  0  0  0  0  0
    9.2861   -1.2743   25.3585 C   0  0  0  0  0  0  0  0  0  0  0  0
    1.8892  -10.3985   17.7511 N   0  0  0  0  0  0  0  0  0  0  0  0
    9.6210   -0.6952   24.0976 C   0  0  0  0  0  0  0  0  0  0  0  0
    7.0792   -9.0217   17.1429 C   0  0  0  0  0  0  0  0  0  0  0  0
    3.1713  -10.1816   17.6634 C   0  0  0  0  0  0  0  0  0  0  0  0
    2.7878   -8.3822   16.2137 C   0  0  0  0  0  0  0  0  0  0  0  0
    9.4601   -2.6590   25.6528 C   0  0  0  0  0  0  0  0  0  0  0  0
   10.1182   -1.5672   23.1165 C   0  0  0  0  0  0  0  0  0  0  0  0
    1.0552   -9.6360   17.0650 C   0  0  0  0  0  0  0  0  0  0  0  0
    3.6519   -9.1783   16.9039 C   0  0  0  0  0  0  0  0  0  0  0  0
    7.8675   -7.0096   15.9415 C   0  0  0  0  0  0  0  0  0  0  0  0
    5.9733   -9.6553   17.3832 N   0  0  0  0  0  0  0  0  0  0  0  0
   10.2411   -2.9363   23.4301 C   0  0  0  0  0  0  0  0  0  0  0  0
   10.7288   -3.8197   19.9525 C   0  0  0  0  0  0  0  0  0  0  0  0
   10.1189   -5.0054   19.6987 C   0  0  0  0  0  0  0  0  0  0  0  0
  1  3  4  0
  1  7  4  0
  2 21  4  0
  2 27  4  0
  3  9  4  0
  3 10  4  0
  4  8  4  0
  4 18  4  0
  4 25  1  0
  5  9  4  0
  5 12  4  0
  6 13  1  0
  6 27  1  0
  7 28  4  0
  8 11  4  0
  9 29  4  0
 10 12  4  0
 11 24  1  0
 11 26  4  0
 12 25  1  0
 13 28  1  0
 14 20  4  0
 14 23  4  0
 15 17  4  0
 15 21  4  0
 16 19  4  0
 16 23  4  0
 17 22  4  0
 18 26  4  0
 19 24  4  0
 20 24  4  0
 22 27  4  0
 28 29  4  0
M  END
$$$$

 Created by Python create_sdf_string function

 29 33  0  0  0  0  0  0  0  0999 V2000
   10.7215   -3.3326   17.6437 C   0  0  0  0  0  0  0  0  0  0  0  0
    9.9489   -3.4675   24.6487 N   0  0  0  0  0  0  0  0  0  0  0  0
   10.0172   -4.4740   17.4101 C   0  0  0  0  0  0  0  0  0  0  0  0
    6.9051   -7.9575   16.4222 C   0  0  0  0  0  0  0  0  0  0  0  0
    8.9969   -6.3552   17.9668 N   0  0  0  0  0  0  0  0  0  0  0  0
   10.6702   -3.9051   22.4070 C   0  0  0  0  0  0  0  0  0  0  0  0
   11.0625   -3.0028   18.8894 C   0  0  0  0  0  0  0  0  0  0  0  0
    5.6180   -7.9194   16.1754 O   0  0  0  0  0  0  0  0  0  0  0  0
    9.7259   -5.3080   18.4485 C   0  0  0  0  0  0  0  0  0  0  0  0
    9.4578   -5.0200   16.3036 N   0  0  0  0  0  0  0  0  0  0  0  0
    5.0287   -8.9365   16.8223 C   0  0  0  0  0  0  0  0  0  0  0  0
    8.7742   -6.1498   16.6764 C   0  0  0  0  0  0  0  0  0  0  0  0
   10.9418   -3.4032   21.2053 O   0  0  0  0  0  0  0  0  0  0  0  0
    1.4797   -8.6258   16.2950 C   0  0  0  0  0  0  0  0  0  0  0  0
    9.2861   -1.2743   25.3585 C   0  0  0  0  0  0  0  0  0  0  0  0
    1.8892  -10.3985   17.7511 N   0  0  0  0  0  0  0  0  0  0  0  0
    9.6210   -0.6952   24.0976 C   0  0  0  0  0  0  0  0  0  0  0  0
    7.0792   -9.0217   17.1429 C   0  0  0  0  0  0  0  0  0  0  0  0
    3.1713  -10.1816   17.6634 C   0  0  0  0  0  0  0  0  0  0  0  0
    2.7878   -8.3822   16.2137 C   0  0  0  0  0  0  0  0  0  0  0  0
    9.4601   -2.6590   25.6528 C   0  0  0  0  0  0  0  0  0  0  0  0
   10.1182   -1.5672   23.1165 C   0  0  0  0  0  0  0  0  0  0  0  0
    1.0552   -9.6360   17.0650 C   0  0  0  0  0  0  0  0  0  0  0  0
    3.6519   -9.1783   16.9039 C   0  0  0  0  0  0  0  0  0  0  0  0
    7.8675   -7.0096   15.9415 C   0  0  0  0  0  0  0  0  0  0  0  0
    5.9733   -9.6553   17.3832 N   0  0  0  0  0  0  0  0  0  0  0  0
   10.2411   -2.9363   23.4301 C   0  0  0  0  0  0  0  0  0  0  0  0
   10.7288   -3.8197   19.9525 C   0  0  0  0  0  0  0  0  0  0  0  0
   10.1189   -5.0054   19.6987 C   0  0  0  0  0  0  0  0  0  0  0  0
  1  3  4  0
  1  7  4  0
  2 21  4  0
  2 27  4  0
  3  9  4  0
  3 10  4  0
  4  8  4  0
  4 18  4  0
  4 25  1  0
  5  9  4  0
  5 12  4  0
  6 13  1  0
  6 27  1  0
  7 28  4  0
  8 11  4  0
  9 29  4  0
 10 12  4  0
 11 24  1  0
 11 26  4  0
 12 25  1  0
 13 28  1  0
 14 20  4  0
 14 23  4  0
 15 17  4  0
 15 21  4  0
 16 19  4  0
 16 23  4  0
 17 22  4  0
 18 26  4  0
 19 24  4  0
 20 24  4  0
 22 27  4  0
 28 29  4  0
M  END
$$$$

 Created by Python create_sdf_string function

 29 33  0  0  0  0  0  0  0  0999 V2000
   10.7215   -3.3326   17.6437 C   0  0  0  0  0  0  0  0  0  0  0  0
    9.9489   -3.4675   24.6487 N   0  0  0  0  0  0  0  0  0  0  0  0
   10.0172   -4.4740   17.4101 C   0  0  0  0  0  0  0  0  0  0  0  0
    6.9051   -7.9575   16.4222 C   0  0  0  0  0  0  0  0  0  0  0  0
    8.9969   -6.3552   17.9668 N   0  0  0  0  0  0  0  0  0  0  0  0
   10.6702   -3.9051   22.4070 C   0  0  0  0  0  0  0  0  0  0  0  0
   11.0625   -3.0028   18.8894 C   0  0  0  0  0  0  0  0  0  0  0  0
    5.6180   -7.9194   16.1754 O   0  0  0  0  0  0  0  0  0  0  0  0
    9.7259   -5.3080   18.4485 C   0  0  0  0  0  0  0  0  0  0  0  0
    9.4578   -5.0200   16.3036 N   0  0  0  0  0  0  0  0  0  0  0  0
    5.0287   -8.9365   16.8223 C   0  0  0  0  0  0  0  0  0  0  0  0
    8.7742   -6.1498   16.6764 C   0  0  0  0  0  0  0  0  0  0  0  0
   10.9418   -3.4032   21.2053 O   0  0  0  0  0  0  0  0  0  0  0  0
    1.4797   -8.6258   16.2950 C   0  0  0  0  0  0  0  0  0  0  0  0
    9.2861   -1.2743   25.3585 C   0  0  0  0  0  0  0  0  0  0  0  0
    1.8892  -10.3985   17.7511 N   0  0  0  0  0  0  0  0  0  0  0  0
    9.6210   -0.6952   24.0976 C   0  0  0  0  0  0  0  0  0  0  0  0
    7.0792   -9.0217   17.1429 C   0  0  0  0  0  0  0  0  0  0  0  0
    3.1713  -10.1816   17.6634 C   0  0  0  0  0  0  0  0  0  0  0  0
    2.7878   -8.3822   16.2137 C   0  0  0  0  0  0  0  0  0  0  0  0
    9.4601   -2.6590   25.6528 C   0  0  0  0  0  0  0  0  0  0  0  0
   10.1182   -1.5672   23.1165 C   0  0  0  0  0  0  0  0  0  0  0  0
    1.0552   -9.6360   17.0650 C   0  0  0  0  0  0  0  0  0  0  0  0
    3.6519   -9.1783   16.9039 C   0  0  0  0  0  0  0  0  0  0  0  0
    7.8675   -7.0096   15.9415 C   0  0  0  0  0  0  0  0  0  0  0  0
    5.9733   -9.6553   17.3832 N   0  0  0  0  0  0  0  0  0  0  0  0
   10.2411   -2.9363   23.4301 C   0  0  0  0  0  0  0  0  0  0  0  0
   10.7288   -3.8197   19.9525 C   0  0  0  0  0  0  0  0  0  0  0  0
   10.1189   -5.0054   19.6987 C   0  0  0  0  0  0  0  0  0  0  0  0
  1  3  4  0
  1  7  4  0
  2 21  4  0
  2 27  4  0
  3  9  4  0
  3 10  4  0
  4  8  4  0
  4 18  4  0
  4 25  1  0
  5  9  4  0
  5 12  4  0
  6 13  1  0
  6 27  1  0
  7 28  4  0
  8 11  4  0
  9 29  4  0
 10 12  4  0
 11 24  1  0
 11 26  4  0
 12 25  1  0
 13 28  1  0
 14 20  4  0
 14 23  4  0
 15 17  4  0
 15 21  4  0
 16 19  4  0
 16 23  4  0
 17 22  4  0
 18 26  4  0
 19 24  4  0
 20 24  4  0
 22 27  4  0
 28 29  4  0
M  END
$$$$

 Created by Python create_sdf_string function

 29 33  0  0  0  0  0  0  0  0999 V2000
   10.7215   -3.3326   17.6437 C   0  0  0  0  0  0  0  0  0  0  0  0
    9.9489   -3.4675   24.6487 N   0  0  0  0  0  0  0  0  0  0  0  0
   10.0172   -4.4740   17.4101 C   0  0  0  0  0  0  0  0  0  0  0  0
    6.9051   -7.9575   16.4222 C   0  0  0  0  0  0  0  0  0  0  0  0
    8.9969   -6.3552   17.9668 N   0  0  0  0  0  0  0  0  0  0  0  0
   10.6702   -3.9051   22.4070 C   0  0  0  0  0  0  0  0  0  0  0  0
   11.0625   -3.0028   18.8894 C   0  0  0  0  0  0  0  0  0  0  0  0
    5.6180   -7.9194   16.1754 O   0  0  0  0  0  0  0  0  0  0  0  0
    9.7259   -5.3080   18.4485 C   0  0  0  0  0  0  0  0  0  0  0  0
    9.4578   -5.0200   16.3036 N   0  0  0  0  0  0  0  0  0  0  0  0
    5.0287   -8.9365   16.8223 C   0  0  0  0  0  0  0  0  0  0  0  0
    8.7742   -6.1498   16.6764 C   0  0  0  0  0  0  0  0  0  0  0  0
   10.9418   -3.4032   21.2053 O   0  0  0  0  0  0  0  0  0  0  0  0
    1.4797   -8.6258   16.2950 C   0  0  0  0  0  0  0  0  0  0  0  0
    9.2861   -1.2743   25.3585 C   0  0  0  0  0  0  0  0  0  0  0  0
    1.8892  -10.3985   17.7511 N   0  0  0  0  0  0  0  0  0  0  0  0
    9.6210   -0.6952   24.0976 C   0  0  0  0  0  0  0  0  0  0  0  0
    7.0792   -9.0217   17.1429 C   0  0  0  0  0  0  0  0  0  0  0  0
    3.1713  -10.1816   17.6634 C   0  0  0  0  0  0  0  0  0  0  0  0
    2.7878   -8.3822   16.2137 C   0  0  0  0  0  0  0  0  0  0  0  0
    9.4601   -2.6590   25.6528 C   0  0  0  0  0  0  0  0  0  0  0  0
   10.1182   -1.5672   23.1165 C   0  0  0  0  0  0  0  0  0  0  0  0
    1.0552   -9.6360   17.0650 C   0  0  0  0  0  0  0  0  0  0  0  0
    3.6519   -9.1783   16.9039 C   0  0  0  0  0  0  0  0  0  0  0  0
    7.8675   -7.0096   15.9415 C   0  0  0  0  0  0  0  0  0  0  0  0
    5.9733   -9.6553   17.3832 N   0  0  0  0  0  0  0  0  0  0  0  0
   10.2411   -2.9363   23.4301 C   0  0  0  0  0  0  0  0  0  0  0  0
   10.7288   -3.8197   19.9525 C   0  0  0  0  0  0  0  0  0  0  0  0
   10.1189   -5.0054   19.6987 C   0  0  0  0  0  0  0  0  0  0  0  0
  1  3  4  0
  1  7  4  0
  2 21  4  0
  2 27  4  0
  3  9  4  0
  3 10  4  0
  4  8  4  0
  4 18  4  0
  4 25  1  0
  5  9  4  0
  5 12  4  0
  6 13  1  0
  6 27  1  0
  7 28  4  0
  8 11  4  0
  9 29  4  0
 10 12  4  0
 11 24  1  0
 11 26  4  0
 12 25  1  0
 13 28  1  0
 14 20  4  0
 14 23  4  0
 15 17  4  0
 15 21  4  0
 16 19  4  0
 16 23  4  0
 17 22  4  0
 18 26  4  0
 19 24  4  0
 20 24  4  0
 22 27  4  0
 28 29  4  0
M  END
$$$$

 Created by Python create_sdf_string function

 29 33  0  0  0  0  0  0  0  0999 V2000
   10.7215   -3.3326   17.6437 C   0  0  0  0  0  0  0  0  0  0  0  0
    9.9489   -3.4675   24.6487 N   0  0  0  0  0  0  0  0  0  0  0  0
   10.0172   -4.4740   17.4101 C   0  0  0  0  0  0  0  0  0  0  0  0
    6.9051   -7.9575   16.4222 C   0  0  0  0  0  0  0  0  0  0  0  0
    8.9969   -6.3552   17.9668 N   0  0  0  0  0  0  0  0  0  0  0  0
   10.6702   -3.9051   22.4070 C   0  0  0  0  0  0  0  0  0  0  0  0
   11.0625   -3.0028   18.8894 C   0  0  0  0  0  0  0  0  0  0  0  0
    5.6180   -7.9194   16.1754 O   0  0  0  0  0  0  0  0  0  0  0  0
    9.7259   -5.3080   18.4485 C   0  0  0  0  0  0  0  0  0  0  0  0
    9.4578   -5.0200   16.3036 N   0  0  0  0  0  0  0  0  0  0  0  0
    5.0287   -8.9365   16.8223 C   0  0  0  0  0  0  0  0  0  0  0  0
    8.7742   -6.1498   16.6764 C   0  0  0  0  0  0  0  0  0  0  0  0
   10.9418   -3.4032   21.2053 O   0  0  0  0  0  0  0  0  0  0  0  0
    1.4797   -8.6258   16.2950 C   0  0  0  0  0  0  0  0  0  0  0  0
    9.2861   -1.2743   25.3585 C   0  0  0  0  0  0  0  0  0  0  0  0
    1.8892  -10.3985   17.7511 N   0  0  0  0  0  0  0  0  0  0  0  0
    9.6210   -0.6952   24.0976 C   0  0  0  0  0  0  0  0  0  0  0  0
    7.0792   -9.0217   17.1429 C   0  0  0  0  0  0  0  0  0  0  0  0
    3.1713  -10.1816   17.6634 C   0  0  0  0  0  0  0  0  0  0  0  0
    2.7878   -8.3822   16.2137 C   0  0  0  0  0  0  0  0  0  0  0  0
    9.4601   -2.6590   25.6528 C   0  0  0  0  0  0  0  0  0  0  0  0
   10.1182   -1.5672   23.1165 C   0  0  0  0  0  0  0  0  0  0  0  0
    1.0552   -9.6360   17.0650 C   0  0  0  0  0  0  0  0  0  0  0  0
    3.6519   -9.1783   16.9039 C   0  0  0  0  0  0  0  0  0  0  0  0
    7.8675   -7.0096   15.9415 C   0  0  0  0  0  0  0  0  0  0  0  0
    5.9733   -9.6553   17.3832 N   0  0  0  0  0  0  0  0  0  0  0  0
   10.2411   -2.9363   23.4301 C   0  0  0  0  0  0  0  0  0  0  0  0
   10.7288   -3.8197   19.9525 C   0  0  0  0  0  0  0  0  0  0  0  0
   10.1189   -5.0054   19.6987 C   0  0  0  0  0  0  0  0  0  0  0  0
  1  3  4  0
  1  7  4  0
  2 21  4  0
  2 27  4  0
  3  9  4  0
  3 10  4  0
  4  8  4  0
  4 18  4  0
  4 25  1  0
  5  9  4  0
  5 12  4  0
  6 13  1  0
  6 27  1  0
  7 28  4  0
  8 11  4  0
  9 29  4  0
 10 12  4  0
 11 24  1  0
 11 26  4  0
 12 25  1  0
 13 28  1  0
 14 20  4  0
 14 23  4  0
 15 17  4  0
 15 21  4  0
 16 19  4  0
 16 23  4  0
 17 22  4  0
 18 26  4  0
 19 24  4  0
 20 24  4  0
 22 27  4  0
 28 29  4  0
M  END
$$$$

 Created by Python create_sdf_string function

 29 33  0  0  0  0  0  0  0  0999 V2000
   10.7215   -3.3326   17.6437 C   0  0  0  0  0  0  0  0  0  0  0  0
    9.9489   -3.4675   24.6487 N   0  0  0  0  0  0  0  0  0  0  0  0
   10.0172   -4.4740   17.4101 C   0  0  0  0  0  0  0  0  0  0  0  0
    6.9051   -7.9575   16.4222 C   0  0  0  0  0  0  0  0  0  0  0  0
    8.9969   -6.3552   17.9668 N   0  0  0  0  0  0  0  0  0  0  0  0
   10.6702   -3.9051   22.4070 C   0  0  0  0  0  0  0  0  0  0  0  0
   11.0625   -3.0028   18.8894 C   0  0  0  0  0  0  0  0  0  0  0  0
    5.6180   -7.9194   16.1754 O   0  0  0  0  0  0  0  0  0  0  0  0
    9.7259   -5.3080   18.4485 C   0  0  0  0  0  0  0  0  0  0  0  0
    9.4578   -5.0200   16.3036 N   0  0  0  0  0  0  0  0  0  0  0  0
    5.0287   -8.9365   16.8223 C   0  0  0  0  0  0  0  0  0  0  0  0
    8.7742   -6.1498   16.6764 C   0  0  0  0  0  0  0  0  0  0  0  0
   10.9418   -3.4032   21.2053 O   0  0  0  0  0  0  0  0  0  0  0  0
    1.4797   -8.6258   16.2950 C   0  0  0  0  0  0  0  0  0  0  0  0
    9.2861   -1.2743   25.3585 C   0  0  0  0  0  0  0  0  0  0  0  0
    1.8892  -10.3985   17.7511 N   0  0  0  0  0  0  0  0  0  0  0  0
    9.6210   -0.6952   24.0976 C   0  0  0  0  0  0  0  0  0  0  0  0
    7.0792   -9.0217   17.1429 C   0  0  0  0  0  0  0  0  0  0  0  0
    3.1713  -10.1816   17.6634 C   0  0  0  0  0  0  0  0  0  0  0  0
    2.7878   -8.3822   16.2137 C   0  0  0  0  0  0  0  0  0  0  0  0
    9.4601   -2.6590   25.6528 C   0  0  0  0  0  0  0  0  0  0  0  0
   10.1182   -1.5672   23.1165 C   0  0  0  0  0  0  0  0  0  0  0  0
    1.0552   -9.6360   17.0650 C   0  0  0  0  0  0  0  0  0  0  0  0
    3.6519   -9.1783   16.9039 C   0  0  0  0  0  0  0  0  0  0  0  0
    7.8675   -7.0096   15.9415 C   0  0  0  0  0  0  0  0  0  0  0  0
    5.9733   -9.6553   17.3832 N   0  0  0  0  0  0  0  0  0  0  0  0
   10.2411   -2.9363   23.4301 C   0  0  0  0  0  0  0  0  0  0  0  0
   10.7288   -3.8197   19.9525 C   0  0  0  0  0  0  0  0  0  0  0  0
   10.1189   -5.0054   19.6987 C   0  0  0  0  0  0  0  0  0  0  0  0
  1  3  4  0
  1  7  4  0
  2 21  4  0
  2 27  4  0
  3  9  4  0
  3 10  4  0
  4  8  4  0
  4 18  4  0
  4 25  1  0
  5  9  4  0
  5 12  4  0
  6 13  1  0
  6 27  1  0
  7 28  4  0
  8 11  4  0
  9 29  4  0
 10 12  4  0
 11 24  1  0
 11 26  4  0
 12 25  1  0
 13 28  1  0
 14 20  4  0
 14 23  4  0
 15 17  4  0
 15 21  4  0
 16 19  4  0
 16 23  4  0
 17 22  4  0
 18 26  4  0
 19 24  4  0
 20 24  4  0
 22 27  4  0
 28 29  4  0
M  END
$$$$

 Created by Python create_sdf_string function

 29 33  0  0  0  0  0  0  0  0999 V2000
   10.7215   -3.3326   17.6437 C   0  0  0  0  0  0  0  0  0  0  0  0
    9.9489   -3.4675   24.6487 N   0  0  0  0  0  0  0  0  0  0  0  0
   10.0172   -4.4740   17.4101 C   0  0  0  0  0  0  0  0  0  0  0  0
    6.9051   -7.9575   16.4222 C   0  0  0  0  0  0  0  0  0  0  0  0
    8.9969   -6.3552   17.9668 N   0  0  0  0  0  0  0  0  0  0  0  0
   10.6702   -3.9051   22.4070 C   0  0  0  0  0  0  0  0  0  0  0  0
   11.0625   -3.0028   18.8894 C   0  0  0  0  0  0  0  0  0  0  0  0
    5.6180   -7.9194   16.1754 O   0  0  0  0  0  0  0  0  0  0  0  0
    9.7259   -5.3080   18.4485 C   0  0  0  0  0  0  0  0  0  0  0  0
    9.4578   -5.0200   16.3036 N   0  0  0  0  0  0  0  0  0  0  0  0
    5.0287   -8.9365   16.8223 C   0  0  0  0  0  0  0  0  0  0  0  0
    8.7742   -6.1498   16.6764 C   0  0  0  0  0  0  0  0  0  0  0  0
   10.9418   -3.4032   21.2053 O   0  0  0  0  0  0  0  0  0  0  0  0
    1.4797   -8.6258   16.2950 C   0  0  0  0  0  0  0  0  0  0  0  0
    9.2861   -1.2743   25.3585 C   0  0  0  0  0  0  0  0  0  0  0  0
    1.8892  -10.3985   17.7511 N   0  0  0  0  0  0  0  0  0  0  0  0
    9.6210   -0.6952   24.0976 C   0  0  0  0  0  0  0  0  0  0  0  0
    7.0792   -9.0217   17.1429 C   0  0  0  0  0  0  0  0  0  0  0  0
    3.1713  -10.1816   17.6634 C   0  0  0  0  0  0  0  0  0  0  0  0
    2.7878   -8.3822   16.2137 C   0  0  0  0  0  0  0  0  0  0  0  0
    9.4601   -2.6590   25.6528 C   0  0  0  0  0  0  0  0  0  0  0  0
   10.1182   -1.5672   23.1165 C   0  0  0  0  0  0  0  0  0  0  0  0
    1.0552   -9.6360   17.0650 C   0  0  0  0  0  0  0  0  0  0  0  0
    3.6519   -9.1783   16.9039 C   0  0  0  0  0  0  0  0  0  0  0  0
    7.8675   -7.0096   15.9415 C   0  0  0  0  0  0  0  0  0  0  0  0
    5.9733   -9.6553   17.3832 N   0  0  0  0  0  0  0  0  0  0  0  0
   10.2411   -2.9363   23.4301 C   0  0  0  0  0  0  0  0  0  0  0  0
   10.7288   -3.8197   19.9525 C   0  0  0  0  0  0  0  0  0  0  0  0
   10.1189   -5.0054   19.6987 C   0  0  0  0  0  0  0  0  0  0  0  0
  1  3  4  0
  1  7  4  0
  2 21  4  0
  2 27  4  0
  3  9  4  0
  3 10  4  0
  4  8  4  0
  4 18  4  0
  4 25  1  0
  5  9  4  0
  5 12  4  0
  6 13  1  0
  6 27  1  0
  7 28  4  0
  8 11  4  0
  9 29  4  0
 10 12  4  0
 11 24  1  0
 11 26  4  0
 12 25  1  0
 13 28  1  0
 14 20  4  0
 14 23  4  0
 15 17  4  0
 15 21  4  0
 16 19  4  0
 16 23  4  0
 17 22  4  0
 18 26  4  0
 19 24  4  0
 20 24  4  0
 22 27  4  0
 28 29  4  0
M  END
$$$$

 Created by Python create_sdf_string function

 29 33  0  0  0  0  0  0  0  0999 V2000
   10.7215   -3.3326   17.6437 C   0  0  0  0  0  0  0  0  0  0  0  0
    9.9489   -3.4675   24.6487 N   0  0  0  0  0  0  0  0  0  0  0  0
   10.0172   -4.4740   17.4101 C   0  0  0  0  0  0  0  0  0  0  0  0
    6.9051   -7.9575   16.4222 C   0  0  0  0  0  0  0  0  0  0  0  0
    8.9969   -6.3552   17.9668 N   0  0  0  0  0  0  0  0  0  0  0  0
   10.6702   -3.9051   22.4070 C   0  0  0  0  0  0  0  0  0  0  0  0
   11.0625   -3.0028   18.8894 C   0  0  0  0  0  0  0  0  0  0  0  0
    5.6180   -7.9194   16.1754 O   0  0  0  0  0  0  0  0  0  0  0  0
    9.7259   -5.3080   18.4485 C   0  0  0  0  0  0  0  0  0  0  0  0
    9.4578   -5.0200   16.3036 N   0  0  0  0  0  0  0  0  0  0  0  0
    5.0287   -8.9365   16.8223 C   0  0  0  0  0  0  0  0  0  0  0  0
    8.7742   -6.1498   16.6764 C   0  0  0  0  0  0  0  0  0  0  0  0
   10.9418   -3.4032   21.2053 O   0  0  0  0  0  0  0  0  0  0  0  0
    1.4797   -8.6258   16.2950 C   0  0  0  0  0  0  0  0  0  0  0  0
    9.2861   -1.2743   25.3585 C   0  0  0  0  0  0  0  0  0  0  0  0
    1.8892  -10.3985   17.7511 N   0  0  0  0  0  0  0  0  0  0  0  0
    9.6210   -0.6952   24.0976 C   0  0  0  0  0  0  0  0  0  0  0  0
    7.0792   -9.0217   17.1429 C   0  0  0  0  0  0  0  0  0  0  0  0
    3.1713  -10.1816   17.6634 C   0  0  0  0  0  0  0  0  0  0  0  0
    2.7878   -8.3822   16.2137 C   0  0  0  0  0  0  0  0  0  0  0  0
    9.4601   -2.6590   25.6528 C   0  0  0  0  0  0  0  0  0  0  0  0
   10.1182   -1.5672   23.1165 C   0  0  0  0  0  0  0  0  0  0  0  0
    1.0552   -9.6360   17.0650 C   0  0  0  0  0  0  0  0  0  0  0  0
    3.6519   -9.1783   16.9039 C   0  0  0  0  0  0  0  0  0  0  0  0
    7.8675   -7.0096   15.9415 C   0  0  0  0  0  0  0  0  0  0  0  0
    5.9733   -9.6553   17.3832 N   0  0  0  0  0  0  0  0  0  0  0  0
   10.2411   -2.9363   23.4301 C   0  0  0  0  0  0  0  0  0  0  0  0
   10.7288   -3.8197   19.9525 C   0  0  0  0  0  0  0  0  0  0  0  0
   10.1189   -5.0054   19.6987 C   0  0  0  0  0  0  0  0  0  0  0  0
  1  3  4  0
  1  7  4  0
  2 21  4  0
  2 27  4  0
  3  9  4  0
  3 10  4  0
  4  8  4  0
  4 18  4  0
  4 25  1  0
  5  9  4  0
  5 12  4  0
  6 13  1  0
  6 27  1  0
  7 28  4  0
  8 11  4  0
  9 29  4  0
 10 12  4  0
 11 24  1  0
 11 26  4  0
 12 25  1  0
 13 28  1  0
 14 20  4  0
 14 23  4  0
 15 17  4  0
 15 21  4  0
 16 19  4  0
 16 23  4  0
 17 22  4  0
 18 26  4  0
 19 24  4  0
 20 24  4  0
 22 27  4  0
 28 29  4  0
M  END
$$$$

 Created by Python create_sdf_string function

 29 33  0  0  0  0  0  0  0  0999 V2000
   10.7215   -3.3326   17.6437 C   0  0  0  0  0  0  0  0  0  0  0  0
    9.9489   -3.4675   24.6487 N   0  0  0  0  0  0  0  0  0  0  0  0
   10.0172   -4.4740   17.4101 C   0  0  0  0  0  0  0  0  0  0  0  0
    6.9051   -7.9575   16.4222 C   0  0  0  0  0  0  0  0  0  0  0  0
    8.9969   -6.3552   17.9668 N   0  0  0  0  0  0  0  0  0  0  0  0
   10.6702   -3.9051   22.4070 C   0  0  0  0  0  0  0  0  0  0  0  0
   11.0625   -3.0028   18.8894 C   0  0  0  0  0  0  0  0  0  0  0  0
    5.6180   -7.9194   16.1754 O   0  0  0  0  0  0  0  0  0  0  0  0
    9.7259   -5.3080   18.4485 C   0  0  0  0  0  0  0  0  0  0  0  0
    9.4578   -5.0200   16.3036 N   0  0  0  0  0  0  0  0  0  0  0  0
    5.0287   -8.9365   16.8223 C   0  0  0  0  0  0  0  0  0  0  0  0
    8.7742   -6.1498   16.6764 C   0  0  0  0  0  0  0  0  0  0  0  0
   10.9418   -3.4032   21.2053 O   0  0  0  0  0  0  0  0  0  0  0  0
    1.4797   -8.6258   16.2950 C   0  0  0  0  0  0  0  0  0  0  0  0
    9.2861   -1.2743   25.3585 C   0  0  0  0  0  0  0  0  0  0  0  0
    1.8892  -10.3985   17.7511 N   0  0  0  0  0  0  0  0  0  0  0  0
    9.6210   -0.6952   24.0976 C   0  0  0  0  0  0  0  0  0  0  0  0
    7.0792   -9.0217   17.1429 C   0  0  0  0  0  0  0  0  0  0  0  0
    3.1713  -10.1816   17.6634 C   0  0  0  0  0  0  0  0  0  0  0  0
    2.7878   -8.3822   16.2137 C   0  0  0  0  0  0  0  0  0  0  0  0
    9.4601   -2.6590   25.6528 C   0  0  0  0  0  0  0  0  0  0  0  0
   10.1182   -1.5672   23.1165 C   0  0  0  0  0  0  0  0  0  0  0  0
    1.0552   -9.6360   17.0650 C   0  0  0  0  0  0  0  0  0  0  0  0
    3.6519   -9.1783   16.9039 C   0  0  0  0  0  0  0  0  0  0  0  0
    7.8675   -7.0096   15.9415 C   0  0  0  0  0  0  0  0  0  0  0  0
    5.9733   -9.6553   17.3832 N   0  0  0  0  0  0  0  0  0  0  0  0
   10.2411   -2.9363   23.4301 C   0  0  0  0  0  0  0  0  0  0  0  0
   10.7288   -3.8197   19.9525 C   0  0  0  0  0  0  0  0  0  0  0  0
   10.1189   -5.0054   19.6987 C   0  0  0  0  0  0  0  0  0  0  0  0
  1  3  4  0
  1  7  4  0
  2 21  4  0
  2 27  4  0
  3  9  4  0
  3 10  4  0
  4  8  4  0
  4 18  4  0
  4 25  1  0
  5  9  4  0
  5 12  4  0
  6 13  1  0
  6 27  1  0
  7 28  4  0
  8 11  4  0
  9 29  4  0
 10 12  4  0
 11 24  1  0
 11 26  4  0
 12 25  1  0
 13 28  1  0
 14 20  4  0
 14 23  4  0
 15 17  4  0
 15 21  4  0
 16 19  4  0
 16 23  4  0
 17 22  4  0
 18 26  4  0
 19 24  4  0
 20 24  4  0
 22 27  4  0
 28 29  4  0
M  END
$$$$

 Created by Python create_sdf_string function

 29 33  0  0  0  0  0  0  0  0999 V2000
   10.7215   -3.3326   17.6437 C   0  0  0  0  0  0  0  0  0  0  0  0
    9.9489   -3.4675   24.6487 N   0  0  0  0  0  0  0  0  0  0  0  0
   10.0172   -4.4740   17.4101 C   0  0  0  0  0  0  0  0  0  0  0  0
    6.9051   -7.9575   16.4222 C   0  0  0  0  0  0  0  0  0  0  0  0
    8.9969   -6.3552   17.9668 N   0  0  0  0  0  0  0  0  0  0  0  0
   10.6702   -3.9051   22.4070 C   0  0  0  0  0  0  0  0  0  0  0  0
   11.0625   -3.0028   18.8894 C   0  0  0  0  0  0  0  0  0  0  0  0
    5.6180   -7.9194   16.1754 O   0  0  0  0  0  0  0  0  0  0  0  0
    9.7259   -5.3080   18.4485 C   0  0  0  0  0  0  0  0  0  0  0  0
    9.4578   -5.0200   16.3036 N   0  0  0  0  0  0  0  0  0  0  0  0
    5.0287   -8.9365   16.8223 C   0  0  0  0  0  0  0  0  0  0  0  0
    8.7742   -6.1498   16.6764 C   0  0  0  0  0  0  0  0  0  0  0  0
   10.9418   -3.4032   21.2053 O   0  0  0  0  0  0  0  0  0  0  0  0
    1.4797   -8.6258   16.2950 C   0  0  0  0  0  0  0  0  0  0  0  0
    9.2861   -1.2743   25.3585 C   0  0  0  0  0  0  0  0  0  0  0  0
    1.8892  -10.3985   17.7511 N   0  0  0  0  0  0  0  0  0  0  0  0
    9.6210   -0.6952   24.0976 C   0  0  0  0  0  0  0  0  0  0  0  0
    7.0792   -9.0217   17.1429 C   0  0  0  0  0  0  0  0  0  0  0  0
    3.1713  -10.1816   17.6634 C   0  0  0  0  0  0  0  0  0  0  0  0
    2.7878   -8.3822   16.2137 C   0  0  0  0  0  0  0  0  0  0  0  0
    9.4601   -2.6590   25.6528 C   0  0  0  0  0  0  0  0  0  0  0  0
   10.1182   -1.5672   23.1165 C   0  0  0  0  0  0  0  0  0  0  0  0
    1.0552   -9.6360   17.0650 C   0  0  0  0  0  0  0  0  0  0  0  0
    3.6519   -9.1783   16.9039 C   0  0  0  0  0  0  0  0  0  0  0  0
    7.8675   -7.0096   15.9415 C   0  0  0  0  0  0  0  0  0  0  0  0
    5.9733   -9.6553   17.3832 N   0  0  0  0  0  0  0  0  0  0  0  0
   10.2411   -2.9363   23.4301 C   0  0  0  0  0  0  0  0  0  0  0  0
   10.7288   -3.8197   19.9525 C   0  0  0  0  0  0  0  0  0  0  0  0
   10.1189   -5.0054   19.6987 C   0  0  0  0  0  0  0  0  0  0  0  0
  1  3  4  0
  1  7  4  0
  2 21  4  0
  2 27  4  0
  3  9  4  0
  3 10  4  0
  4  8  4  0
  4 18  4  0
  4 25  1  0
  5  9  4  0
  5 12  4  0
  6 13  1  0
  6 27  1  0
  7 28  4  0
  8 11  4  0
  9 29  4  0
 10 12  4  0
 11 24  1  0
 11 26  4  0
 12 25  1  0
 13 28  1  0
 14 20  4  0
 14 23  4  0
 15 17  4  0
 15 21  4  0
 16 19  4  0
 16 23  4  0
 17 22  4  0
 18 26  4  0
 19 24  4  0
 20 24  4  0
 22 27  4  0
 28 29  4  0
M  END
$$$$

 Created by Python create_sdf_string function

 29 33  0  0  0  0  0  0  0  0999 V2000
   10.7215   -3.3326   17.6437 C   0  0  0  0  0  0  0  0  0  0  0  0
    9.9489   -3.4675   24.6487 N   0  0  0  0  0  0  0  0  0  0  0  0
   10.0172   -4.4740   17.4101 C   0  0  0  0  0  0  0  0  0  0  0  0
    6.9051   -7.9575   16.4222 C   0  0  0  0  0  0  0  0  0  0  0  0
    8.9969   -6.3552   17.9668 N   0  0  0  0  0  0  0  0  0  0  0  0
   10.6702   -3.9051   22.4070 C   0  0  0  0  0  0  0  0  0  0  0  0
   11.0625   -3.0028   18.8894 C   0  0  0  0  0  0  0  0  0  0  0  0
    5.6180   -7.9194   16.1754 O   0  0  0  0  0  0  0  0  0  0  0  0
    9.7259   -5.3080   18.4485 C   0  0  0  0  0  0  0  0  0  0  0  0
    9.4578   -5.0200   16.3036 N   0  0  0  0  0  0  0  0  0  0  0  0
    5.0287   -8.9365   16.8223 C   0  0  0  0  0  0  0  0  0  0  0  0
    8.7742   -6.1498   16.6764 C   0  0  0  0  0  0  0  0  0  0  0  0
   10.9418   -3.4032   21.2053 O   0  0  0  0  0  0  0  0  0  0  0  0
    1.4797   -8.6258   16.2950 C   0  0  0  0  0  0  0  0  0  0  0  0
    9.2861   -1.2743   25.3585 C   0  0  0  0  0  0  0  0  0  0  0  0
    1.8892  -10.3985   17.7511 N   0  0  0  0  0  0  0  0  0  0  0  0
    9.6210   -0.6952   24.0976 C   0  0  0  0  0  0  0  0  0  0  0  0
    7.0792   -9.0217   17.1429 C   0  0  0  0  0  0  0  0  0  0  0  0
    3.1713  -10.1816   17.6634 C   0  0  0  0  0  0  0  0  0  0  0  0
    2.7878   -8.3822   16.2137 C   0  0  0  0  0  0  0  0  0  0  0  0
    9.4601   -2.6590   25.6528 C   0  0  0  0  0  0  0  0  0  0  0  0
   10.1182   -1.5672   23.1165 C   0  0  0  0  0  0  0  0  0  0  0  0
    1.0552   -9.6360   17.0650 C   0  0  0  0  0  0  0  0  0  0  0  0
    3.6519   -9.1783   16.9039 C   0  0  0  0  0  0  0  0  0  0  0  0
    7.8675   -7.0096   15.9415 C   0  0  0  0  0  0  0  0  0  0  0  0
    5.9733   -9.6553   17.3832 N   0  0  0  0  0  0  0  0  0  0  0  0
   10.2411   -2.9363   23.4301 C   0  0  0  0  0  0  0  0  0  0  0  0
   10.7288   -3.8197   19.9525 C   0  0  0  0  0  0  0  0  0  0  0  0
   10.1189   -5.0054   19.6987 C   0  0  0  0  0  0  0  0  0  0  0  0
  1  3  4  0
  1  7  4  0
  2 21  4  0
  2 27  4  0
  3  9  4  0
  3 10  4  0
  4  8  4  0
  4 18  4  0
  4 25  1  0
  5  9  4  0
  5 12  4  0
  6 13  1  0
  6 27  1  0
  7 28  4  0
  8 11  4  0
  9 29  4  0
 10 12  4  0
 11 24  1  0
 11 26  4  0
 12 25  1  0
 13 28  1  0
 14 20  4  0
 14 23  4  0
 15 17  4  0
 15 21  4  0
 16 19  4  0
 16 23  4  0
 17 22  4  0
 18 26  4  0
 19 24  4  0
 20 24  4  0
 22 27  4  0
 28 29  4  0
M  END
$$$$

 Created by Python create_sdf_string function

 29 33  0  0  0  0  0  0  0  0999 V2000
   10.7215   -3.3326   17.6437 C   0  0  0  0  0  0  0  0  0  0  0  0
    9.9489   -3.4675   24.6487 N   0  0  0  0  0  0  0  0  0  0  0  0
   10.0172   -4.4740   17.4101 C   0  0  0  0  0  0  0  0  0  0  0  0
    6.9051   -7.9575   16.4222 C   0  0  0  0  0  0  0  0  0  0  0  0
    8.9969   -6.3552   17.9668 N   0  0  0  0  0  0  0  0  0  0  0  0
   10.6702   -3.9051   22.4070 C   0  0  0  0  0  0  0  0  0  0  0  0
   11.0625   -3.0028   18.8894 C   0  0  0  0  0  0  0  0  0  0  0  0
    5.6180   -7.9194   16.1754 O   0  0  0  0  0  0  0  0  0  0  0  0
    9.7259   -5.3080   18.4485 C   0  0  0  0  0  0  0  0  0  0  0  0
    9.4578   -5.0200   16.3036 N   0  0  0  0  0  0  0  0  0  0  0  0
    5.0287   -8.9365   16.8223 C   0  0  0  0  0  0  0  0  0  0  0  0
    8.7742   -6.1498   16.6764 C   0  0  0  0  0  0  0  0  0  0  0  0
   10.9418   -3.4032   21.2053 O   0  0  0  0  0  0  0  0  0  0  0  0
    1.4797   -8.6258   16.2950 C   0  0  0  0  0  0  0  0  0  0  0  0
    9.2861   -1.2743   25.3585 C   0  0  0  0  0  0  0  0  0  0  0  0
    1.8892  -10.3985   17.7511 N   0  0  0  0  0  0  0  0  0  0  0  0
    9.6210   -0.6952   24.0976 C   0  0  0  0  0  0  0  0  0  0  0  0
    7.0792   -9.0217   17.1429 C   0  0  0  0  0  0  0  0  0  0  0  0
    3.1713  -10.1816   17.6634 C   0  0  0  0  0  0  0  0  0  0  0  0
    2.7878   -8.3822   16.2137 C   0  0  0  0  0  0  0  0  0  0  0  0
    9.4601   -2.6590   25.6528 C   0  0  0  0  0  0  0  0  0  0  0  0
   10.1182   -1.5672   23.1165 C   0  0  0  0  0  0  0  0  0  0  0  0
    1.0552   -9.6360   17.0650 C   0  0  0  0  0  0  0  0  0  0  0  0
    3.6519   -9.1783   16.9039 C   0  0  0  0  0  0  0  0  0  0  0  0
    7.8675   -7.0096   15.9415 C   0  0  0  0  0  0  0  0  0  0  0  0
    5.9733   -9.6553   17.3832 N   0  0  0  0  0  0  0  0  0  0  0  0
   10.2411   -2.9363   23.4301 C   0  0  0  0  0  0  0  0  0  0  0  0
   10.7288   -3.8197   19.9525 C   0  0  0  0  0  0  0  0  0  0  0  0
   10.1189   -5.0054   19.6987 C   0  0  0  0  0  0  0  0  0  0  0  0
  1  3  4  0
  1  7  4  0
  2 21  4  0
  2 27  4  0
  3  9  4  0
  3 10  4  0
  4  8  4  0
  4 18  4  0
  4 25  1  0
  5  9  4  0
  5 12  4  0
  6 13  1  0
  6 27  1  0
  7 28  4  0
  8 11  4  0
  9 29  4  0
 10 12  4  0
 11 24  1  0
 11 26  4  0
 12 25  1  0
 13 28  1  0
 14 20  4  0
 14 23  4  0
 15 17  4  0
 15 21  4  0
 16 19  4  0
 16 23  4  0
 17 22  4  0
 18 26  4  0
 19 24  4  0
 20 24  4  0
 22 27  4  0
 28 29  4  0
M  END
$$$$

 Created by Python create_sdf_string function

 29 33  0  0  0  0  0  0  0  0999 V2000
   10.7215   -3.3326   17.6437 C   0  0  0  0  0  0  0  0  0  0  0  0
    9.9489   -3.4675   24.6487 N   0  0  0  0  0  0  0  0  0  0  0  0
   10.0172   -4.4740   17.4101 C   0  0  0  0  0  0  0  0  0  0  0  0
    6.9051   -7.9575   16.4222 C   0  0  0  0  0  0  0  0  0  0  0  0
    8.9969   -6.3552   17.9668 N   0  0  0  0  0  0  0  0  0  0  0  0
   10.6702   -3.9051   22.4070 C   0  0  0  0  0  0  0  0  0  0  0  0
   11.0625   -3.0028   18.8894 C   0  0  0  0  0  0  0  0  0  0  0  0
    5.6180   -7.9194   16.1754 O   0  0  0  0  0  0  0  0  0  0  0  0
    9.7259   -5.3080   18.4485 C   0  0  0  0  0  0  0  0  0  0  0  0
    9.4578   -5.0200   16.3036 N   0  0  0  0  0  0  0  0  0  0  0  0
    5.0287   -8.9365   16.8223 C   0  0  0  0  0  0  0  0  0  0  0  0
    8.7742   -6.1498   16.6764 C   0  0  0  0  0  0  0  0  0  0  0  0
   10.9418   -3.4032   21.2053 O   0  0  0  0  0  0  0  0  0  0  0  0
    1.4797   -8.6258   16.2950 C   0  0  0  0  0  0  0  0  0  0  0  0
    9.2861   -1.2743   25.3585 C   0  0  0  0  0  0  0  0  0  0  0  0
    1.8892  -10.3985   17.7511 N   0  0  0  0  0  0  0  0  0  0  0  0
    9.6210   -0.6952   24.0976 C   0  0  0  0  0  0  0  0  0  0  0  0
    7.0792   -9.0217   17.1429 C   0  0  0  0  0  0  0  0  0  0  0  0
    3.1713  -10.1816   17.6634 C   0  0  0  0  0  0  0  0  0  0  0  0
    2.7878   -8.3822   16.2137 C   0  0  0  0  0  0  0  0  0  0  0  0
    9.4601   -2.6590   25.6528 C   0  0  0  0  0  0  0  0  0  0  0  0
   10.1182   -1.5672   23.1165 C   0  0  0  0  0  0  0  0  0  0  0  0
    1.0552   -9.6360   17.0650 C   0  0  0  0  0  0  0  0  0  0  0  0
    3.6519   -9.1783   16.9039 C   0  0  0  0  0  0  0  0  0  0  0  0
    7.8675   -7.0096   15.9415 C   0  0  0  0  0  0  0  0  0  0  0  0
    5.9733   -9.6553   17.3832 N   0  0  0  0  0  0  0  0  0  0  0  0
   10.2411   -2.9363   23.4301 C   0  0  0  0  0  0  0  0  0  0  0  0
   10.7288   -3.8197   19.9525 C   0  0  0  0  0  0  0  0  0  0  0  0
   10.1189   -5.0054   19.6987 C   0  0  0  0  0  0  0  0  0  0  0  0
  1  3  4  0
  1  7  4  0
  2 21  4  0
  2 27  4  0
  3  9  4  0
  3 10  4  0
  4  8  4  0
  4 18  4  0
  4 25  1  0
  5  9  4  0
  5 12  4  0
  6 13  1  0
  6 27  1  0
  7 28  4  0
  8 11  4  0
  9 29  4  0
 10 12  4  0
 11 24  1  0
 11 26  4  0
 12 25  1  0
 13 28  1  0
 14 20  4  0
 14 23  4  0
 15 17  4  0
 15 21  4  0
 16 19  4  0
 16 23  4  0
 17 22  4  0
 18 26  4  0
 19 24  4  0
 20 24  4  0
 22 27  4  0
 28 29  4  0
M  END
$$$$

 Created by Python create_sdf_string function

 29 33  0  0  0  0  0  0  0  0999 V2000
   10.7215   -3.3326   17.6437 C   0  0  0  0  0  0  0  0  0  0  0  0
    9.9489   -3.4675   24.6487 N   0  0  0  0  0  0  0  0  0  0  0  0
   10.0172   -4.4740   17.4101 C   0  0  0  0  0  0  0  0  0  0  0  0
    6.9051   -7.9575   16.4222 C   0  0  0  0  0  0  0  0  0  0  0  0
    8.9969   -6.3552   17.9668 N   0  0  0  0  0  0  0  0  0  0  0  0
   10.6702   -3.9051   22.4070 C   0  0  0  0  0  0  0  0  0  0  0  0
   11.0625   -3.0028   18.8894 C   0  0  0  0  0  0  0  0  0  0  0  0
    5.6180   -7.9194   16.1754 O   0  0  0  0  0  0  0  0  0  0  0  0
    9.7259   -5.3080   18.4485 C   0  0  0  0  0  0  0  0  0  0  0  0
    9.4578   -5.0200   16.3036 N   0  0  0  0  0  0  0  0  0  0  0  0
    5.0287   -8.9365   16.8223 C   0  0  0  0  0  0  0  0  0  0  0  0
    8.7742   -6.1498   16.6764 C   0  0  0  0  0  0  0  0  0  0  0  0
   10.9418   -3.4032   21.2053 O   0  0  0  0  0  0  0  0  0  0  0  0
    1.4797   -8.6258   16.2950 C   0  0  0  0  0  0  0  0  0  0  0  0
    9.2861   -1.2743   25.3585 C   0  0  0  0  0  0  0  0  0  0  0  0
    1.8892  -10.3985   17.7511 N   0  0  0  0  0  0  0  0  0  0  0  0
    9.6210   -0.6952   24.0976 C   0  0  0  0  0  0  0  0  0  0  0  0
    7.0792   -9.0217   17.1429 C   0  0  0  0  0  0  0  0  0  0  0  0
    3.1713  -10.1816   17.6634 C   0  0  0  0  0  0  0  0  0  0  0  0
    2.7878   -8.3822   16.2137 C   0  0  0  0  0  0  0  0  0  0  0  0
    9.4601   -2.6590   25.6528 C   0  0  0  0  0  0  0  0  0  0  0  0
   10.1182   -1.5672   23.1165 C   0  0  0  0  0  0  0  0  0  0  0  0
    1.0552   -9.6360   17.0650 C   0  0  0  0  0  0  0  0  0  0  0  0
    3.6519   -9.1783   16.9039 C   0  0  0  0  0  0  0  0  0  0  0  0
    7.8675   -7.0096   15.9415 C   0  0  0  0  0  0  0  0  0  0  0  0
    5.9733   -9.6553   17.3832 N   0  0  0  0  0  0  0  0  0  0  0  0
   10.2411   -2.9363   23.4301 C   0  0  0  0  0  0  0  0  0  0  0  0
   10.7288   -3.8197   19.9525 C   0  0  0  0  0  0  0  0  0  0  0  0
   10.1189   -5.0054   19.6987 C   0  0  0  0  0  0  0  0  0  0  0  0
  1  3  4  0
  1  7  4  0
  2 21  4  0
  2 27  4  0
  3  9  4  0
  3 10  4  0
  4  8  4  0
  4 18  4  0
  4 25  1  0
  5  9  4  0
  5 12  4  0
  6 13  1  0
  6 27  1  0
  7 28  4  0
  8 11  4  0
  9 29  4  0
 10 12  4  0
 11 24  1  0
 11 26  4  0
 12 25  1  0
 13 28  1  0
 14 20  4  0
 14 23  4  0
 15 17  4  0
 15 21  4  0
 16 19  4  0
 16 23  4  0
 17 22  4  0
 18 26  4  0
 19 24  4  0
 20 24  4  0
 22 27  4  0
 28 29  4  0
M  END
$$$$

 Created by Python create_sdf_string function

 29 33  0  0  0  0  0  0  0  0999 V2000
   10.7215   -3.3326   17.6437 C   0  0  0  0  0  0  0  0  0  0  0  0
    9.9489   -3.4675   24.6487 N   0  0  0  0  0  0  0  0  0  0  0  0
   10.0172   -4.4740   17.4101 C   0  0  0  0  0  0  0  0  0  0  0  0
    6.9051   -7.9575   16.4222 C   0  0  0  0  0  0  0  0  0  0  0  0
    8.9969   -6.3552   17.9668 N   0  0  0  0  0  0  0  0  0  0  0  0
   10.6702   -3.9051   22.4070 C   0  0  0  0  0  0  0  0  0  0  0  0
   11.0625   -3.0028   18.8894 C   0  0  0  0  0  0  0  0  0  0  0  0
    5.6180   -7.9194   16.1754 O   0  0  0  0  0  0  0  0  0  0  0  0
    9.7259   -5.3080   18.4485 C   0  0  0  0  0  0  0  0  0  0  0  0
    9.4578   -5.0200   16.3036 N   0  0  0  0  0  0  0  0  0  0  0  0
    5.0287   -8.9365   16.8223 C   0  0  0  0  0  0  0  0  0  0  0  0
    8.7742   -6.1498   16.6764 C   0  0  0  0  0  0  0  0  0  0  0  0
   10.9418   -3.4032   21.2053 O   0  0  0  0  0  0  0  0  0  0  0  0
    1.4797   -8.6258   16.2950 C   0  0  0  0  0  0  0  0  0  0  0  0
    9.2861   -1.2743   25.3585 C   0  0  0  0  0  0  0  0  0  0  0  0
    1.8892  -10.3985   17.7511 N   0  0  0  0  0  0  0  0  0  0  0  0
    9.6210   -0.6952   24.0976 C   0  0  0  0  0  0  0  0  0  0  0  0
    7.0792   -9.0217   17.1429 C   0  0  0  0  0  0  0  0  0  0  0  0
    3.1713  -10.1816   17.6634 C   0  0  0  0  0  0  0  0  0  0  0  0
    2.7878   -8.3822   16.2137 C   0  0  0  0  0  0  0  0  0  0  0  0
    9.4601   -2.6590   25.6528 C   0  0  0  0  0  0  0  0  0  0  0  0
   10.1182   -1.5672   23.1165 C   0  0  0  0  0  0  0  0  0  0  0  0
    1.0552   -9.6360   17.0650 C   0  0  0  0  0  0  0  0  0  0  0  0
    3.6519   -9.1783   16.9039 C   0  0  0  0  0  0  0  0  0  0  0  0
    7.8675   -7.0096   15.9415 C   0  0  0  0  0  0  0  0  0  0  0  0
    5.9733   -9.6553   17.3832 N   0  0  0  0  0  0  0  0  0  0  0  0
   10.2411   -2.9363   23.4301 C   0  0  0  0  0  0  0  0  0  0  0  0
   10.7288   -3.8197   19.9525 C   0  0  0  0  0  0  0  0  0  0  0  0
   10.1189   -5.0054   19.6987 C   0  0  0  0  0  0  0  0  0  0  0  0
  1  3  4  0
  1  7  4  0
  2 21  4  0
  2 27  4  0
  3  9  4  0
  3 10  4  0
  4  8  4  0
  4 18  4  0
  4 25  1  0
  5  9  4  0
  5 12  4  0
  6 13  1  0
  6 27  1  0
  7 28  4  0
  8 11  4  0
  9 29  4  0
 10 12  4  0
 11 24  1  0
 11 26  4  0
 12 25  1  0
 13 28  1  0
 14 20  4  0
 14 23  4  0
 15 17  4  0
 15 21  4  0
 16 19  4  0
 16 23  4  0
 17 22  4  0
 18 26  4  0
 19 24  4  0
 20 24  4  0
 22 27  4  0
 28 29  4  0
M  END
$$$$

 Created by Python create_sdf_string function

 29 33  0  0  0  0  0  0  0  0999 V2000
   10.7215   -3.3326   17.6437 C   0  0  0  0  0  0  0  0  0  0  0  0
    9.9489   -3.4675   24.6487 N   0  0  0  0  0  0  0  0  0  0  0  0
   10.0172   -4.4740   17.4101 C   0  0  0  0  0  0  0  0  0  0  0  0
    6.9051   -7.9575   16.4222 C   0  0  0  0  0  0  0  0  0  0  0  0
    8.9969   -6.3552   17.9668 N   0  0  0  0  0  0  0  0  0  0  0  0
   10.6702   -3.9051   22.4070 C   0  0  0  0  0  0  0  0  0  0  0  0
   11.0625   -3.0028   18.8894 C   0  0  0  0  0  0  0  0  0  0  0  0
    5.6180   -7.9194   16.1754 O   0  0  0  0  0  0  0  0  0  0  0  0
    9.7259   -5.3080   18.4485 C   0  0  0  0  0  0  0  0  0  0  0  0
    9.4578   -5.0200   16.3036 N   0  0  0  0  0  0  0  0  0  0  0  0
    5.0287   -8.9365   16.8223 C   0  0  0  0  0  0  0  0  0  0  0  0
    8.7742   -6.1498   16.6764 C   0  0  0  0  0  0  0  0  0  0  0  0
   10.9418   -3.4032   21.2053 O   0  0  0  0  0  0  0  0  0  0  0  0
    1.4797   -8.6258   16.2950 C   0  0  0  0  0  0  0  0  0  0  0  0
    9.2861   -1.2743   25.3585 C   0  0  0  0  0  0  0  0  0  0  0  0
    1.8892  -10.3985   17.7511 N   0  0  0  0  0  0  0  0  0  0  0  0
    9.6210   -0.6952   24.0976 C   0  0  0  0  0  0  0  0  0  0  0  0
    7.0792   -9.0217   17.1429 C   0  0  0  0  0  0  0  0  0  0  0  0
    3.1713  -10.1816   17.6634 C   0  0  0  0  0  0  0  0  0  0  0  0
    2.7878   -8.3822   16.2137 C   0  0  0  0  0  0  0  0  0  0  0  0
    9.4601   -2.6590   25.6528 C   0  0  0  0  0  0  0  0  0  0  0  0
   10.1182   -1.5672   23.1165 C   0  0  0  0  0  0  0  0  0  0  0  0
    1.0552   -9.6360   17.0650 C   0  0  0  0  0  0  0  0  0  0  0  0
    3.6519   -9.1783   16.9039 C   0  0  0  0  0  0  0  0  0  0  0  0
    7.8675   -7.0096   15.9415 C   0  0  0  0  0  0  0  0  0  0  0  0
    5.9733   -9.6553   17.3832 N   0  0  0  0  0  0  0  0  0  0  0  0
   10.2411   -2.9363   23.4301 C   0  0  0  0  0  0  0  0  0  0  0  0
   10.7288   -3.8197   19.9525 C   0  0  0  0  0  0  0  0  0  0  0  0
   10.1189   -5.0054   19.6987 C   0  0  0  0  0  0  0  0  0  0  0  0
  1  3  4  0
  1  7  4  0
  2 21  4  0
  2 27  4  0
  3  9  4  0
  3 10  4  0
  4  8  4  0
  4 18  4  0
  4 25  1  0
  5  9  4  0
  5 12  4  0
  6 13  1  0
  6 27  1  0
  7 28  4  0
  8 11  4  0
  9 29  4  0
 10 12  4  0
 11 24  1  0
 11 26  4  0
 12 25  1  0
 13 28  1  0
 14 20  4  0
 14 23  4  0
 15 17  4  0
 15 21  4  0
 16 19  4  0
 16 23  4  0
 17 22  4  0
 18 26  4  0
 19 24  4  0
 20 24  4  0
 22 27  4  0
 28 29  4  0
M  END
$$$$

 Created by Python create_sdf_string function

 29 33  0  0  0  0  0  0  0  0999 V2000
   10.7215   -3.3326   17.6437 C   0  0  0  0  0  0  0  0  0  0  0  0
    9.9489   -3.4675   24.6487 N   0  0  0  0  0  0  0  0  0  0  0  0
   10.0172   -4.4740   17.4101 C   0  0  0  0  0  0  0  0  0  0  0  0
    6.9051   -7.9575   16.4222 C   0  0  0  0  0  0  0  0  0  0  0  0
    8.9969   -6.3552   17.9668 N   0  0  0  0  0  0  0  0  0  0  0  0
   10.6702   -3.9051   22.4070 C   0  0  0  0  0  0  0  0  0  0  0  0
   11.0625   -3.0028   18.8894 C   0  0  0  0  0  0  0  0  0  0  0  0
    5.6180   -7.9194   16.1754 O   0  0  0  0  0  0  0  0  0  0  0  0
    9.7259   -5.3080   18.4485 C   0  0  0  0  0  0  0  0  0  0  0  0
    9.4578   -5.0200   16.3036 N   0  0  0  0  0  0  0  0  0  0  0  0
    5.0287   -8.9365   16.8223 C   0  0  0  0  0  0  0  0  0  0  0  0
    8.7742   -6.1498   16.6764 C   0  0  0  0  0  0  0  0  0  0  0  0
   10.9418   -3.4032   21.2053 O   0  0  0  0  0  0  0  0  0  0  0  0
    1.4797   -8.6258   16.2950 C   0  0  0  0  0  0  0  0  0  0  0  0
    9.2861   -1.2743   25.3585 C   0  0  0  0  0  0  0  0  0  0  0  0
    1.8892  -10.3985   17.7511 N   0  0  0  0  0  0  0  0  0  0  0  0
    9.6210   -0.6952   24.0976 C   0  0  0  0  0  0  0  0  0  0  0  0
    7.0792   -9.0217   17.1429 C   0  0  0  0  0  0  0  0  0  0  0  0
    3.1713  -10.1816   17.6634 C   0  0  0  0  0  0  0  0  0  0  0  0
    2.7878   -8.3822   16.2137 C   0  0  0  0  0  0  0  0  0  0  0  0
    9.4601   -2.6590   25.6528 C   0  0  0  0  0  0  0  0  0  0  0  0
   10.1182   -1.5672   23.1165 C   0  0  0  0  0  0  0  0  0  0  0  0
    1.0552   -9.6360   17.0650 C   0  0  0  0  0  0  0  0  0  0  0  0
    3.6519   -9.1783   16.9039 C   0  0  0  0  0  0  0  0  0  0  0  0
    7.8675   -7.0096   15.9415 C   0  0  0  0  0  0  0  0  0  0  0  0
    5.9733   -9.6553   17.3832 N   0  0  0  0  0  0  0  0  0  0  0  0
   10.2411   -2.9363   23.4301 C   0  0  0  0  0  0  0  0  0  0  0  0
   10.7288   -3.8197   19.9525 C   0  0  0  0  0  0  0  0  0  0  0  0
   10.1189   -5.0054   19.6987 C   0  0  0  0  0  0  0  0  0  0  0  0
  1  3  4  0
  1  7  4  0
  2 21  4  0
  2 27  4  0
  3  9  4  0
  3 10  4  0
  4  8  4  0
  4 18  4  0
  4 25  1  0
  5  9  4  0
  5 12  4  0
  6 13  1  0
  6 27  1  0
  7 28  4  0
  8 11  4  0
  9 29  4  0
 10 12  4  0
 11 24  1  0
 11 26  4  0
 12 25  1  0
 13 28  1  0
 14 20  4  0
 14 23  4  0
 15 17  4  0
 15 21  4  0
 16 19  4  0
 16 23  4  0
 17 22  4  0
 18 26  4  0
 19 24  4  0
 20 24  4  0
 22 27  4  0
 28 29  4  0
M  END
$$$$

 Created by Python create_sdf_string function

 29 33  0  0  0  0  0  0  0  0999 V2000
   10.7215   -3.3326   17.6437 C   0  0  0  0  0  0  0  0  0  0  0  0
    9.9489   -3.4675   24.6487 N   0  0  0  0  0  0  0  0  0  0  0  0
   10.0172   -4.4740   17.4101 C   0  0  0  0  0  0  0  0  0  0  0  0
    6.9051   -7.9575   16.4222 C   0  0  0  0  0  0  0  0  0  0  0  0
    8.9969   -6.3552   17.9668 N   0  0  0  0  0  0  0  0  0  0  0  0
   10.6702   -3.9051   22.4070 C   0  0  0  0  0  0  0  0  0  0  0  0
   11.0625   -3.0028   18.8894 C   0  0  0  0  0  0  0  0  0  0  0  0
    5.6180   -7.9194   16.1754 O   0  0  0  0  0  0  0  0  0  0  0  0
    9.7259   -5.3080   18.4485 C   0  0  0  0  0  0  0  0  0  0  0  0
    9.4578   -5.0200   16.3036 N   0  0  0  0  0  0  0  0  0  0  0  0
    5.0287   -8.9365   16.8223 C   0  0  0  0  0  0  0  0  0  0  0  0
    8.7742   -6.1498   16.6764 C   0  0  0  0  0  0  0  0  0  0  0  0
   10.9418   -3.4032   21.2053 O   0  0  0  0  0  0  0  0  0  0  0  0
    1.4797   -8.6258   16.2950 C   0  0  0  0  0  0  0  0  0  0  0  0
    9.2861   -1.2743   25.3585 C   0  0  0  0  0  0  0  0  0  0  0  0
    1.8892  -10.3985   17.7511 N   0  0  0  0  0  0  0  0  0  0  0  0
    9.6210   -0.6952   24.0976 C   0  0  0  0  0  0  0  0  0  0  0  0
    7.0792   -9.0217   17.1429 C   0  0  0  0  0  0  0  0  0  0  0  0
    3.1713  -10.1816   17.6634 C   0  0  0  0  0  0  0  0  0  0  0  0
    2.7878   -8.3822   16.2137 C   0  0  0  0  0  0  0  0  0  0  0  0
    9.4601   -2.6590   25.6528 C   0  0  0  0  0  0  0  0  0  0  0  0
   10.1182   -1.5672   23.1165 C   0  0  0  0  0  0  0  0  0  0  0  0
    1.0552   -9.6360   17.0650 C   0  0  0  0  0  0  0  0  0  0  0  0
    3.6519   -9.1783   16.9039 C   0  0  0  0  0  0  0  0  0  0  0  0
    7.8675   -7.0096   15.9415 C   0  0  0  0  0  0  0  0  0  0  0  0
    5.9733   -9.6553   17.3832 N   0  0  0  0  0  0  0  0  0  0  0  0
   10.2411   -2.9363   23.4301 C   0  0  0  0  0  0  0  0  0  0  0  0
   10.7288   -3.8197   19.9525 C   0  0  0  0  0  0  0  0  0  0  0  0
   10.1189   -5.0054   19.6987 C   0  0  0  0  0  0  0  0  0  0  0  0
  1  3  4  0
  1  7  4  0
  2 21  4  0
  2 27  4  0
  3  9  4  0
  3 10  4  0
  4  8  4  0
  4 18  4  0
  4 25  1  0
  5  9  4  0
  5 12  4  0
  6 13  1  0
  6 27  1  0
  7 28  4  0
  8 11  4  0
  9 29  4  0
 10 12  4  0
 11 24  1  0
 11 26  4  0
 12 25  1  0
 13 28  1  0
 14 20  4  0
 14 23  4  0
 15 17  4  0
 15 21  4  0
 16 19  4  0
 16 23  4  0
 17 22  4  0
 18 26  4  0
 19 24  4  0
 20 24  4  0
 22 27  4  0
 28 29  4  0
M  END
$$$$

 Created by Python create_sdf_string function

 29 33  0  0  0  0  0  0  0  0999 V2000
   10.7215   -3.3326   17.6437 C   0  0  0  0  0  0  0  0  0  0  0  0
    9.9489   -3.4675   24.6487 N   0  0  0  0  0  0  0  0  0  0  0  0
   10.0172   -4.4740   17.4101 C   0  0  0  0  0  0  0  0  0  0  0  0
    6.9051   -7.9575   16.4222 C   0  0  0  0  0  0  0  0  0  0  0  0
    8.9969   -6.3552   17.9668 N   0  0  0  0  0  0  0  0  0  0  0  0
   10.6702   -3.9051   22.4070 C   0  0  0  0  0  0  0  0  0  0  0  0
   11.0625   -3.0028   18.8894 C   0  0  0  0  0  0  0  0  0  0  0  0
    5.6180   -7.9194   16.1754 O   0  0  0  0  0  0  0  0  0  0  0  0
    9.7259   -5.3080   18.4485 C   0  0  0  0  0  0  0  0  0  0  0  0
    9.4578   -5.0200   16.3036 N   0  0  0  0  0  0  0  0  0  0  0  0
    5.0287   -8.9365   16.8223 C   0  0  0  0  0  0  0  0  0  0  0  0
    8.7742   -6.1498   16.6764 C   0  0  0  0  0  0  0  0  0  0  0  0
   10.9418   -3.4032   21.2053 O   0  0  0  0  0  0  0  0  0  0  0  0
    1.4797   -8.6258   16.2950 C   0  0  0  0  0  0  0  0  0  0  0  0
    9.2861   -1.2743   25.3585 C   0  0  0  0  0  0  0  0  0  0  0  0
    1.8892  -10.3985   17.7511 N   0  0  0  0  0  0  0  0  0  0  0  0
    9.6210   -0.6952   24.0976 C   0  0  0  0  0  0  0  0  0  0  0  0
    7.0792   -9.0217   17.1429 C   0  0  0  0  0  0  0  0  0  0  0  0
    3.1713  -10.1816   17.6634 C   0  0  0  0  0  0  0  0  0  0  0  0
    2.7878   -8.3822   16.2137 C   0  0  0  0  0  0  0  0  0  0  0  0
    9.4601   -2.6590   25.6528 C   0  0  0  0  0  0  0  0  0  0  0  0
   10.1182   -1.5672   23.1165 C   0  0  0  0  0  0  0  0  0  0  0  0
    1.0552   -9.6360   17.0650 C   0  0  0  0  0  0  0  0  0  0  0  0
    3.6519   -9.1783   16.9039 C   0  0  0  0  0  0  0  0  0  0  0  0
    7.8675   -7.0096   15.9415 C   0  0  0  0  0  0  0  0  0  0  0  0
    5.9733   -9.6553   17.3832 N   0  0  0  0  0  0  0  0  0  0  0  0
   10.2411   -2.9363   23.4301 C   0  0  0  0  0  0  0  0  0  0  0  0
   10.7288   -3.8197   19.9525 C   0  0  0  0  0  0  0  0  0  0  0  0
   10.1189   -5.0054   19.6987 C   0  0  0  0  0  0  0  0  0  0  0  0
  1  3  4  0
  1  7  4  0
  2 21  4  0
  2 27  4  0
  3  9  4  0
  3 10  4  0
  4  8  4  0
  4 18  4  0
  4 25  1  0
  5  9  4  0
  5 12  4  0
  6 13  1  0
  6 27  1  0
  7 28  4  0
  8 11  4  0
  9 29  4  0
 10 12  4  0
 11 24  1  0
 11 26  4  0
 12 25  1  0
 13 28  1  0
 14 20  4  0
 14 23  4  0
 15 17  4  0
 15 21  4  0
 16 19  4  0
 16 23  4  0
 17 22  4  0
 18 26  4  0
 19 24  4  0
 20 24  4  0
 22 27  4  0
 28 29  4  0
M  END
$$$$

 Created by Python create_sdf_string function

 29 33  0  0  0  0  0  0  0  0999 V2000
   10.7215   -3.3326   17.6437 C   0  0  0  0  0  0  0  0  0  0  0  0
    9.9489   -3.4675   24.6487 N   0  0  0  0  0  0  0  0  0  0  0  0
   10.0172   -4.4740   17.4101 C   0  0  0  0  0  0  0  0  0  0  0  0
    6.9051   -7.9575   16.4222 C   0  0  0  0  0  0  0  0  0  0  0  0
    8.9969   -6.3552   17.9668 N   0  0  0  0  0  0  0  0  0  0  0  0
   10.6702   -3.9051   22.4070 C   0  0  0  0  0  0  0  0  0  0  0  0
   11.0625   -3.0028   18.8894 C   0  0  0  0  0  0  0  0  0  0  0  0
    5.6180   -7.9194   16.1754 O   0  0  0  0  0  0  0  0  0  0  0  0
    9.7259   -5.3080   18.4485 C   0  0  0  0  0  0  0  0  0  0  0  0
    9.4578   -5.0200   16.3036 N   0  0  0  0  0  0  0  0  0  0  0  0
    5.0287   -8.9365   16.8223 C   0  0  0  0  0  0  0  0  0  0  0  0
    8.7742   -6.1498   16.6764 C   0  0  0  0  0  0  0  0  0  0  0  0
   10.9418   -3.4032   21.2053 O   0  0  0  0  0  0  0  0  0  0  0  0
    1.4797   -8.6258   16.2950 C   0  0  0  0  0  0  0  0  0  0  0  0
    9.2861   -1.2743   25.3585 C   0  0  0  0  0  0  0  0  0  0  0  0
    1.8892  -10.3985   17.7511 N   0  0  0  0  0  0  0  0  0  0  0  0
    9.6210   -0.6952   24.0976 C   0  0  0  0  0  0  0  0  0  0  0  0
    7.0792   -9.0217   17.1429 C   0  0  0  0  0  0  0  0  0  0  0  0
    3.1713  -10.1816   17.6634 C   0  0  0  0  0  0  0  0  0  0  0  0
    2.7878   -8.3822   16.2137 C   0  0  0  0  0  0  0  0  0  0  0  0
    9.4601   -2.6590   25.6528 C   0  0  0  0  0  0  0  0  0  0  0  0
   10.1182   -1.5672   23.1165 C   0  0  0  0  0  0  0  0  0  0  0  0
    1.0552   -9.6360   17.0650 C   0  0  0  0  0  0  0  0  0  0  0  0
    3.6519   -9.1783   16.9039 C   0  0  0  0  0  0  0  0  0  0  0  0
    7.8675   -7.0096   15.9415 C   0  0  0  0  0  0  0  0  0  0  0  0
    5.9733   -9.6553   17.3832 N   0  0  0  0  0  0  0  0  0  0  0  0
   10.2411   -2.9363   23.4301 C   0  0  0  0  0  0  0  0  0  0  0  0
   10.7288   -3.8197   19.9525 C   0  0  0  0  0  0  0  0  0  0  0  0
   10.1189   -5.0054   19.6987 C   0  0  0  0  0  0  0  0  0  0  0  0
  1  3  4  0
  1  7  4  0
  2 21  4  0
  2 27  4  0
  3  9  4  0
  3 10  4  0
  4  8  4  0
  4 18  4  0
  4 25  1  0
  5  9  4  0
  5 12  4  0
  6 13  1  0
  6 27  1  0
  7 28  4  0
  8 11  4  0
  9 29  4  0
 10 12  4  0
 11 24  1  0
 11 26  4  0
 12 25  1  0
 13 28  1  0
 14 20  4  0
 14 23  4  0
 15 17  4  0
 15 21  4  0
 16 19  4  0
 16 23  4  0
 17 22  4  0
 18 26  4  0
 19 24  4  0
 20 24  4  0
 22 27  4  0
 28 29  4  0
M  END
$$$$

 Created by Python create_sdf_string function

 29 33  0  0  0  0  0  0  0  0999 V2000
   10.7215   -3.3326   17.6437 C   0  0  0  0  0  0  0  0  0  0  0  0
    9.9489   -3.4675   24.6487 N   0  0  0  0  0  0  0  0  0  0  0  0
   10.0172   -4.4740   17.4101 C   0  0  0  0  0  0  0  0  0  0  0  0
    6.9051   -7.9575   16.4222 C   0  0  0  0  0  0  0  0  0  0  0  0
    8.9969   -6.3552   17.9668 N   0  0  0  0  0  0  0  0  0  0  0  0
   10.6702   -3.9051   22.4070 C   0  0  0  0  0  0  0  0  0  0  0  0
   11.0625   -3.0028   18.8894 C   0  0  0  0  0  0  0  0  0  0  0  0
    5.6180   -7.9194   16.1754 O   0  0  0  0  0  0  0  0  0  0  0  0
    9.7259   -5.3080   18.4485 C   0  0  0  0  0  0  0  0  0  0  0  0
    9.4578   -5.0200   16.3036 N   0  0  0  0  0  0  0  0  0  0  0  0
    5.0287   -8.9365   16.8223 C   0  0  0  0  0  0  0  0  0  0  0  0
    8.7742   -6.1498   16.6764 C   0  0  0  0  0  0  0  0  0  0  0  0
   10.9418   -3.4032   21.2053 O   0  0  0  0  0  0  0  0  0  0  0  0
    1.4797   -8.6258   16.2950 C   0  0  0  0  0  0  0  0  0  0  0  0
    9.2861   -1.2743   25.3585 C   0  0  0  0  0  0  0  0  0  0  0  0
    1.8892  -10.3985   17.7511 N   0  0  0  0  0  0  0  0  0  0  0  0
    9.6210   -0.6952   24.0976 C   0  0  0  0  0  0  0  0  0  0  0  0
    7.0792   -9.0217   17.1429 C   0  0  0  0  0  0  0  0  0  0  0  0
    3.1713  -10.1816   17.6634 C   0  0  0  0  0  0  0  0  0  0  0  0
    2.7878   -8.3822   16.2137 C   0  0  0  0  0  0  0  0  0  0  0  0
    9.4601   -2.6590   25.6528 C   0  0  0  0  0  0  0  0  0  0  0  0
   10.1182   -1.5672   23.1165 C   0  0  0  0  0  0  0  0  0  0  0  0
    1.0552   -9.6360   17.0650 C   0  0  0  0  0  0  0  0  0  0  0  0
    3.6519   -9.1783   16.9039 C   0  0  0  0  0  0  0  0  0  0  0  0
    7.8675   -7.0096   15.9415 C   0  0  0  0  0  0  0  0  0  0  0  0
    5.9733   -9.6553   17.3832 N   0  0  0  0  0  0  0  0  0  0  0  0
   10.2411   -2.9363   23.4301 C   0  0  0  0  0  0  0  0  0  0  0  0
   10.7288   -3.8197   19.9525 C   0  0  0  0  0  0  0  0  0  0  0  0
   10.1189   -5.0054   19.6987 C   0  0  0  0  0  0  0  0  0  0  0  0
  1  3  4  0
  1  7  4  0
  2 21  4  0
  2 27  4  0
  3  9  4  0
  3 10  4  0
  4  8  4  0
  4 18  4  0
  4 25  1  0
  5  9  4  0
  5 12  4  0
  6 13  1  0
  6 27  1  0
  7 28  4  0
  8 11  4  0
  9 29  4  0
 10 12  4  0
 11 24  1  0
 11 26  4  0
 12 25  1  0
 13 28  1  0
 14 20  4  0
 14 23  4  0
 15 17  4  0
 15 21  4  0
 16 19  4  0
 16 23  4  0
 17 22  4  0
 18 26  4  0
 19 24  4  0
 20 24  4  0
 22 27  4  0
 28 29  4  0
M  END
$$$$

 Created by Python create_sdf_string function

 29 33  0  0  0  0  0  0  0  0999 V2000
   10.7215   -3.3326   17.6437 C   0  0  0  0  0  0  0  0  0  0  0  0
    9.9489   -3.4675   24.6487 N   0  0  0  0  0  0  0  0  0  0  0  0
   10.0172   -4.4740   17.4101 C   0  0  0  0  0  0  0  0  0  0  0  0
    6.9051   -7.9575   16.4222 C   0  0  0  0  0  0  0  0  0  0  0  0
    8.9969   -6.3552   17.9668 N   0  0  0  0  0  0  0  0  0  0  0  0
   10.6702   -3.9051   22.4070 C   0  0  0  0  0  0  0  0  0  0  0  0
   11.0625   -3.0028   18.8894 C   0  0  0  0  0  0  0  0  0  0  0  0
    5.6180   -7.9194   16.1754 O   0  0  0  0  0  0  0  0  0  0  0  0
    9.7259   -5.3080   18.4485 C   0  0  0  0  0  0  0  0  0  0  0  0
    9.4578   -5.0200   16.3036 N   0  0  0  0  0  0  0  0  0  0  0  0
    5.0287   -8.9365   16.8223 C   0  0  0  0  0  0  0  0  0  0  0  0
    8.7742   -6.1498   16.6764 C   0  0  0  0  0  0  0  0  0  0  0  0
   10.9418   -3.4032   21.2053 O   0  0  0  0  0  0  0  0  0  0  0  0
    1.4797   -8.6258   16.2950 C   0  0  0  0  0  0  0  0  0  0  0  0
    9.2861   -1.2743   25.3585 C   0  0  0  0  0  0  0  0  0  0  0  0
    1.8892  -10.3985   17.7511 N   0  0  0  0  0  0  0  0  0  0  0  0
    9.6210   -0.6952   24.0976 C   0  0  0  0  0  0  0  0  0  0  0  0
    7.0792   -9.0217   17.1429 C   0  0  0  0  0  0  0  0  0  0  0  0
    3.1713  -10.1816   17.6634 C   0  0  0  0  0  0  0  0  0  0  0  0
    2.7878   -8.3822   16.2137 C   0  0  0  0  0  0  0  0  0  0  0  0
    9.4601   -2.6590   25.6528 C   0  0  0  0  0  0  0  0  0  0  0  0
   10.1182   -1.5672   23.1165 C   0  0  0  0  0  0  0  0  0  0  0  0
    1.0552   -9.6360   17.0650 C   0  0  0  0  0  0  0  0  0  0  0  0
    3.6519   -9.1783   16.9039 C   0  0  0  0  0  0  0  0  0  0  0  0
    7.8675   -7.0096   15.9415 C   0  0  0  0  0  0  0  0  0  0  0  0
    5.9733   -9.6553   17.3832 N   0  0  0  0  0  0  0  0  0  0  0  0
   10.2411   -2.9363   23.4301 C   0  0  0  0  0  0  0  0  0  0  0  0
   10.7288   -3.8197   19.9525 C   0  0  0  0  0  0  0  0  0  0  0  0
   10.1189   -5.0054   19.6987 C   0  0  0  0  0  0  0  0  0  0  0  0
  1  3  4  0
  1  7  4  0
  2 21  4  0
  2 27  4  0
  3  9  4  0
  3 10  4  0
  4  8  4  0
  4 18  4  0
  4 25  1  0
  5  9  4  0
  5 12  4  0
  6 13  1  0
  6 27  1  0
  7 28  4  0
  8 11  4  0
  9 29  4  0
 10 12  4  0
 11 24  1  0
 11 26  4  0
 12 25  1  0
 13 28  1  0
 14 20  4  0
 14 23  4  0
 15 17  4  0
 15 21  4  0
 16 19  4  0
 16 23  4  0
 17 22  4  0
 18 26  4  0
 19 24  4  0
 20 24  4  0
 22 27  4  0
 28 29  4  0
M  END
$$$$

 Created by Python create_sdf_string function

 29 33  0  0  0  0  0  0  0  0999 V2000
   10.7215   -3.3326   17.6437 C   0  0  0  0  0  0  0  0  0  0  0  0
    9.9489   -3.4675   24.6487 N   0  0  0  0  0  0  0  0  0  0  0  0
   10.0172   -4.4740   17.4101 C   0  0  0  0  0  0  0  0  0  0  0  0
    6.9051   -7.9575   16.4222 C   0  0  0  0  0  0  0  0  0  0  0  0
    8.9969   -6.3552   17.9668 N   0  0  0  0  0  0  0  0  0  0  0  0
   10.6702   -3.9051   22.4070 C   0  0  0  0  0  0  0  0  0  0  0  0
   11.0625   -3.0028   18.8894 C   0  0  0  0  0  0  0  0  0  0  0  0
    5.6180   -7.9194   16.1754 O   0  0  0  0  0  0  0  0  0  0  0  0
    9.7259   -5.3080   18.4485 C   0  0  0  0  0  0  0  0  0  0  0  0
    9.4578   -5.0200   16.3036 N   0  0  0  0  0  0  0  0  0  0  0  0
    5.0287   -8.9365   16.8223 C   0  0  0  0  0  0  0  0  0  0  0  0
    8.7742   -6.1498   16.6764 C   0  0  0  0  0  0  0  0  0  0  0  0
   10.9418   -3.4032   21.2053 O   0  0  0  0  0  0  0  0  0  0  0  0
    1.4797   -8.6258   16.2950 C   0  0  0  0  0  0  0  0  0  0  0  0
    9.2861   -1.2743   25.3585 C   0  0  0  0  0  0  0  0  0  0  0  0
    1.8892  -10.3985   17.7511 N   0  0  0  0  0  0  0  0  0  0  0  0
    9.6210   -0.6952   24.0976 C   0  0  0  0  0  0  0  0  0  0  0  0
    7.0792   -9.0217   17.1429 C   0  0  0  0  0  0  0  0  0  0  0  0
    3.1713  -10.1816   17.6634 C   0  0  0  0  0  0  0  0  0  0  0  0
    2.7878   -8.3822   16.2137 C   0  0  0  0  0  0  0  0  0  0  0  0
    9.4601   -2.6590   25.6528 C   0  0  0  0  0  0  0  0  0  0  0  0
   10.1182   -1.5672   23.1165 C   0  0  0  0  0  0  0  0  0  0  0  0
    1.0552   -9.6360   17.0650 C   0  0  0  0  0  0  0  0  0  0  0  0
    3.6519   -9.1783   16.9039 C   0  0  0  0  0  0  0  0  0  0  0  0
    7.8675   -7.0096   15.9415 C   0  0  0  0  0  0  0  0  0  0  0  0
    5.9733   -9.6553   17.3832 N   0  0  0  0  0  0  0  0  0  0  0  0
   10.2411   -2.9363   23.4301 C   0  0  0  0  0  0  0  0  0  0  0  0
   10.7288   -3.8197   19.9525 C   0  0  0  0  0  0  0  0  0  0  0  0
   10.1189   -5.0054   19.6987 C   0  0  0  0  0  0  0  0  0  0  0  0
  1  3  4  0
  1  7  4  0
  2 21  4  0
  2 27  4  0
  3  9  4  0
  3 10  4  0
  4  8  4  0
  4 18  4  0
  4 25  1  0
  5  9  4  0
  5 12  4  0
  6 13  1  0
  6 27  1  0
  7 28  4  0
  8 11  4  0
  9 29  4  0
 10 12  4  0
 11 24  1  0
 11 26  4  0
 12 25  1  0
 13 28  1  0
 14 20  4  0
 14 23  4  0
 15 17  4  0
 15 21  4  0
 16 19  4  0
 16 23  4  0
 17 22  4  0
 18 26  4  0
 19 24  4  0
 20 24  4  0
 22 27  4  0
 28 29  4  0
M  END
$$$$

 Created by Python create_sdf_string function

 29 33  0  0  0  0  0  0  0  0999 V2000
   10.7215   -3.3326   17.6437 C   0  0  0  0  0  0  0  0  0  0  0  0
    9.9489   -3.4675   24.6487 N   0  0  0  0  0  0  0  0  0  0  0  0
   10.0172   -4.4740   17.4101 C   0  0  0  0  0  0  0  0  0  0  0  0
    6.9051   -7.9575   16.4222 C   0  0  0  0  0  0  0  0  0  0  0  0
    8.9969   -6.3552   17.9668 N   0  0  0  0  0  0  0  0  0  0  0  0
   10.6702   -3.9051   22.4070 C   0  0  0  0  0  0  0  0  0  0  0  0
   11.0625   -3.0028   18.8894 C   0  0  0  0  0  0  0  0  0  0  0  0
    5.6180   -7.9194   16.1754 O   0  0  0  0  0  0  0  0  0  0  0  0
    9.7259   -5.3080   18.4485 C   0  0  0  0  0  0  0  0  0  0  0  0
    9.4578   -5.0200   16.3036 N   0  0  0  0  0  0  0  0  0  0  0  0
    5.0287   -8.9365   16.8223 C   0  0  0  0  0  0  0  0  0  0  0  0
    8.7742   -6.1498   16.6764 C   0  0  0  0  0  0  0  0  0  0  0  0
   10.9418   -3.4032   21.2053 O   0  0  0  0  0  0  0  0  0  0  0  0
    1.4797   -8.6258   16.2950 C   0  0  0  0  0  0  0  0  0  0  0  0
    9.2861   -1.2743   25.3585 C   0  0  0  0  0  0  0  0  0  0  0  0
    1.8892  -10.3985   17.7511 N   0  0  0  0  0  0  0  0  0  0  0  0
    9.6210   -0.6952   24.0976 C   0  0  0  0  0  0  0  0  0  0  0  0
    7.0792   -9.0217   17.1429 C   0  0  0  0  0  0  0  0  0  0  0  0
    3.1713  -10.1816   17.6634 C   0  0  0  0  0  0  0  0  0  0  0  0
    2.7878   -8.3822   16.2137 C   0  0  0  0  0  0  0  0  0  0  0  0
    9.4601   -2.6590   25.6528 C   0  0  0  0  0  0  0  0  0  0  0  0
   10.1182   -1.5672   23.1165 C   0  0  0  0  0  0  0  0  0  0  0  0
    1.0552   -9.6360   17.0650 C   0  0  0  0  0  0  0  0  0  0  0  0
    3.6519   -9.1783   16.9039 C   0  0  0  0  0  0  0  0  0  0  0  0
    7.8675   -7.0096   15.9415 C   0  0  0  0  0  0  0  0  0  0  0  0
    5.9733   -9.6553   17.3832 N   0  0  0  0  0  0  0  0  0  0  0  0
   10.2411   -2.9363   23.4301 C   0  0  0  0  0  0  0  0  0  0  0  0
   10.7288   -3.8197   19.9525 C   0  0  0  0  0  0  0  0  0  0  0  0
   10.1189   -5.0054   19.6987 C   0  0  0  0  0  0  0  0  0  0  0  0
  1  3  4  0
  1  7  4  0
  2 21  4  0
  2 27  4  0
  3  9  4  0
  3 10  4  0
  4  8  4  0
  4 18  4  0
  4 25  1  0
  5  9  4  0
  5 12  4  0
  6 13  1  0
  6 27  1  0
  7 28  4  0
  8 11  4  0
  9 29  4  0
 10 12  4  0
 11 24  1  0
 11 26  4  0
 12 25  1  0
 13 28  1  0
 14 20  4  0
 14 23  4  0
 15 17  4  0
 15 21  4  0
 16 19  4  0
 16 23  4  0
 17 22  4  0
 18 26  4  0
 19 24  4  0
 20 24  4  0
 22 27  4  0
 28 29  4  0
M  END
$$$$

 Created by Python create_sdf_string function

 29 33  0  0  0  0  0  0  0  0999 V2000
   10.7215   -3.3326   17.6437 C   0  0  0  0  0  0  0  0  0  0  0  0
    9.9489   -3.4675   24.6487 N   0  0  0  0  0  0  0  0  0  0  0  0
   10.0172   -4.4740   17.4101 C   0  0  0  0  0  0  0  0  0  0  0  0
    6.9051   -7.9575   16.4222 C   0  0  0  0  0  0  0  0  0  0  0  0
    8.9969   -6.3552   17.9668 N   0  0  0  0  0  0  0  0  0  0  0  0
   10.6702   -3.9051   22.4070 C   0  0  0  0  0  0  0  0  0  0  0  0
   11.0625   -3.0028   18.8894 C   0  0  0  0  0  0  0  0  0  0  0  0
    5.6180   -7.9194   16.1754 O   0  0  0  0  0  0  0  0  0  0  0  0
    9.7259   -5.3080   18.4485 C   0  0  0  0  0  0  0  0  0  0  0  0
    9.4578   -5.0200   16.3036 N   0  0  0  0  0  0  0  0  0  0  0  0
    5.0287   -8.9365   16.8223 C   0  0  0  0  0  0  0  0  0  0  0  0
    8.7742   -6.1498   16.6764 C   0  0  0  0  0  0  0  0  0  0  0  0
   10.9418   -3.4032   21.2053 O   0  0  0  0  0  0  0  0  0  0  0  0
    1.4797   -8.6258   16.2950 C   0  0  0  0  0  0  0  0  0  0  0  0
    9.2861   -1.2743   25.3585 C   0  0  0  0  0  0  0  0  0  0  0  0
    1.8892  -10.3985   17.7511 N   0  0  0  0  0  0  0  0  0  0  0  0
    9.6210   -0.6952   24.0976 C   0  0  0  0  0  0  0  0  0  0  0  0
    7.0792   -9.0217   17.1429 C   0  0  0  0  0  0  0  0  0  0  0  0
    3.1713  -10.1816   17.6634 C   0  0  0  0  0  0  0  0  0  0  0  0
    2.7878   -8.3822   16.2137 C   0  0  0  0  0  0  0  0  0  0  0  0
    9.4601   -2.6590   25.6528 C   0  0  0  0  0  0  0  0  0  0  0  0
   10.1182   -1.5672   23.1165 C   0  0  0  0  0  0  0  0  0  0  0  0
    1.0552   -9.6360   17.0650 C   0  0  0  0  0  0  0  0  0  0  0  0
    3.6519   -9.1783   16.9039 C   0  0  0  0  0  0  0  0  0  0  0  0
    7.8675   -7.0096   15.9415 C   0  0  0  0  0  0  0  0  0  0  0  0
    5.9733   -9.6553   17.3832 N   0  0  0  0  0  0  0  0  0  0  0  0
   10.2411   -2.9363   23.4301 C   0  0  0  0  0  0  0  0  0  0  0  0
   10.7288   -3.8197   19.9525 C   0  0  0  0  0  0  0  0  0  0  0  0
   10.1189   -5.0054   19.6987 C   0  0  0  0  0  0  0  0  0  0  0  0
  1  3  4  0
  1  7  4  0
  2 21  4  0
  2 27  4  0
  3  9  4  0
  3 10  4  0
  4  8  4  0
  4 18  4  0
  4 25  1  0
  5  9  4  0
  5 12  4  0
  6 13  1  0
  6 27  1  0
  7 28  4  0
  8 11  4  0
  9 29  4  0
 10 12  4  0
 11 24  1  0
 11 26  4  0
 12 25  1  0
 13 28  1  0
 14 20  4  0
 14 23  4  0
 15 17  4  0
 15 21  4  0
 16 19  4  0
 16 23  4  0
 17 22  4  0
 18 26  4  0
 19 24  4  0
 20 24  4  0
 22 27  4  0
 28 29  4  0
M  END
$$$$

 Created by Python create_sdf_string function

 29 33  0  0  0  0  0  0  0  0999 V2000
   10.7215   -3.3326   17.6437 C   0  0  0  0  0  0  0  0  0  0  0  0
    9.9489   -3.4675   24.6487 N   0  0  0  0  0  0  0  0  0  0  0  0
   10.0172   -4.4740   17.4101 C   0  0  0  0  0  0  0  0  0  0  0  0
    6.9051   -7.9575   16.4222 C   0  0  0  0  0  0  0  0  0  0  0  0
    8.9969   -6.3552   17.9668 N   0  0  0  0  0  0  0  0  0  0  0  0
   10.6702   -3.9051   22.4070 C   0  0  0  0  0  0  0  0  0  0  0  0
   11.0625   -3.0028   18.8894 C   0  0  0  0  0  0  0  0  0  0  0  0
    5.6180   -7.9194   16.1754 O   0  0  0  0  0  0  0  0  0  0  0  0
    9.7259   -5.3080   18.4485 C   0  0  0  0  0  0  0  0  0  0  0  0
    9.4578   -5.0200   16.3036 N   0  0  0  0  0  0  0  0  0  0  0  0
    5.0287   -8.9365   16.8223 C   0  0  0  0  0  0  0  0  0  0  0  0
    8.7742   -6.1498   16.6764 C   0  0  0  0  0  0  0  0  0  0  0  0
   10.9418   -3.4032   21.2053 O   0  0  0  0  0  0  0  0  0  0  0  0
    1.4797   -8.6258   16.2950 C   0  0  0  0  0  0  0  0  0  0  0  0
    9.2861   -1.2743   25.3585 C   0  0  0  0  0  0  0  0  0  0  0  0
    1.8892  -10.3985   17.7511 N   0  0  0  0  0  0  0  0  0  0  0  0
    9.6210   -0.6952   24.0976 C   0  0  0  0  0  0  0  0  0  0  0  0
    7.0792   -9.0217   17.1429 C   0  0  0  0  0  0  0  0  0  0  0  0
    3.1713  -10.1816   17.6634 C   0  0  0  0  0  0  0  0  0  0  0  0
    2.7878   -8.3822   16.2137 C   0  0  0  0  0  0  0  0  0  0  0  0
    9.4601   -2.6590   25.6528 C   0  0  0  0  0  0  0  0  0  0  0  0
   10.1182   -1.5672   23.1165 C   0  0  0  0  0  0  0  0  0  0  0  0
    1.0552   -9.6360   17.0650 C   0  0  0  0  0  0  0  0  0  0  0  0
    3.6519   -9.1783   16.9039 C   0  0  0  0  0  0  0  0  0  0  0  0
    7.8675   -7.0096   15.9415 C   0  0  0  0  0  0  0  0  0  0  0  0
    5.9733   -9.6553   17.3832 N   0  0  0  0  0  0  0  0  0  0  0  0
   10.2411   -2.9363   23.4301 C   0  0  0  0  0  0  0  0  0  0  0  0
   10.7288   -3.8197   19.9525 C   0  0  0  0  0  0  0  0  0  0  0  0
   10.1189   -5.0054   19.6987 C   0  0  0  0  0  0  0  0  0  0  0  0
  1  3  4  0
  1  7  4  0
  2 21  4  0
  2 27  4  0
  3  9  4  0
  3 10  4  0
  4  8  4  0
  4 18  4  0
  4 25  1  0
  5  9  4  0
  5 12  4  0
  6 13  1  0
  6 27  1  0
  7 28  4  0
  8 11  4  0
  9 29  4  0
 10 12  4  0
 11 24  1  0
 11 26  4  0
 12 25  1  0
 13 28  1  0
 14 20  4  0
 14 23  4  0
 15 17  4  0
 15 21  4  0
 16 19  4  0
 16 23  4  0
 17 22  4  0
 18 26  4  0
 19 24  4  0
 20 24  4  0
 22 27  4  0
 28 29  4  0
M  END
$$$$

 Created by Python create_sdf_string function

 29 33  0  0  0  0  0  0  0  0999 V2000
   10.7215   -3.3326   17.6437 C   0  0  0  0  0  0  0  0  0  0  0  0
    9.9489   -3.4675   24.6487 N   0  0  0  0  0  0  0  0  0  0  0  0
   10.0172   -4.4740   17.4101 C   0  0  0  0  0  0  0  0  0  0  0  0
    6.9051   -7.9575   16.4222 C   0  0  0  0  0  0  0  0  0  0  0  0
    8.9969   -6.3552   17.9668 N   0  0  0  0  0  0  0  0  0  0  0  0
   10.6702   -3.9051   22.4070 C   0  0  0  0  0  0  0  0  0  0  0  0
   11.0625   -3.0028   18.8894 C   0  0  0  0  0  0  0  0  0  0  0  0
    5.6180   -7.9194   16.1754 O   0  0  0  0  0  0  0  0  0  0  0  0
    9.7259   -5.3080   18.4485 C   0  0  0  0  0  0  0  0  0  0  0  0
    9.4578   -5.0200   16.3036 N   0  0  0  0  0  0  0  0  0  0  0  0
    5.0287   -8.9365   16.8223 C   0  0  0  0  0  0  0  0  0  0  0  0
    8.7742   -6.1498   16.6764 C   0  0  0  0  0  0  0  0  0  0  0  0
   10.9418   -3.4032   21.2053 O   0  0  0  0  0  0  0  0  0  0  0  0
    1.4797   -8.6258   16.2950 C   0  0  0  0  0  0  0  0  0  0  0  0
    9.2861   -1.2743   25.3585 C   0  0  0  0  0  0  0  0  0  0  0  0
    1.8892  -10.3985   17.7511 N   0  0  0  0  0  0  0  0  0  0  0  0
    9.6210   -0.6952   24.0976 C   0  0  0  0  0  0  0  0  0  0  0  0
    7.0792   -9.0217   17.1429 C   0  0  0  0  0  0  0  0  0  0  0  0
    3.1713  -10.1816   17.6634 C   0  0  0  0  0  0  0  0  0  0  0  0
    2.7878   -8.3822   16.2137 C   0  0  0  0  0  0  0  0  0  0  0  0
    9.4601   -2.6590   25.6528 C   0  0  0  0  0  0  0  0  0  0  0  0
   10.1182   -1.5672   23.1165 C   0  0  0  0  0  0  0  0  0  0  0  0
    1.0552   -9.6360   17.0650 C   0  0  0  0  0  0  0  0  0  0  0  0
    3.6519   -9.1783   16.9039 C   0  0  0  0  0  0  0  0  0  0  0  0
    7.8675   -7.0096   15.9415 C   0  0  0  0  0  0  0  0  0  0  0  0
    5.9733   -9.6553   17.3832 N   0  0  0  0  0  0  0  0  0  0  0  0
   10.2411   -2.9363   23.4301 C   0  0  0  0  0  0  0  0  0  0  0  0
   10.7288   -3.8197   19.9525 C   0  0  0  0  0  0  0  0  0  0  0  0
   10.1189   -5.0054   19.6987 C   0  0  0  0  0  0  0  0  0  0  0  0
  1  3  4  0
  1  7  4  0
  2 21  4  0
  2 27  4  0
  3  9  4  0
  3 10  4  0
  4  8  4  0
  4 18  4  0
  4 25  1  0
  5  9  4  0
  5 12  4  0
  6 13  1  0
  6 27  1  0
  7 28  4  0
  8 11  4  0
  9 29  4  0
 10 12  4  0
 11 24  1  0
 11 26  4  0
 12 25  1  0
 13 28  1  0
 14 20  4  0
 14 23  4  0
 15 17  4  0
 15 21  4  0
 16 19  4  0
 16 23  4  0
 17 22  4  0
 18 26  4  0
 19 24  4  0
 20 24  4  0
 22 27  4  0
 28 29  4  0
M  END
$$$$

 Created by Python create_sdf_string function

 29 33  0  0  0  0  0  0  0  0999 V2000
   10.7215   -3.3326   17.6437 C   0  0  0  0  0  0  0  0  0  0  0  0
    9.9489   -3.4675   24.6487 N   0  0  0  0  0  0  0  0  0  0  0  0
   10.0172   -4.4740   17.4101 C   0  0  0  0  0  0  0  0  0  0  0  0
    6.9051   -7.9575   16.4222 C   0  0  0  0  0  0  0  0  0  0  0  0
    8.9969   -6.3552   17.9668 N   0  0  0  0  0  0  0  0  0  0  0  0
   10.6702   -3.9051   22.4070 C   0  0  0  0  0  0  0  0  0  0  0  0
   11.0625   -3.0028   18.8894 C   0  0  0  0  0  0  0  0  0  0  0  0
    5.6180   -7.9194   16.1754 O   0  0  0  0  0  0  0  0  0  0  0  0
    9.7259   -5.3080   18.4485 C   0  0  0  0  0  0  0  0  0  0  0  0
    9.4578   -5.0200   16.3036 N   0  0  0  0  0  0  0  0  0  0  0  0
    5.0287   -8.9365   16.8223 C   0  0  0  0  0  0  0  0  0  0  0  0
    8.7742   -6.1498   16.6764 C   0  0  0  0  0  0  0  0  0  0  0  0
   10.9418   -3.4032   21.2053 O   0  0  0  0  0  0  0  0  0  0  0  0
    1.4797   -8.6258   16.2950 C   0  0  0  0  0  0  0  0  0  0  0  0
    9.2861   -1.2743   25.3585 C   0  0  0  0  0  0  0  0  0  0  0  0
    1.8892  -10.3985   17.7511 N   0  0  0  0  0  0  0  0  0  0  0  0
    9.6210   -0.6952   24.0976 C   0  0  0  0  0  0  0  0  0  0  0  0
    7.0792   -9.0217   17.1429 C   0  0  0  0  0  0  0  0  0  0  0  0
    3.1713  -10.1816   17.6634 C   0  0  0  0  0  0  0  0  0  0  0  0
    2.7878   -8.3822   16.2137 C   0  0  0  0  0  0  0  0  0  0  0  0
    9.4601   -2.6590   25.6528 C   0  0  0  0  0  0  0  0  0  0  0  0
   10.1182   -1.5672   23.1165 C   0  0  0  0  0  0  0  0  0  0  0  0
    1.0552   -9.6360   17.0650 C   0  0  0  0  0  0  0  0  0  0  0  0
    3.6519   -9.1783   16.9039 C   0  0  0  0  0  0  0  0  0  0  0  0
    7.8675   -7.0096   15.9415 C   0  0  0  0  0  0  0  0  0  0  0  0
    5.9733   -9.6553   17.3832 N   0  0  0  0  0  0  0  0  0  0  0  0
   10.2411   -2.9363   23.4301 C   0  0  0  0  0  0  0  0  0  0  0  0
   10.7288   -3.8197   19.9525 C   0  0  0  0  0  0  0  0  0  0  0  0
   10.1189   -5.0054   19.6987 C   0  0  0  0  0  0  0  0  0  0  0  0
  1  3  4  0
  1  7  4  0
  2 21  4  0
  2 27  4  0
  3  9  4  0
  3 10  4  0
  4  8  4  0
  4 18  4  0
  4 25  1  0
  5  9  4  0
  5 12  4  0
  6 13  1  0
  6 27  1  0
  7 28  4  0
  8 11  4  0
  9 29  4  0
 10 12  4  0
 11 24  1  0
 11 26  4  0
 12 25  1  0
 13 28  1  0
 14 20  4  0
 14 23  4  0
 15 17  4  0
 15 21  4  0
 16 19  4  0
 16 23  4  0
 17 22  4  0
 18 26  4  0
 19 24  4  0
 20 24  4  0
 22 27  4  0
 28 29  4  0
M  END
$$$$

 Created by Python create_sdf_string function

 29 33  0  0  0  0  0  0  0  0999 V2000
   10.7215   -3.3326   17.6437 C   0  0  0  0  0  0  0  0  0  0  0  0
    9.9489   -3.4675   24.6487 N   0  0  0  0  0  0  0  0  0  0  0  0
   10.0172   -4.4740   17.4101 C   0  0  0  0  0  0  0  0  0  0  0  0
    6.9051   -7.9575   16.4222 C   0  0  0  0  0  0  0  0  0  0  0  0
    8.9969   -6.3552   17.9668 N   0  0  0  0  0  0  0  0  0  0  0  0
   10.6702   -3.9051   22.4070 C   0  0  0  0  0  0  0  0  0  0  0  0
   11.0625   -3.0028   18.8894 C   0  0  0  0  0  0  0  0  0  0  0  0
    5.6180   -7.9194   16.1754 O   0  0  0  0  0  0  0  0  0  0  0  0
    9.7259   -5.3080   18.4485 C   0  0  0  0  0  0  0  0  0  0  0  0
    9.4578   -5.0200   16.3036 N   0  0  0  0  0  0  0  0  0  0  0  0
    5.0287   -8.9365   16.8223 C   0  0  0  0  0  0  0  0  0  0  0  0
    8.7742   -6.1498   16.6764 C   0  0  0  0  0  0  0  0  0  0  0  0
   10.9418   -3.4032   21.2053 O   0  0  0  0  0  0  0  0  0  0  0  0
    1.4797   -8.6258   16.2950 C   0  0  0  0  0  0  0  0  0  0  0  0
    9.2861   -1.2743   25.3585 C   0  0  0  0  0  0  0  0  0  0  0  0
    1.8892  -10.3985   17.7511 N   0  0  0  0  0  0  0  0  0  0  0  0
    9.6210   -0.6952   24.0976 C   0  0  0  0  0  0  0  0  0  0  0  0
    7.0792   -9.0217   17.1429 C   0  0  0  0  0  0  0  0  0  0  0  0
    3.1713  -10.1816   17.6634 C   0  0  0  0  0  0  0  0  0  0  0  0
    2.7878   -8.3822   16.2137 C   0  0  0  0  0  0  0  0  0  0  0  0
    9.4601   -2.6590   25.6528 C   0  0  0  0  0  0  0  0  0  0  0  0
   10.1182   -1.5672   23.1165 C   0  0  0  0  0  0  0  0  0  0  0  0
    1.0552   -9.6360   17.0650 C   0  0  0  0  0  0  0  0  0  0  0  0
    3.6519   -9.1783   16.9039 C   0  0  0  0  0  0  0  0  0  0  0  0
    7.8675   -7.0096   15.9415 C   0  0  0  0  0  0  0  0  0  0  0  0
    5.9733   -9.6553   17.3832 N   0  0  0  0  0  0  0  0  0  0  0  0
   10.2411   -2.9363   23.4301 C   0  0  0  0  0  0  0  0  0  0  0  0
   10.7288   -3.8197   19.9525 C   0  0  0  0  0  0  0  0  0  0  0  0
   10.1189   -5.0054   19.6987 C   0  0  0  0  0  0  0  0  0  0  0  0
  1  3  4  0
  1  7  4  0
  2 21  4  0
  2 27  4  0
  3  9  4  0
  3 10  4  0
  4  8  4  0
  4 18  4  0
  4 25  1  0
  5  9  4  0
  5 12  4  0
  6 13  1  0
  6 27  1  0
  7 28  4  0
  8 11  4  0
  9 29  4  0
 10 12  4  0
 11 24  1  0
 11 26  4  0
 12 25  1  0
 13 28  1  0
 14 20  4  0
 14 23  4  0
 15 17  4  0
 15 21  4  0
 16 19  4  0
 16 23  4  0
 17 22  4  0
 18 26  4  0
 19 24  4  0
 20 24  4  0
 22 27  4  0
 28 29  4  0
M  END
$$$$

 Created by Python create_sdf_string function

 29 33  0  0  0  0  0  0  0  0999 V2000
   10.7215   -3.3326   17.6437 C   0  0  0  0  0  0  0  0  0  0  0  0
    9.9489   -3.4675   24.6487 N   0  0  0  0  0  0  0  0  0  0  0  0
   10.0172   -4.4740   17.4101 C   0  0  0  0  0  0  0  0  0  0  0  0
    6.9051   -7.9575   16.4222 C   0  0  0  0  0  0  0  0  0  0  0  0
    8.9969   -6.3552   17.9668 N   0  0  0  0  0  0  0  0  0  0  0  0
   10.6702   -3.9051   22.4070 C   0  0  0  0  0  0  0  0  0  0  0  0
   11.0625   -3.0028   18.8894 C   0  0  0  0  0  0  0  0  0  0  0  0
    5.6180   -7.9194   16.1754 O   0  0  0  0  0  0  0  0  0  0  0  0
    9.7259   -5.3080   18.4485 C   0  0  0  0  0  0  0  0  0  0  0  0
    9.4578   -5.0200   16.3036 N   0  0  0  0  0  0  0  0  0  0  0  0
    5.0287   -8.9365   16.8223 C   0  0  0  0  0  0  0  0  0  0  0  0
    8.7742   -6.1498   16.6764 C   0  0  0  0  0  0  0  0  0  0  0  0
   10.9418   -3.4032   21.2053 O   0  0  0  0  0  0  0  0  0  0  0  0
    1.4797   -8.6258   16.2950 C   0  0  0  0  0  0  0  0  0  0  0  0
    9.2861   -1.2743   25.3585 C   0  0  0  0  0  0  0  0  0  0  0  0
    1.8892  -10.3985   17.7511 N   0  0  0  0  0  0  0  0  0  0  0  0
    9.6210   -0.6952   24.0976 C   0  0  0  0  0  0  0  0  0  0  0  0
    7.0792   -9.0217   17.1429 C   0  0  0  0  0  0  0  0  0  0  0  0
    3.1713  -10.1816   17.6634 C   0  0  0  0  0  0  0  0  0  0  0  0
    2.7878   -8.3822   16.2137 C   0  0  0  0  0  0  0  0  0  0  0  0
    9.4601   -2.6590   25.6528 C   0  0  0  0  0  0  0  0  0  0  0  0
   10.1182   -1.5672   23.1165 C   0  0  0  0  0  0  0  0  0  0  0  0
    1.0552   -9.6360   17.0650 C   0  0  0  0  0  0  0  0  0  0  0  0
    3.6519   -9.1783   16.9039 C   0  0  0  0  0  0  0  0  0  0  0  0
    7.8675   -7.0096   15.9415 C   0  0  0  0  0  0  0  0  0  0  0  0
    5.9733   -9.6553   17.3832 N   0  0  0  0  0  0  0  0  0  0  0  0
   10.2411   -2.9363   23.4301 C   0  0  0  0  0  0  0  0  0  0  0  0
   10.7288   -3.8197   19.9525 C   0  0  0  0  0  0  0  0  0  0  0  0
   10.1189   -5.0054   19.6987 C   0  0  0  0  0  0  0  0  0  0  0  0
  1  3  4  0
  1  7  4  0
  2 21  4  0
  2 27  4  0
  3  9  4  0
  3 10  4  0
  4  8  4  0
  4 18  4  0
  4 25  1  0
  5  9  4  0
  5 12  4  0
  6 13  1  0
  6 27  1  0
  7 28  4  0
  8 11  4  0
  9 29  4  0
 10 12  4  0
 11 24  1  0
 11 26  4  0
 12 25  1  0
 13 28  1  0
 14 20  4  0
 14 23  4  0
 15 17  4  0
 15 21  4  0
 16 19  4  0
 16 23  4  0
 17 22  4  0
 18 26  4  0
 19 24  4  0
 20 24  4  0
 22 27  4  0
 28 29  4  0
M  END
$$$$

 Created by Python create_sdf_string function

 29 33  0  0  0  0  0  0  0  0999 V2000
   10.7215   -3.3326   17.6437 C   0  0  0  0  0  0  0  0  0  0  0  0
    9.9489   -3.4675   24.6487 N   0  0  0  0  0  0  0  0  0  0  0  0
   10.0172   -4.4740   17.4101 C   0  0  0  0  0  0  0  0  0  0  0  0
    6.9051   -7.9575   16.4222 C   0  0  0  0  0  0  0  0  0  0  0  0
    8.9969   -6.3552   17.9668 N   0  0  0  0  0  0  0  0  0  0  0  0
   10.6702   -3.9051   22.4070 C   0  0  0  0  0  0  0  0  0  0  0  0
   11.0625   -3.0028   18.8894 C   0  0  0  0  0  0  0  0  0  0  0  0
    5.6180   -7.9194   16.1754 O   0  0  0  0  0  0  0  0  0  0  0  0
    9.7259   -5.3080   18.4485 C   0  0  0  0  0  0  0  0  0  0  0  0
    9.4578   -5.0200   16.3036 N   0  0  0  0  0  0  0  0  0  0  0  0
    5.0287   -8.9365   16.8223 C   0  0  0  0  0  0  0  0  0  0  0  0
    8.7742   -6.1498   16.6764 C   0  0  0  0  0  0  0  0  0  0  0  0
   10.9418   -3.4032   21.2053 O   0  0  0  0  0  0  0  0  0  0  0  0
    1.4797   -8.6258   16.2950 C   0  0  0  0  0  0  0  0  0  0  0  0
    9.2861   -1.2743   25.3585 C   0  0  0  0  0  0  0  0  0  0  0  0
    1.8892  -10.3985   17.7511 N   0  0  0  0  0  0  0  0  0  0  0  0
    9.6210   -0.6952   24.0976 C   0  0  0  0  0  0  0  0  0  0  0  0
    7.0792   -9.0217   17.1429 C   0  0  0  0  0  0  0  0  0  0  0  0
    3.1713  -10.1816   17.6634 C   0  0  0  0  0  0  0  0  0  0  0  0
    2.7878   -8.3822   16.2137 C   0  0  0  0  0  0  0  0  0  0  0  0
    9.4601   -2.6590   25.6528 C   0  0  0  0  0  0  0  0  0  0  0  0
   10.1182   -1.5672   23.1165 C   0  0  0  0  0  0  0  0  0  0  0  0
    1.0552   -9.6360   17.0650 C   0  0  0  0  0  0  0  0  0  0  0  0
    3.6519   -9.1783   16.9039 C   0  0  0  0  0  0  0  0  0  0  0  0
    7.8675   -7.0096   15.9415 C   0  0  0  0  0  0  0  0  0  0  0  0
    5.9733   -9.6553   17.3832 N   0  0  0  0  0  0  0  0  0  0  0  0
   10.2411   -2.9363   23.4301 C   0  0  0  0  0  0  0  0  0  0  0  0
   10.7288   -3.8197   19.9525 C   0  0  0  0  0  0  0  0  0  0  0  0
   10.1189   -5.0054   19.6987 C   0  0  0  0  0  0  0  0  0  0  0  0
  1  3  4  0
  1  7  4  0
  2 21  4  0
  2 27  4  0
  3  9  4  0
  3 10  4  0
  4  8  4  0
  4 18  4  0
  4 25  1  0
  5  9  4  0
  5 12  4  0
  6 13  1  0
  6 27  1  0
  7 28  4  0
  8 11  4  0
  9 29  4  0
 10 12  4  0
 11 24  1  0
 11 26  4  0
 12 25  1  0
 13 28  1  0
 14 20  4  0
 14 23  4  0
 15 17  4  0
 15 21  4  0
 16 19  4  0
 16 23  4  0
 17 22  4  0
 18 26  4  0
 19 24  4  0
 20 24  4  0
 22 27  4  0
 28 29  4  0
M  END
$$$$

 Created by Python create_sdf_string function

 29 33  0  0  0  0  0  0  0  0999 V2000
   10.7215   -3.3326   17.6437 C   0  0  0  0  0  0  0  0  0  0  0  0
    9.9489   -3.4675   24.6487 N   0  0  0  0  0  0  0  0  0  0  0  0
   10.0172   -4.4740   17.4101 C   0  0  0  0  0  0  0  0  0  0  0  0
    6.9051   -7.9575   16.4222 C   0  0  0  0  0  0  0  0  0  0  0  0
    8.9969   -6.3552   17.9668 N   0  0  0  0  0  0  0  0  0  0  0  0
   10.6702   -3.9051   22.4070 C   0  0  0  0  0  0  0  0  0  0  0  0
   11.0625   -3.0028   18.8894 C   0  0  0  0  0  0  0  0  0  0  0  0
    5.6180   -7.9194   16.1754 O   0  0  0  0  0  0  0  0  0  0  0  0
    9.7259   -5.3080   18.4485 C   0  0  0  0  0  0  0  0  0  0  0  0
    9.4578   -5.0200   16.3036 N   0  0  0  0  0  0  0  0  0  0  0  0
    5.0287   -8.9365   16.8223 C   0  0  0  0  0  0  0  0  0  0  0  0
    8.7742   -6.1498   16.6764 C   0  0  0  0  0  0  0  0  0  0  0  0
   10.9418   -3.4032   21.2053 O   0  0  0  0  0  0  0  0  0  0  0  0
    1.4797   -8.6258   16.2950 C   0  0  0  0  0  0  0  0  0  0  0  0
    9.2861   -1.2743   25.3585 C   0  0  0  0  0  0  0  0  0  0  0  0
    1.8892  -10.3985   17.7511 N   0  0  0  0  0  0  0  0  0  0  0  0
    9.6210   -0.6952   24.0976 C   0  0  0  0  0  0  0  0  0  0  0  0
    7.0792   -9.0217   17.1429 C   0  0  0  0  0  0  0  0  0  0  0  0
    3.1713  -10.1816   17.6634 C   0  0  0  0  0  0  0  0  0  0  0  0
    2.7878   -8.3822   16.2137 C   0  0  0  0  0  0  0  0  0  0  0  0
    9.4601   -2.6590   25.6528 C   0  0  0  0  0  0  0  0  0  0  0  0
   10.1182   -1.5672   23.1165 C   0  0  0  0  0  0  0  0  0  0  0  0
    1.0552   -9.6360   17.0650 C   0  0  0  0  0  0  0  0  0  0  0  0
    3.6519   -9.1783   16.9039 C   0  0  0  0  0  0  0  0  0  0  0  0
    7.8675   -7.0096   15.9415 C   0  0  0  0  0  0  0  0  0  0  0  0
    5.9733   -9.6553   17.3832 N   0  0  0  0  0  0  0  0  0  0  0  0
   10.2411   -2.9363   23.4301 C   0  0  0  0  0  0  0  0  0  0  0  0
   10.7288   -3.8197   19.9525 C   0  0  0  0  0  0  0  0  0  0  0  0
   10.1189   -5.0054   19.6987 C   0  0  0  0  0  0  0  0  0  0  0  0
  1  3  4  0
  1  7  4  0
  2 21  4  0
  2 27  4  0
  3  9  4  0
  3 10  4  0
  4  8  4  0
  4 18  4  0
  4 25  1  0
  5  9  4  0
  5 12  4  0
  6 13  1  0
  6 27  1  0
  7 28  4  0
  8 11  4  0
  9 29  4  0
 10 12  4  0
 11 24  1  0
 11 26  4  0
 12 25  1  0
 13 28  1  0
 14 20  4  0
 14 23  4  0
 15 17  4  0
 15 21  4  0
 16 19  4  0
 16 23  4  0
 17 22  4  0
 18 26  4  0
 19 24  4  0
 20 24  4  0
 22 27  4  0
 28 29  4  0
M  END
$$$$

 Created by Python create_sdf_string function

 29 33  0  0  0  0  0  0  0  0999 V2000
   10.7215   -3.3326   17.6437 C   0  0  0  0  0  0  0  0  0  0  0  0
    9.9489   -3.4675   24.6487 N   0  0  0  0  0  0  0  0  0  0  0  0
   10.0172   -4.4740   17.4101 C   0  0  0  0  0  0  0  0  0  0  0  0
    6.9051   -7.9575   16.4222 C   0  0  0  0  0  0  0  0  0  0  0  0
    8.9969   -6.3552   17.9668 N   0  0  0  0  0  0  0  0  0  0  0  0
   10.6702   -3.9051   22.4070 C   0  0  0  0  0  0  0  0  0  0  0  0
   11.0625   -3.0028   18.8894 C   0  0  0  0  0  0  0  0  0  0  0  0
    5.6180   -7.9194   16.1754 O   0  0  0  0  0  0  0  0  0  0  0  0
    9.7259   -5.3080   18.4485 C   0  0  0  0  0  0  0  0  0  0  0  0
    9.4578   -5.0200   16.3036 N   0  0  0  0  0  0  0  0  0  0  0  0
    5.0287   -8.9365   16.8223 C   0  0  0  0  0  0  0  0  0  0  0  0
    8.7742   -6.1498   16.6764 C   0  0  0  0  0  0  0  0  0  0  0  0
   10.9418   -3.4032   21.2053 O   0  0  0  0  0  0  0  0  0  0  0  0
    1.4797   -8.6258   16.2950 C   0  0  0  0  0  0  0  0  0  0  0  0
    9.2861   -1.2743   25.3585 C   0  0  0  0  0  0  0  0  0  0  0  0
    1.8892  -10.3985   17.7511 N   0  0  0  0  0  0  0  0  0  0  0  0
    9.6210   -0.6952   24.0976 C   0  0  0  0  0  0  0  0  0  0  0  0
    7.0792   -9.0217   17.1429 C   0  0  0  0  0  0  0  0  0  0  0  0
    3.1713  -10.1816   17.6634 C   0  0  0  0  0  0  0  0  0  0  0  0
    2.7878   -8.3822   16.2137 C   0  0  0  0  0  0  0  0  0  0  0  0
    9.4601   -2.6590   25.6528 C   0  0  0  0  0  0  0  0  0  0  0  0
   10.1182   -1.5672   23.1165 C   0  0  0  0  0  0  0  0  0  0  0  0
    1.0552   -9.6360   17.0650 C   0  0  0  0  0  0  0  0  0  0  0  0
    3.6519   -9.1783   16.9039 C   0  0  0  0  0  0  0  0  0  0  0  0
    7.8675   -7.0096   15.9415 C   0  0  0  0  0  0  0  0  0  0  0  0
    5.9733   -9.6553   17.3832 N   0  0  0  0  0  0  0  0  0  0  0  0
   10.2411   -2.9363   23.4301 C   0  0  0  0  0  0  0  0  0  0  0  0
   10.7288   -3.8197   19.9525 C   0  0  0  0  0  0  0  0  0  0  0  0
   10.1189   -5.0054   19.6987 C   0  0  0  0  0  0  0  0  0  0  0  0
  1  3  4  0
  1  7  4  0
  2 21  4  0
  2 27  4  0
  3  9  4  0
  3 10  4  0
  4  8  4  0
  4 18  4  0
  4 25  1  0
  5  9  4  0
  5 12  4  0
  6 13  1  0
  6 27  1  0
  7 28  4  0
  8 11  4  0
  9 29  4  0
 10 12  4  0
 11 24  1  0
 11 26  4  0
 12 25  1  0
 13 28  1  0
 14 20  4  0
 14 23  4  0
 15 17  4  0
 15 21  4  0
 16 19  4  0
 16 23  4  0
 17 22  4  0
 18 26  4  0
 19 24  4  0
 20 24  4  0
 22 27  4  0
 28 29  4  0
M  END
$$$$

 Created by Python create_sdf_string function

 29 33  0  0  0  0  0  0  0  0999 V2000
   10.7215   -3.3326   17.6437 C   0  0  0  0  0  0  0  0  0  0  0  0
    9.9489   -3.4675   24.6487 N   0  0  0  0  0  0  0  0  0  0  0  0
   10.0172   -4.4740   17.4101 C   0  0  0  0  0  0  0  0  0  0  0  0
    6.9051   -7.9575   16.4222 C   0  0  0  0  0  0  0  0  0  0  0  0
    8.9969   -6.3552   17.9668 N   0  0  0  0  0  0  0  0  0  0  0  0
   10.6702   -3.9051   22.4070 C   0  0  0  0  0  0  0  0  0  0  0  0
   11.0625   -3.0028   18.8894 C   0  0  0  0  0  0  0  0  0  0  0  0
    5.6180   -7.9194   16.1754 O   0  0  0  0  0  0  0  0  0  0  0  0
    9.7259   -5.3080   18.4485 C   0  0  0  0  0  0  0  0  0  0  0  0
    9.4578   -5.0200   16.3036 N   0  0  0  0  0  0  0  0  0  0  0  0
    5.0287   -8.9365   16.8223 C   0  0  0  0  0  0  0  0  0  0  0  0
    8.7742   -6.1498   16.6764 C   0  0  0  0  0  0  0  0  0  0  0  0
   10.9418   -3.4032   21.2053 O   0  0  0  0  0  0  0  0  0  0  0  0
    1.4797   -8.6258   16.2950 C   0  0  0  0  0  0  0  0  0  0  0  0
    9.2861   -1.2743   25.3585 C   0  0  0  0  0  0  0  0  0  0  0  0
    1.8892  -10.3985   17.7511 N   0  0  0  0  0  0  0  0  0  0  0  0
    9.6210   -0.6952   24.0976 C   0  0  0  0  0  0  0  0  0  0  0  0
    7.0792   -9.0217   17.1429 C   0  0  0  0  0  0  0  0  0  0  0  0
    3.1713  -10.1816   17.6634 C   0  0  0  0  0  0  0  0  0  0  0  0
    2.7878   -8.3822   16.2137 C   0  0  0  0  0  0  0  0  0  0  0  0
    9.4601   -2.6590   25.6528 C   0  0  0  0  0  0  0  0  0  0  0  0
   10.1182   -1.5672   23.1165 C   0  0  0  0  0  0  0  0  0  0  0  0
    1.0552   -9.6360   17.0650 C   0  0  0  0  0  0  0  0  0  0  0  0
    3.6519   -9.1783   16.9039 C   0  0  0  0  0  0  0  0  0  0  0  0
    7.8675   -7.0096   15.9415 C   0  0  0  0  0  0  0  0  0  0  0  0
    5.9733   -9.6553   17.3832 N   0  0  0  0  0  0  0  0  0  0  0  0
   10.2411   -2.9363   23.4301 C   0  0  0  0  0  0  0  0  0  0  0  0
   10.7288   -3.8197   19.9525 C   0  0  0  0  0  0  0  0  0  0  0  0
   10.1189   -5.0054   19.6987 C   0  0  0  0  0  0  0  0  0  0  0  0
  1  3  4  0
  1  7  4  0
  2 21  4  0
  2 27  4  0
  3  9  4  0
  3 10  4  0
  4  8  4  0
  4 18  4  0
  4 25  1  0
  5  9  4  0
  5 12  4  0
  6 13  1  0
  6 27  1  0
  7 28  4  0
  8 11  4  0
  9 29  4  0
 10 12  4  0
 11 24  1  0
 11 26  4  0
 12 25  1  0
 13 28  1  0
 14 20  4  0
 14 23  4  0
 15 17  4  0
 15 21  4  0
 16 19  4  0
 16 23  4  0
 17 22  4  0
 18 26  4  0
 19 24  4  0
 20 24  4  0
 22 27  4  0
 28 29  4  0
M  END
$$$$

 Created by Python create_sdf_string function

 29 33  0  0  0  0  0  0  0  0999 V2000
   10.7215   -3.3326   17.6437 C   0  0  0  0  0  0  0  0  0  0  0  0
    9.9489   -3.4675   24.6487 N   0  0  0  0  0  0  0  0  0  0  0  0
   10.0172   -4.4740   17.4101 C   0  0  0  0  0  0  0  0  0  0  0  0
    6.9051   -7.9575   16.4222 C   0  0  0  0  0  0  0  0  0  0  0  0
    8.9969   -6.3552   17.9668 N   0  0  0  0  0  0  0  0  0  0  0  0
   10.6702   -3.9051   22.4070 C   0  0  0  0  0  0  0  0  0  0  0  0
   11.0625   -3.0028   18.8894 C   0  0  0  0  0  0  0  0  0  0  0  0
    5.6180   -7.9194   16.1754 O   0  0  0  0  0  0  0  0  0  0  0  0
    9.7259   -5.3080   18.4485 C   0  0  0  0  0  0  0  0  0  0  0  0
    9.4578   -5.0200   16.3036 N   0  0  0  0  0  0  0  0  0  0  0  0
    5.0287   -8.9365   16.8223 C   0  0  0  0  0  0  0  0  0  0  0  0
    8.7742   -6.1498   16.6764 C   0  0  0  0  0  0  0  0  0  0  0  0
   10.9418   -3.4032   21.2053 O   0  0  0  0  0  0  0  0  0  0  0  0
    1.4797   -8.6258   16.2950 C   0  0  0  0  0  0  0  0  0  0  0  0
    9.2861   -1.2743   25.3585 C   0  0  0  0  0  0  0  0  0  0  0  0
    1.8892  -10.3985   17.7511 N   0  0  0  0  0  0  0  0  0  0  0  0
    9.6210   -0.6952   24.0976 C   0  0  0  0  0  0  0  0  0  0  0  0
    7.0792   -9.0217   17.1429 C   0  0  0  0  0  0  0  0  0  0  0  0
    3.1713  -10.1816   17.6634 C   0  0  0  0  0  0  0  0  0  0  0  0
    2.7878   -8.3822   16.2137 C   0  0  0  0  0  0  0  0  0  0  0  0
    9.4601   -2.6590   25.6528 C   0  0  0  0  0  0  0  0  0  0  0  0
   10.1182   -1.5672   23.1165 C   0  0  0  0  0  0  0  0  0  0  0  0
    1.0552   -9.6360   17.0650 C   0  0  0  0  0  0  0  0  0  0  0  0
    3.6519   -9.1783   16.9039 C   0  0  0  0  0  0  0  0  0  0  0  0
    7.8675   -7.0096   15.9415 C   0  0  0  0  0  0  0  0  0  0  0  0
    5.9733   -9.6553   17.3832 N   0  0  0  0  0  0  0  0  0  0  0  0
   10.2411   -2.9363   23.4301 C   0  0  0  0  0  0  0  0  0  0  0  0
   10.7288   -3.8197   19.9525 C   0  0  0  0  0  0  0  0  0  0  0  0
   10.1189   -5.0054   19.6987 C   0  0  0  0  0  0  0  0  0  0  0  0
  1  3  4  0
  1  7  4  0
  2 21  4  0
  2 27  4  0
  3  9  4  0
  3 10  4  0
  4  8  4  0
  4 18  4  0
  4 25  1  0
  5  9  4  0
  5 12  4  0
  6 13  1  0
  6 27  1  0
  7 28  4  0
  8 11  4  0
  9 29  4  0
 10 12  4  0
 11 24  1  0
 11 26  4  0
 12 25  1  0
 13 28  1  0
 14 20  4  0
 14 23  4  0
 15 17  4  0
 15 21  4  0
 16 19  4  0
 16 23  4  0
 17 22  4  0
 18 26  4  0
 19 24  4  0
 20 24  4  0
 22 27  4  0
 28 29  4  0
M  END
$$$$

 Created by Python create_sdf_string function

 29 33  0  0  0  0  0  0  0  0999 V2000
   10.7215   -3.3326   17.6437 C   0  0  0  0  0  0  0  0  0  0  0  0
    9.9489   -3.4675   24.6487 N   0  0  0  0  0  0  0  0  0  0  0  0
   10.0172   -4.4740   17.4101 C   0  0  0  0  0  0  0  0  0  0  0  0
    6.9051   -7.9575   16.4222 C   0  0  0  0  0  0  0  0  0  0  0  0
    8.9969   -6.3552   17.9668 N   0  0  0  0  0  0  0  0  0  0  0  0
   10.6702   -3.9051   22.4070 C   0  0  0  0  0  0  0  0  0  0  0  0
   11.0625   -3.0028   18.8894 C   0  0  0  0  0  0  0  0  0  0  0  0
    5.6180   -7.9194   16.1754 O   0  0  0  0  0  0  0  0  0  0  0  0
    9.7259   -5.3080   18.4485 C   0  0  0  0  0  0  0  0  0  0  0  0
    9.4578   -5.0200   16.3036 N   0  0  0  0  0  0  0  0  0  0  0  0
    5.0287   -8.9365   16.8223 C   0  0  0  0  0  0  0  0  0  0  0  0
    8.7742   -6.1498   16.6764 C   0  0  0  0  0  0  0  0  0  0  0  0
   10.9418   -3.4032   21.2053 O   0  0  0  0  0  0  0  0  0  0  0  0
    1.4797   -8.6258   16.2950 C   0  0  0  0  0  0  0  0  0  0  0  0
    9.2861   -1.2743   25.3585 C   0  0  0  0  0  0  0  0  0  0  0  0
    1.8892  -10.3985   17.7511 N   0  0  0  0  0  0  0  0  0  0  0  0
    9.6210   -0.6952   24.0976 C   0  0  0  0  0  0  0  0  0  0  0  0
    7.0792   -9.0217   17.1429 C   0  0  0  0  0  0  0  0  0  0  0  0
    3.1713  -10.1816   17.6634 C   0  0  0  0  0  0  0  0  0  0  0  0
    2.7878   -8.3822   16.2137 C   0  0  0  0  0  0  0  0  0  0  0  0
    9.4601   -2.6590   25.6528 C   0  0  0  0  0  0  0  0  0  0  0  0
   10.1182   -1.5672   23.1165 C   0  0  0  0  0  0  0  0  0  0  0  0
    1.0552   -9.6360   17.0650 C   0  0  0  0  0  0  0  0  0  0  0  0
    3.6519   -9.1783   16.9039 C   0  0  0  0  0  0  0  0  0  0  0  0
    7.8675   -7.0096   15.9415 C   0  0  0  0  0  0  0  0  0  0  0  0
    5.9733   -9.6553   17.3832 N   0  0  0  0  0  0  0  0  0  0  0  0
   10.2411   -2.9363   23.4301 C   0  0  0  0  0  0  0  0  0  0  0  0
   10.7288   -3.8197   19.9525 C   0  0  0  0  0  0  0  0  0  0  0  0
   10.1189   -5.0054   19.6987 C   0  0  0  0  0  0  0  0  0  0  0  0
  1  3  4  0
  1  7  4  0
  2 21  4  0
  2 27  4  0
  3  9  4  0
  3 10  4  0
  4  8  4  0
  4 18  4  0
  4 25  1  0
  5  9  4  0
  5 12  4  0
  6 13  1  0
  6 27  1  0
  7 28  4  0
  8 11  4  0
  9 29  4  0
 10 12  4  0
 11 24  1  0
 11 26  4  0
 12 25  1  0
 13 28  1  0
 14 20  4  0
 14 23  4  0
 15 17  4  0
 15 21  4  0
 16 19  4  0
 16 23  4  0
 17 22  4  0
 18 26  4  0
 19 24  4  0
 20 24  4  0
 22 27  4  0
 28 29  4  0
M  END
$$$$

 Created by Python create_sdf_string function

 29 33  0  0  0  0  0  0  0  0999 V2000
   10.7215   -3.3326   17.6437 C   0  0  0  0  0  0  0  0  0  0  0  0
    9.9489   -3.4675   24.6487 N   0  0  0  0  0  0  0  0  0  0  0  0
   10.0172   -4.4740   17.4101 C   0  0  0  0  0  0  0  0  0  0  0  0
    6.9051   -7.9575   16.4222 C   0  0  0  0  0  0  0  0  0  0  0  0
    8.9969   -6.3552   17.9668 N   0  0  0  0  0  0  0  0  0  0  0  0
   10.6702   -3.9051   22.4070 C   0  0  0  0  0  0  0  0  0  0  0  0
   11.0625   -3.0028   18.8894 C   0  0  0  0  0  0  0  0  0  0  0  0
    5.6180   -7.9194   16.1754 O   0  0  0  0  0  0  0  0  0  0  0  0
    9.7259   -5.3080   18.4485 C   0  0  0  0  0  0  0  0  0  0  0  0
    9.4578   -5.0200   16.3036 N   0  0  0  0  0  0  0  0  0  0  0  0
    5.0287   -8.9365   16.8223 C   0  0  0  0  0  0  0  0  0  0  0  0
    8.7742   -6.1498   16.6764 C   0  0  0  0  0  0  0  0  0  0  0  0
   10.9418   -3.4032   21.2053 O   0  0  0  0  0  0  0  0  0  0  0  0
    1.4797   -8.6258   16.2950 C   0  0  0  0  0  0  0  0  0  0  0  0
    9.2861   -1.2743   25.3585 C   0  0  0  0  0  0  0  0  0  0  0  0
    1.8892  -10.3985   17.7511 N   0  0  0  0  0  0  0  0  0  0  0  0
    9.6210   -0.6952   24.0976 C   0  0  0  0  0  0  0  0  0  0  0  0
    7.0792   -9.0217   17.1429 C   0  0  0  0  0  0  0  0  0  0  0  0
    3.1713  -10.1816   17.6634 C   0  0  0  0  0  0  0  0  0  0  0  0
    2.7878   -8.3822   16.2137 C   0  0  0  0  0  0  0  0  0  0  0  0
    9.4601   -2.6590   25.6528 C   0  0  0  0  0  0  0  0  0  0  0  0
   10.1182   -1.5672   23.1165 C   0  0  0  0  0  0  0  0  0  0  0  0
    1.0552   -9.6360   17.0650 C   0  0  0  0  0  0  0  0  0  0  0  0
    3.6519   -9.1783   16.9039 C   0  0  0  0  0  0  0  0  0  0  0  0
    7.8675   -7.0096   15.9415 C   0  0  0  0  0  0  0  0  0  0  0  0
    5.9733   -9.6553   17.3832 N   0  0  0  0  0  0  0  0  0  0  0  0
   10.2411   -2.9363   23.4301 C   0  0  0  0  0  0  0  0  0  0  0  0
   10.7288   -3.8197   19.9525 C   0  0  0  0  0  0  0  0  0  0  0  0
   10.1189   -5.0054   19.6987 C   0  0  0  0  0  0  0  0  0  0  0  0
  1  3  4  0
  1  7  4  0
  2 21  4  0
  2 27  4  0
  3  9  4  0
  3 10  4  0
  4  8  4  0
  4 18  4  0
  4 25  1  0
  5  9  4  0
  5 12  4  0
  6 13  1  0
  6 27  1  0
  7 28  4  0
  8 11  4  0
  9 29  4  0
 10 12  4  0
 11 24  1  0
 11 26  4  0
 12 25  1  0
 13 28  1  0
 14 20  4  0
 14 23  4  0
 15 17  4  0
 15 21  4  0
 16 19  4  0
 16 23  4  0
 17 22  4  0
 18 26  4  0
 19 24  4  0
 20 24  4  0
 22 27  4  0
 28 29  4  0
M  END
$$$$

 Created by Python create_sdf_string function

 29 33  0  0  0  0  0  0  0  0999 V2000
   10.7215   -3.3326   17.6437 C   0  0  0  0  0  0  0  0  0  0  0  0
    9.9489   -3.4675   24.6487 N   0  0  0  0  0  0  0  0  0  0  0  0
   10.0172   -4.4740   17.4101 C   0  0  0  0  0  0  0  0  0  0  0  0
    6.9051   -7.9575   16.4222 C   0  0  0  0  0  0  0  0  0  0  0  0
    8.9969   -6.3552   17.9668 N   0  0  0  0  0  0  0  0  0  0  0  0
   10.6702   -3.9051   22.4070 C   0  0  0  0  0  0  0  0  0  0  0  0
   11.0625   -3.0028   18.8894 C   0  0  0  0  0  0  0  0  0  0  0  0
    5.6180   -7.9194   16.1754 O   0  0  0  0  0  0  0  0  0  0  0  0
    9.7259   -5.3080   18.4485 C   0  0  0  0  0  0  0  0  0  0  0  0
    9.4578   -5.0200   16.3036 N   0  0  0  0  0  0  0  0  0  0  0  0
    5.0287   -8.9365   16.8223 C   0  0  0  0  0  0  0  0  0  0  0  0
    8.7742   -6.1498   16.6764 C   0  0  0  0  0  0  0  0  0  0  0  0
   10.9418   -3.4032   21.2053 O   0  0  0  0  0  0  0  0  0  0  0  0
    1.4797   -8.6258   16.2950 C   0  0  0  0  0  0  0  0  0  0  0  0
    9.2861   -1.2743   25.3585 C   0  0  0  0  0  0  0  0  0  0  0  0
    1.8892  -10.3985   17.7511 N   0  0  0  0  0  0  0  0  0  0  0  0
    9.6210   -0.6952   24.0976 C   0  0  0  0  0  0  0  0  0  0  0  0
    7.0792   -9.0217   17.1429 C   0  0  0  0  0  0  0  0  0  0  0  0
    3.1713  -10.1816   17.6634 C   0  0  0  0  0  0  0  0  0  0  0  0
    2.7878   -8.3822   16.2137 C   0  0  0  0  0  0  0  0  0  0  0  0
    9.4601   -2.6590   25.6528 C   0  0  0  0  0  0  0  0  0  0  0  0
   10.1182   -1.5672   23.1165 C   0  0  0  0  0  0  0  0  0  0  0  0
    1.0552   -9.6360   17.0650 C   0  0  0  0  0  0  0  0  0  0  0  0
    3.6519   -9.1783   16.9039 C   0  0  0  0  0  0  0  0  0  0  0  0
    7.8675   -7.0096   15.9415 C   0  0  0  0  0  0  0  0  0  0  0  0
    5.9733   -9.6553   17.3832 N   0  0  0  0  0  0  0  0  0  0  0  0
   10.2411   -2.9363   23.4301 C   0  0  0  0  0  0  0  0  0  0  0  0
   10.7288   -3.8197   19.9525 C   0  0  0  0  0  0  0  0  0  0  0  0
   10.1189   -5.0054   19.6987 C   0  0  0  0  0  0  0  0  0  0  0  0
  1  3  4  0
  1  7  4  0
  2 21  4  0
  2 27  4  0
  3  9  4  0
  3 10  4  0
  4  8  4  0
  4 18  4  0
  4 25  1  0
  5  9  4  0
  5 12  4  0
  6 13  1  0
  6 27  1  0
  7 28  4  0
  8 11  4  0
  9 29  4  0
 10 12  4  0
 11 24  1  0
 11 26  4  0
 12 25  1  0
 13 28  1  0
 14 20  4  0
 14 23  4  0
 15 17  4  0
 15 21  4  0
 16 19  4  0
 16 23  4  0
 17 22  4  0
 18 26  4  0
 19 24  4  0
 20 24  4  0
 22 27  4  0
 28 29  4  0
M  END
$$$$

 Created by Python create_sdf_string function

 29 33  0  0  0  0  0  0  0  0999 V2000
   10.7215   -3.3326   17.6437 C   0  0  0  0  0  0  0  0  0  0  0  0
    9.9489   -3.4675   24.6487 N   0  0  0  0  0  0  0  0  0  0  0  0
   10.0172   -4.4740   17.4101 C   0  0  0  0  0  0  0  0  0  0  0  0
    6.9051   -7.9575   16.4222 C   0  0  0  0  0  0  0  0  0  0  0  0
    8.9969   -6.3552   17.9668 N   0  0  0  0  0  0  0  0  0  0  0  0
   10.6702   -3.9051   22.4070 C   0  0  0  0  0  0  0  0  0  0  0  0
   11.0625   -3.0028   18.8894 C   0  0  0  0  0  0  0  0  0  0  0  0
    5.6180   -7.9194   16.1754 O   0  0  0  0  0  0  0  0  0  0  0  0
    9.7259   -5.3080   18.4485 C   0  0  0  0  0  0  0  0  0  0  0  0
    9.4578   -5.0200   16.3036 N   0  0  0  0  0  0  0  0  0  0  0  0
    5.0287   -8.9365   16.8223 C   0  0  0  0  0  0  0  0  0  0  0  0
    8.7742   -6.1498   16.6764 C   0  0  0  0  0  0  0  0  0  0  0  0
   10.9418   -3.4032   21.2053 O   0  0  0  0  0  0  0  0  0  0  0  0
    1.4797   -8.6258   16.2950 C   0  0  0  0  0  0  0  0  0  0  0  0
    9.2861   -1.2743   25.3585 C   0  0  0  0  0  0  0  0  0  0  0  0
    1.8892  -10.3985   17.7511 N   0  0  0  0  0  0  0  0  0  0  0  0
    9.6210   -0.6952   24.0976 C   0  0  0  0  0  0  0  0  0  0  0  0
    7.0792   -9.0217   17.1429 C   0  0  0  0  0  0  0  0  0  0  0  0
    3.1713  -10.1816   17.6634 C   0  0  0  0  0  0  0  0  0  0  0  0
    2.7878   -8.3822   16.2137 C   0  0  0  0  0  0  0  0  0  0  0  0
    9.4601   -2.6590   25.6528 C   0  0  0  0  0  0  0  0  0  0  0  0
   10.1182   -1.5672   23.1165 C   0  0  0  0  0  0  0  0  0  0  0  0
    1.0552   -9.6360   17.0650 C   0  0  0  0  0  0  0  0  0  0  0  0
    3.6519   -9.1783   16.9039 C   0  0  0  0  0  0  0  0  0  0  0  0
    7.8675   -7.0096   15.9415 C   0  0  0  0  0  0  0  0  0  0  0  0
    5.9733   -9.6553   17.3832 N   0  0  0  0  0  0  0  0  0  0  0  0
   10.2411   -2.9363   23.4301 C   0  0  0  0  0  0  0  0  0  0  0  0
   10.7288   -3.8197   19.9525 C   0  0  0  0  0  0  0  0  0  0  0  0
   10.1189   -5.0054   19.6987 C   0  0  0  0  0  0  0  0  0  0  0  0
  1  3  4  0
  1  7  4  0
  2 21  4  0
  2 27  4  0
  3  9  4  0
  3 10  4  0
  4  8  4  0
  4 18  4  0
  4 25  1  0
  5  9  4  0
  5 12  4  0
  6 13  1  0
  6 27  1  0
  7 28  4  0
  8 11  4  0
  9 29  4  0
 10 12  4  0
 11 24  1  0
 11 26  4  0
 12 25  1  0
 13 28  1  0
 14 20  4  0
 14 23  4  0
 15 17  4  0
 15 21  4  0
 16 19  4  0
 16 23  4  0
 17 22  4  0
 18 26  4  0
 19 24  4  0
 20 24  4  0
 22 27  4  0
 28 29  4  0
M  END
$$$$

 Created by Python create_sdf_string function

 29 33  0  0  0  0  0  0  0  0999 V2000
   10.7215   -3.3326   17.6437 C   0  0  0  0  0  0  0  0  0  0  0  0
    9.9489   -3.4675   24.6487 N   0  0  0  0  0  0  0  0  0  0  0  0
   10.0172   -4.4740   17.4101 C   0  0  0  0  0  0  0  0  0  0  0  0
    6.9051   -7.9575   16.4222 C   0  0  0  0  0  0  0  0  0  0  0  0
    8.9969   -6.3552   17.9668 N   0  0  0  0  0  0  0  0  0  0  0  0
   10.6702   -3.9051   22.4070 C   0  0  0  0  0  0  0  0  0  0  0  0
   11.0625   -3.0028   18.8894 C   0  0  0  0  0  0  0  0  0  0  0  0
    5.6180   -7.9194   16.1754 O   0  0  0  0  0  0  0  0  0  0  0  0
    9.7259   -5.3080   18.4485 C   0  0  0  0  0  0  0  0  0  0  0  0
    9.4578   -5.0200   16.3036 N   0  0  0  0  0  0  0  0  0  0  0  0
    5.0287   -8.9365   16.8223 C   0  0  0  0  0  0  0  0  0  0  0  0
    8.7742   -6.1498   16.6764 C   0  0  0  0  0  0  0  0  0  0  0  0
   10.9418   -3.4032   21.2053 O   0  0  0  0  0  0  0  0  0  0  0  0
    1.4797   -8.6258   16.2950 C   0  0  0  0  0  0  0  0  0  0  0  0
    9.2861   -1.2743   25.3585 C   0  0  0  0  0  0  0  0  0  0  0  0
    1.8892  -10.3985   17.7511 N   0  0  0  0  0  0  0  0  0  0  0  0
    9.6210   -0.6952   24.0976 C   0  0  0  0  0  0  0  0  0  0  0  0
    7.0792   -9.0217   17.1429 C   0  0  0  0  0  0  0  0  0  0  0  0
    3.1713  -10.1816   17.6634 C   0  0  0  0  0  0  0  0  0  0  0  0
    2.7878   -8.3822   16.2137 C   0  0  0  0  0  0  0  0  0  0  0  0
    9.4601   -2.6590   25.6528 C   0  0  0  0  0  0  0  0  0  0  0  0
   10.1182   -1.5672   23.1165 C   0  0  0  0  0  0  0  0  0  0  0  0
    1.0552   -9.6360   17.0650 C   0  0  0  0  0  0  0  0  0  0  0  0
    3.6519   -9.1783   16.9039 C   0  0  0  0  0  0  0  0  0  0  0  0
    7.8675   -7.0096   15.9415 C   0  0  0  0  0  0  0  0  0  0  0  0
    5.9733   -9.6553   17.3832 N   0  0  0  0  0  0  0  0  0  0  0  0
   10.2411   -2.9363   23.4301 C   0  0  0  0  0  0  0  0  0  0  0  0
   10.7288   -3.8197   19.9525 C   0  0  0  0  0  0  0  0  0  0  0  0
   10.1189   -5.0054   19.6987 C   0  0  0  0  0  0  0  0  0  0  0  0
  1  3  4  0
  1  7  4  0
  2 21  4  0
  2 27  4  0
  3  9  4  0
  3 10  4  0
  4  8  4  0
  4 18  4  0
  4 25  1  0
  5  9  4  0
  5 12  4  0
  6 13  1  0
  6 27  1  0
  7 28  4  0
  8 11  4  0
  9 29  4  0
 10 12  4  0
 11 24  1  0
 11 26  4  0
 12 25  1  0
 13 28  1  0
 14 20  4  0
 14 23  4  0
 15 17  4  0
 15 21  4  0
 16 19  4  0
 16 23  4  0
 17 22  4  0
 18 26  4  0
 19 24  4  0
 20 24  4  0
 22 27  4  0
 28 29  4  0
M  END
$$$$

 Created by Python create_sdf_string function

 29 33  0  0  0  0  0  0  0  0999 V2000
   10.7215   -3.3326   17.6437 C   0  0  0  0  0  0  0  0  0  0  0  0
    9.9489   -3.4675   24.6487 N   0  0  0  0  0  0  0  0  0  0  0  0
   10.0172   -4.4740   17.4101 C   0  0  0  0  0  0  0  0  0  0  0  0
    6.9051   -7.9575   16.4222 C   0  0  0  0  0  0  0  0  0  0  0  0
    8.9969   -6.3552   17.9668 N   0  0  0  0  0  0  0  0  0  0  0  0
   10.6702   -3.9051   22.4070 C   0  0  0  0  0  0  0  0  0  0  0  0
   11.0625   -3.0028   18.8894 C   0  0  0  0  0  0  0  0  0  0  0  0
    5.6180   -7.9194   16.1754 O   0  0  0  0  0  0  0  0  0  0  0  0
    9.7259   -5.3080   18.4485 C   0  0  0  0  0  0  0  0  0  0  0  0
    9.4578   -5.0200   16.3036 N   0  0  0  0  0  0  0  0  0  0  0  0
    5.0287   -8.9365   16.8223 C   0  0  0  0  0  0  0  0  0  0  0  0
    8.7742   -6.1498   16.6764 C   0  0  0  0  0  0  0  0  0  0  0  0
   10.9418   -3.4032   21.2053 O   0  0  0  0  0  0  0  0  0  0  0  0
    1.4797   -8.6258   16.2950 C   0  0  0  0  0  0  0  0  0  0  0  0
    9.2861   -1.2743   25.3585 C   0  0  0  0  0  0  0  0  0  0  0  0
    1.8892  -10.3985   17.7511 N   0  0  0  0  0  0  0  0  0  0  0  0
    9.6210   -0.6952   24.0976 C   0  0  0  0  0  0  0  0  0  0  0  0
    7.0792   -9.0217   17.1429 C   0  0  0  0  0  0  0  0  0  0  0  0
    3.1713  -10.1816   17.6634 C   0  0  0  0  0  0  0  0  0  0  0  0
    2.7878   -8.3822   16.2137 C   0  0  0  0  0  0  0  0  0  0  0  0
    9.4601   -2.6590   25.6528 C   0  0  0  0  0  0  0  0  0  0  0  0
   10.1182   -1.5672   23.1165 C   0  0  0  0  0  0  0  0  0  0  0  0
    1.0552   -9.6360   17.0650 C   0  0  0  0  0  0  0  0  0  0  0  0
    3.6519   -9.1783   16.9039 C   0  0  0  0  0  0  0  0  0  0  0  0
    7.8675   -7.0096   15.9415 C   0  0  0  0  0  0  0  0  0  0  0  0
    5.9733   -9.6553   17.3832 N   0  0  0  0  0  0  0  0  0  0  0  0
   10.2411   -2.9363   23.4301 C   0  0  0  0  0  0  0  0  0  0  0  0
   10.7288   -3.8197   19.9525 C   0  0  0  0  0  0  0  0  0  0  0  0
   10.1189   -5.0054   19.6987 C   0  0  0  0  0  0  0  0  0  0  0  0
  1  3  4  0
  1  7  4  0
  2 21  4  0
  2 27  4  0
  3  9  4  0
  3 10  4  0
  4  8  4  0
  4 18  4  0
  4 25  1  0
  5  9  4  0
  5 12  4  0
  6 13  1  0
  6 27  1  0
  7 28  4  0
  8 11  4  0
  9 29  4  0
 10 12  4  0
 11 24  1  0
 11 26  4  0
 12 25  1  0
 13 28  1  0
 14 20  4  0
 14 23  4  0
 15 17  4  0
 15 21  4  0
 16 19  4  0
 16 23  4  0
 17 22  4  0
 18 26  4  0
 19 24  4  0
 20 24  4  0
 22 27  4  0
 28 29  4  0
M  END
$$$$

 Created by Python create_sdf_string function

 29 33  0  0  0  0  0  0  0  0999 V2000
   10.7215   -3.3326   17.6437 C   0  0  0  0  0  0  0  0  0  0  0  0
    9.9489   -3.4675   24.6487 N   0  0  0  0  0  0  0  0  0  0  0  0
   10.0172   -4.4740   17.4101 C   0  0  0  0  0  0  0  0  0  0  0  0
    6.9051   -7.9575   16.4222 C   0  0  0  0  0  0  0  0  0  0  0  0
    8.9969   -6.3552   17.9668 N   0  0  0  0  0  0  0  0  0  0  0  0
   10.6702   -3.9051   22.4070 C   0  0  0  0  0  0  0  0  0  0  0  0
   11.0625   -3.0028   18.8894 C   0  0  0  0  0  0  0  0  0  0  0  0
    5.6180   -7.9194   16.1754 O   0  0  0  0  0  0  0  0  0  0  0  0
    9.7259   -5.3080   18.4485 C   0  0  0  0  0  0  0  0  0  0  0  0
    9.4578   -5.0200   16.3036 N   0  0  0  0  0  0  0  0  0  0  0  0
    5.0287   -8.9365   16.8223 C   0  0  0  0  0  0  0  0  0  0  0  0
    8.7742   -6.1498   16.6764 C   0  0  0  0  0  0  0  0  0  0  0  0
   10.9418   -3.4032   21.2053 O   0  0  0  0  0  0  0  0  0  0  0  0
    1.4797   -8.6258   16.2950 C   0  0  0  0  0  0  0  0  0  0  0  0
    9.2861   -1.2743   25.3585 C   0  0  0  0  0  0  0  0  0  0  0  0
    1.8892  -10.3985   17.7511 N   0  0  0  0  0  0  0  0  0  0  0  0
    9.6210   -0.6952   24.0976 C   0  0  0  0  0  0  0  0  0  0  0  0
    7.0792   -9.0217   17.1429 C   0  0  0  0  0  0  0  0  0  0  0  0
    3.1713  -10.1816   17.6634 C   0  0  0  0  0  0  0  0  0  0  0  0
    2.7878   -8.3822   16.2137 C   0  0  0  0  0  0  0  0  0  0  0  0
    9.4601   -2.6590   25.6528 C   0  0  0  0  0  0  0  0  0  0  0  0
   10.1182   -1.5672   23.1165 C   0  0  0  0  0  0  0  0  0  0  0  0
    1.0552   -9.6360   17.0650 C   0  0  0  0  0  0  0  0  0  0  0  0
    3.6519   -9.1783   16.9039 C   0  0  0  0  0  0  0  0  0  0  0  0
    7.8675   -7.0096   15.9415 C   0  0  0  0  0  0  0  0  0  0  0  0
    5.9733   -9.6553   17.3832 N   0  0  0  0  0  0  0  0  0  0  0  0
   10.2411   -2.9363   23.4301 C   0  0  0  0  0  0  0  0  0  0  0  0
   10.7288   -3.8197   19.9525 C   0  0  0  0  0  0  0  0  0  0  0  0
   10.1189   -5.0054   19.6987 C   0  0  0  0  0  0  0  0  0  0  0  0
  1  3  4  0
  1  7  4  0
  2 21  4  0
  2 27  4  0
  3  9  4  0
  3 10  4  0
  4  8  4  0
  4 18  4  0
  4 25  1  0
  5  9  4  0
  5 12  4  0
  6 13  1  0
  6 27  1  0
  7 28  4  0
  8 11  4  0
  9 29  4  0
 10 12  4  0
 11 24  1  0
 11 26  4  0
 12 25  1  0
 13 28  1  0
 14 20  4  0
 14 23  4  0
 15 17  4  0
 15 21  4  0
 16 19  4  0
 16 23  4  0
 17 22  4  0
 18 26  4  0
 19 24  4  0
 20 24  4  0
 22 27  4  0
 28 29  4  0
M  END
$$$$

 Created by Python create_sdf_string function

 29 33  0  0  0  0  0  0  0  0999 V2000
   10.7215   -3.3326   17.6437 C   0  0  0  0  0  0  0  0  0  0  0  0
    9.9489   -3.4675   24.6487 N   0  0  0  0  0  0  0  0  0  0  0  0
   10.0172   -4.4740   17.4101 C   0  0  0  0  0  0  0  0  0  0  0  0
    6.9051   -7.9575   16.4222 C   0  0  0  0  0  0  0  0  0  0  0  0
    8.9969   -6.3552   17.9668 N   0  0  0  0  0  0  0  0  0  0  0  0
   10.6702   -3.9051   22.4070 C   0  0  0  0  0  0  0  0  0  0  0  0
   11.0625   -3.0028   18.8894 C   0  0  0  0  0  0  0  0  0  0  0  0
    5.6180   -7.9194   16.1754 O   0  0  0  0  0  0  0  0  0  0  0  0
    9.7259   -5.3080   18.4485 C   0  0  0  0  0  0  0  0  0  0  0  0
    9.4578   -5.0200   16.3036 N   0  0  0  0  0  0  0  0  0  0  0  0
    5.0287   -8.9365   16.8223 C   0  0  0  0  0  0  0  0  0  0  0  0
    8.7742   -6.1498   16.6764 C   0  0  0  0  0  0  0  0  0  0  0  0
   10.9418   -3.4032   21.2053 O   0  0  0  0  0  0  0  0  0  0  0  0
    1.4797   -8.6258   16.2950 C   0  0  0  0  0  0  0  0  0  0  0  0
    9.2861   -1.2743   25.3585 C   0  0  0  0  0  0  0  0  0  0  0  0
    1.8892  -10.3985   17.7511 N   0  0  0  0  0  0  0  0  0  0  0  0
    9.6210   -0.6952   24.0976 C   0  0  0  0  0  0  0  0  0  0  0  0
    7.0792   -9.0217   17.1429 C   0  0  0  0  0  0  0  0  0  0  0  0
    3.1713  -10.1816   17.6634 C   0  0  0  0  0  0  0  0  0  0  0  0
    2.7878   -8.3822   16.2137 C   0  0  0  0  0  0  0  0  0  0  0  0
    9.4601   -2.6590   25.6528 C   0  0  0  0  0  0  0  0  0  0  0  0
   10.1182   -1.5672   23.1165 C   0  0  0  0  0  0  0  0  0  0  0  0
    1.0552   -9.6360   17.0650 C   0  0  0  0  0  0  0  0  0  0  0  0
    3.6519   -9.1783   16.9039 C   0  0  0  0  0  0  0  0  0  0  0  0
    7.8675   -7.0096   15.9415 C   0  0  0  0  0  0  0  0  0  0  0  0
    5.9733   -9.6553   17.3832 N   0  0  0  0  0  0  0  0  0  0  0  0
   10.2411   -2.9363   23.4301 C   0  0  0  0  0  0  0  0  0  0  0  0
   10.7288   -3.8197   19.9525 C   0  0  0  0  0  0  0  0  0  0  0  0
   10.1189   -5.0054   19.6987 C   0  0  0  0  0  0  0  0  0  0  0  0
  1  3  4  0
  1  7  4  0
  2 21  4  0
  2 27  4  0
  3  9  4  0
  3 10  4  0
  4  8  4  0
  4 18  4  0
  4 25  1  0
  5  9  4  0
  5 12  4  0
  6 13  1  0
  6 27  1  0
  7 28  4  0
  8 11  4  0
  9 29  4  0
 10 12  4  0
 11 24  1  0
 11 26  4  0
 12 25  1  0
 13 28  1  0
 14 20  4  0
 14 23  4  0
 15 17  4  0
 15 21  4  0
 16 19  4  0
 16 23  4  0
 17 22  4  0
 18 26  4  0
 19 24  4  0
 20 24  4  0
 22 27  4  0
 28 29  4  0
M  END
$$$$

 Created by Python create_sdf_string function

 29 33  0  0  0  0  0  0  0  0999 V2000
   10.7215   -3.3326   17.6437 C   0  0  0  0  0  0  0  0  0  0  0  0
    9.9489   -3.4675   24.6487 N   0  0  0  0  0  0  0  0  0  0  0  0
   10.0172   -4.4740   17.4101 C   0  0  0  0  0  0  0  0  0  0  0  0
    6.9051   -7.9575   16.4222 C   0  0  0  0  0  0  0  0  0  0  0  0
    8.9969   -6.3552   17.9668 N   0  0  0  0  0  0  0  0  0  0  0  0
   10.6702   -3.9051   22.4070 C   0  0  0  0  0  0  0  0  0  0  0  0
   11.0625   -3.0028   18.8894 C   0  0  0  0  0  0  0  0  0  0  0  0
    5.6180   -7.9194   16.1754 O   0  0  0  0  0  0  0  0  0  0  0  0
    9.7259   -5.3080   18.4485 C   0  0  0  0  0  0  0  0  0  0  0  0
    9.4578   -5.0200   16.3036 N   0  0  0  0  0  0  0  0  0  0  0  0
    5.0287   -8.9365   16.8223 C   0  0  0  0  0  0  0  0  0  0  0  0
    8.7742   -6.1498   16.6764 C   0  0  0  0  0  0  0  0  0  0  0  0
   10.9418   -3.4032   21.2053 O   0  0  0  0  0  0  0  0  0  0  0  0
    1.4797   -8.6258   16.2950 C   0  0  0  0  0  0  0  0  0  0  0  0
    9.2861   -1.2743   25.3585 C   0  0  0  0  0  0  0  0  0  0  0  0
    1.8892  -10.3985   17.7511 N   0  0  0  0  0  0  0  0  0  0  0  0
    9.6210   -0.6952   24.0976 C   0  0  0  0  0  0  0  0  0  0  0  0
    7.0792   -9.0217   17.1429 C   0  0  0  0  0  0  0  0  0  0  0  0
    3.1713  -10.1816   17.6634 C   0  0  0  0  0  0  0  0  0  0  0  0
    2.7878   -8.3822   16.2137 C   0  0  0  0  0  0  0  0  0  0  0  0
    9.4601   -2.6590   25.6528 C   0  0  0  0  0  0  0  0  0  0  0  0
   10.1182   -1.5672   23.1165 C   0  0  0  0  0  0  0  0  0  0  0  0
    1.0552   -9.6360   17.0650 C   0  0  0  0  0  0  0  0  0  0  0  0
    3.6519   -9.1783   16.9039 C   0  0  0  0  0  0  0  0  0  0  0  0
    7.8675   -7.0096   15.9415 C   0  0  0  0  0  0  0  0  0  0  0  0
    5.9733   -9.6553   17.3832 N   0  0  0  0  0  0  0  0  0  0  0  0
   10.2411   -2.9363   23.4301 C   0  0  0  0  0  0  0  0  0  0  0  0
   10.7288   -3.8197   19.9525 C   0  0  0  0  0  0  0  0  0  0  0  0
   10.1189   -5.0054   19.6987 C   0  0  0  0  0  0  0  0  0  0  0  0
  1  3  4  0
  1  7  4  0
  2 21  4  0
  2 27  4  0
  3  9  4  0
  3 10  4  0
  4  8  4  0
  4 18  4  0
  4 25  1  0
  5  9  4  0
  5 12  4  0
  6 13  1  0
  6 27  1  0
  7 28  4  0
  8 11  4  0
  9 29  4  0
 10 12  4  0
 11 24  1  0
 11 26  4  0
 12 25  1  0
 13 28  1  0
 14 20  4  0
 14 23  4  0
 15 17  4  0
 15 21  4  0
 16 19  4  0
 16 23  4  0
 17 22  4  0
 18 26  4  0
 19 24  4  0
 20 24  4  0
 22 27  4  0
 28 29  4  0
M  END
$$$$

 Created by Python create_sdf_string function

 29 33  0  0  0  0  0  0  0  0999 V2000
   10.7215   -3.3326   17.6437 C   0  0  0  0  0  0  0  0  0  0  0  0
    9.9489   -3.4675   24.6487 N   0  0  0  0  0  0  0  0  0  0  0  0
   10.0172   -4.4740   17.4101 C   0  0  0  0  0  0  0  0  0  0  0  0
    6.9051   -7.9575   16.4222 C   0  0  0  0  0  0  0  0  0  0  0  0
    8.9969   -6.3552   17.9668 N   0  0  0  0  0  0  0  0  0  0  0  0
   10.6702   -3.9051   22.4070 C   0  0  0  0  0  0  0  0  0  0  0  0
   11.0625   -3.0028   18.8894 C   0  0  0  0  0  0  0  0  0  0  0  0
    5.6180   -7.9194   16.1754 O   0  0  0  0  0  0  0  0  0  0  0  0
    9.7259   -5.3080   18.4485 C   0  0  0  0  0  0  0  0  0  0  0  0
    9.4578   -5.0200   16.3036 N   0  0  0  0  0  0  0  0  0  0  0  0
    5.0287   -8.9365   16.8223 C   0  0  0  0  0  0  0  0  0  0  0  0
    8.7742   -6.1498   16.6764 C   0  0  0  0  0  0  0  0  0  0  0  0
   10.9418   -3.4032   21.2053 O   0  0  0  0  0  0  0  0  0  0  0  0
    1.4797   -8.6258   16.2950 C   0  0  0  0  0  0  0  0  0  0  0  0
    9.2861   -1.2743   25.3585 C   0  0  0  0  0  0  0  0  0  0  0  0
    1.8892  -10.3985   17.7511 N   0  0  0  0  0  0  0  0  0  0  0  0
    9.6210   -0.6952   24.0976 C   0  0  0  0  0  0  0  0  0  0  0  0
    7.0792   -9.0217   17.1429 C   0  0  0  0  0  0  0  0  0  0  0  0
    3.1713  -10.1816   17.6634 C   0  0  0  0  0  0  0  0  0  0  0  0
    2.7878   -8.3822   16.2137 C   0  0  0  0  0  0  0  0  0  0  0  0
    9.4601   -2.6590   25.6528 C   0  0  0  0  0  0  0  0  0  0  0  0
   10.1182   -1.5672   23.1165 C   0  0  0  0  0  0  0  0  0  0  0  0
    1.0552   -9.6360   17.0650 C   0  0  0  0  0  0  0  0  0  0  0  0
    3.6519   -9.1783   16.9039 C   0  0  0  0  0  0  0  0  0  0  0  0
    7.8675   -7.0096   15.9415 C   0  0  0  0  0  0  0  0  0  0  0  0
    5.9733   -9.6553   17.3832 N   0  0  0  0  0  0  0  0  0  0  0  0
   10.2411   -2.9363   23.4301 C   0  0  0  0  0  0  0  0  0  0  0  0
   10.7288   -3.8197   19.9525 C   0  0  0  0  0  0  0  0  0  0  0  0
   10.1189   -5.0054   19.6987 C   0  0  0  0  0  0  0  0  0  0  0  0
  1  3  4  0
  1  7  4  0
  2 21  4  0
  2 27  4  0
  3  9  4  0
  3 10  4  0
  4  8  4  0
  4 18  4  0
  4 25  1  0
  5  9  4  0
  5 12  4  0
  6 13  1  0
  6 27  1  0
  7 28  4  0
  8 11  4  0
  9 29  4  0
 10 12  4  0
 11 24  1  0
 11 26  4  0
 12 25  1  0
 13 28  1  0
 14 20  4  0
 14 23  4  0
 15 17  4  0
 15 21  4  0
 16 19  4  0
 16 23  4  0
 17 22  4  0
 18 26  4  0
 19 24  4  0
 20 24  4  0
 22 27  4  0
 28 29  4  0
M  END
$$$$

 Created by Python create_sdf_string function

 29 33  0  0  0  0  0  0  0  0999 V2000
   10.7215   -3.3326   17.6437 C   0  0  0  0  0  0  0  0  0  0  0  0
    9.9489   -3.4675   24.6487 N   0  0  0  0  0  0  0  0  0  0  0  0
   10.0172   -4.4740   17.4101 C   0  0  0  0  0  0  0  0  0  0  0  0
    6.9051   -7.9575   16.4222 C   0  0  0  0  0  0  0  0  0  0  0  0
    8.9969   -6.3552   17.9668 N   0  0  0  0  0  0  0  0  0  0  0  0
   10.6702   -3.9051   22.4070 C   0  0  0  0  0  0  0  0  0  0  0  0
   11.0625   -3.0028   18.8894 C   0  0  0  0  0  0  0  0  0  0  0  0
    5.6180   -7.9194   16.1754 O   0  0  0  0  0  0  0  0  0  0  0  0
    9.7259   -5.3080   18.4485 C   0  0  0  0  0  0  0  0  0  0  0  0
    9.4578   -5.0200   16.3036 N   0  0  0  0  0  0  0  0  0  0  0  0
    5.0287   -8.9365   16.8223 C   0  0  0  0  0  0  0  0  0  0  0  0
    8.7742   -6.1498   16.6764 C   0  0  0  0  0  0  0  0  0  0  0  0
   10.9418   -3.4032   21.2053 O   0  0  0  0  0  0  0  0  0  0  0  0
    1.4797   -8.6258   16.2950 C   0  0  0  0  0  0  0  0  0  0  0  0
    9.2861   -1.2743   25.3585 C   0  0  0  0  0  0  0  0  0  0  0  0
    1.8892  -10.3985   17.7511 N   0  0  0  0  0  0  0  0  0  0  0  0
    9.6210   -0.6952   24.0976 C   0  0  0  0  0  0  0  0  0  0  0  0
    7.0792   -9.0217   17.1429 C   0  0  0  0  0  0  0  0  0  0  0  0
    3.1713  -10.1816   17.6634 C   0  0  0  0  0  0  0  0  0  0  0  0
    2.7878   -8.3822   16.2137 C   0  0  0  0  0  0  0  0  0  0  0  0
    9.4601   -2.6590   25.6528 C   0  0  0  0  0  0  0  0  0  0  0  0
   10.1182   -1.5672   23.1165 C   0  0  0  0  0  0  0  0  0  0  0  0
    1.0552   -9.6360   17.0650 C   0  0  0  0  0  0  0  0  0  0  0  0
    3.6519   -9.1783   16.9039 C   0  0  0  0  0  0  0  0  0  0  0  0
    7.8675   -7.0096   15.9415 C   0  0  0  0  0  0  0  0  0  0  0  0
    5.9733   -9.6553   17.3832 N   0  0  0  0  0  0  0  0  0  0  0  0
   10.2411   -2.9363   23.4301 C   0  0  0  0  0  0  0  0  0  0  0  0
   10.7288   -3.8197   19.9525 C   0  0  0  0  0  0  0  0  0  0  0  0
   10.1189   -5.0054   19.6987 C   0  0  0  0  0  0  0  0  0  0  0  0
  1  3  4  0
  1  7  4  0
  2 21  4  0
  2 27  4  0
  3  9  4  0
  3 10  4  0
  4  8  4  0
  4 18  4  0
  4 25  1  0
  5  9  4  0
  5 12  4  0
  6 13  1  0
  6 27  1  0
  7 28  4  0
  8 11  4  0
  9 29  4  0
 10 12  4  0
 11 24  1  0
 11 26  4  0
 12 25  1  0
 13 28  1  0
 14 20  4  0
 14 23  4  0
 15 17  4  0
 15 21  4  0
 16 19  4  0
 16 23  4  0
 17 22  4  0
 18 26  4  0
 19 24  4  0
 20 24  4  0
 22 27  4  0
 28 29  4  0
M  END
$$$$

 Created by Python create_sdf_string function

 29 33  0  0  0  0  0  0  0  0999 V2000
   10.7215   -3.3326   17.6437 C   0  0  0  0  0  0  0  0  0  0  0  0
    9.9489   -3.4675   24.6487 N   0  0  0  0  0  0  0  0  0  0  0  0
   10.0172   -4.4740   17.4101 C   0  0  0  0  0  0  0  0  0  0  0  0
    6.9051   -7.9575   16.4222 C   0  0  0  0  0  0  0  0  0  0  0  0
    8.9969   -6.3552   17.9668 N   0  0  0  0  0  0  0  0  0  0  0  0
   10.6702   -3.9051   22.4070 C   0  0  0  0  0  0  0  0  0  0  0  0
   11.0625   -3.0028   18.8894 C   0  0  0  0  0  0  0  0  0  0  0  0
    5.6180   -7.9194   16.1754 O   0  0  0  0  0  0  0  0  0  0  0  0
    9.7259   -5.3080   18.4485 C   0  0  0  0  0  0  0  0  0  0  0  0
    9.4578   -5.0200   16.3036 N   0  0  0  0  0  0  0  0  0  0  0  0
    5.0287   -8.9365   16.8223 C   0  0  0  0  0  0  0  0  0  0  0  0
    8.7742   -6.1498   16.6764 C   0  0  0  0  0  0  0  0  0  0  0  0
   10.9418   -3.4032   21.2053 O   0  0  0  0  0  0  0  0  0  0  0  0
    1.4797   -8.6258   16.2950 C   0  0  0  0  0  0  0  0  0  0  0  0
    9.2861   -1.2743   25.3585 C   0  0  0  0  0  0  0  0  0  0  0  0
    1.8892  -10.3985   17.7511 N   0  0  0  0  0  0  0  0  0  0  0  0
    9.6210   -0.6952   24.0976 C   0  0  0  0  0  0  0  0  0  0  0  0
    7.0792   -9.0217   17.1429 C   0  0  0  0  0  0  0  0  0  0  0  0
    3.1713  -10.1816   17.6634 C   0  0  0  0  0  0  0  0  0  0  0  0
    2.7878   -8.3822   16.2137 C   0  0  0  0  0  0  0  0  0  0  0  0
    9.4601   -2.6590   25.6528 C   0  0  0  0  0  0  0  0  0  0  0  0
   10.1182   -1.5672   23.1165 C   0  0  0  0  0  0  0  0  0  0  0  0
    1.0552   -9.6360   17.0650 C   0  0  0  0  0  0  0  0  0  0  0  0
    3.6519   -9.1783   16.9039 C   0  0  0  0  0  0  0  0  0  0  0  0
    7.8675   -7.0096   15.9415 C   0  0  0  0  0  0  0  0  0  0  0  0
    5.9733   -9.6553   17.3832 N   0  0  0  0  0  0  0  0  0  0  0  0
   10.2411   -2.9363   23.4301 C   0  0  0  0  0  0  0  0  0  0  0  0
   10.7288   -3.8197   19.9525 C   0  0  0  0  0  0  0  0  0  0  0  0
   10.1189   -5.0054   19.6987 C   0  0  0  0  0  0  0  0  0  0  0  0
  1  3  4  0
  1  7  4  0
  2 21  4  0
  2 27  4  0
  3  9  4  0
  3 10  4  0
  4  8  4  0
  4 18  4  0
  4 25  1  0
  5  9  4  0
  5 12  4  0
  6 13  1  0
  6 27  1  0
  7 28  4  0
  8 11  4  0
  9 29  4  0
 10 12  4  0
 11 24  1  0
 11 26  4  0
 12 25  1  0
 13 28  1  0
 14 20  4  0
 14 23  4  0
 15 17  4  0
 15 21  4  0
 16 19  4  0
 16 23  4  0
 17 22  4  0
 18 26  4  0
 19 24  4  0
 20 24  4  0
 22 27  4  0
 28 29  4  0
M  END
$$$$

 Created by Python create_sdf_string function

 29 33  0  0  0  0  0  0  0  0999 V2000
   10.7215   -3.3326   17.6437 C   0  0  0  0  0  0  0  0  0  0  0  0
    9.9489   -3.4675   24.6487 N   0  0  0  0  0  0  0  0  0  0  0  0
   10.0172   -4.4740   17.4101 C   0  0  0  0  0  0  0  0  0  0  0  0
    6.9051   -7.9575   16.4222 C   0  0  0  0  0  0  0  0  0  0  0  0
    8.9969   -6.3552   17.9668 N   0  0  0  0  0  0  0  0  0  0  0  0
   10.6702   -3.9051   22.4070 C   0  0  0  0  0  0  0  0  0  0  0  0
   11.0625   -3.0028   18.8894 C   0  0  0  0  0  0  0  0  0  0  0  0
    5.6180   -7.9194   16.1754 O   0  0  0  0  0  0  0  0  0  0  0  0
    9.7259   -5.3080   18.4485 C   0  0  0  0  0  0  0  0  0  0  0  0
    9.4578   -5.0200   16.3036 N   0  0  0  0  0  0  0  0  0  0  0  0
    5.0287   -8.9365   16.8223 C   0  0  0  0  0  0  0  0  0  0  0  0
    8.7742   -6.1498   16.6764 C   0  0  0  0  0  0  0  0  0  0  0  0
   10.9418   -3.4032   21.2053 O   0  0  0  0  0  0  0  0  0  0  0  0
    1.4797   -8.6258   16.2950 C   0  0  0  0  0  0  0  0  0  0  0  0
    9.2861   -1.2743   25.3585 C   0  0  0  0  0  0  0  0  0  0  0  0
    1.8892  -10.3985   17.7511 N   0  0  0  0  0  0  0  0  0  0  0  0
    9.6210   -0.6952   24.0976 C   0  0  0  0  0  0  0  0  0  0  0  0
    7.0792   -9.0217   17.1429 C   0  0  0  0  0  0  0  0  0  0  0  0
    3.1713  -10.1816   17.6634 C   0  0  0  0  0  0  0  0  0  0  0  0
    2.7878   -8.3822   16.2137 C   0  0  0  0  0  0  0  0  0  0  0  0
    9.4601   -2.6590   25.6528 C   0  0  0  0  0  0  0  0  0  0  0  0
   10.1182   -1.5672   23.1165 C   0  0  0  0  0  0  0  0  0  0  0  0
    1.0552   -9.6360   17.0650 C   0  0  0  0  0  0  0  0  0  0  0  0
    3.6519   -9.1783   16.9039 C   0  0  0  0  0  0  0  0  0  0  0  0
    7.8675   -7.0096   15.9415 C   0  0  0  0  0  0  0  0  0  0  0  0
    5.9733   -9.6553   17.3832 N   0  0  0  0  0  0  0  0  0  0  0  0
   10.2411   -2.9363   23.4301 C   0  0  0  0  0  0  0  0  0  0  0  0
   10.7288   -3.8197   19.9525 C   0  0  0  0  0  0  0  0  0  0  0  0
   10.1189   -5.0054   19.6987 C   0  0  0  0  0  0  0  0  0  0  0  0
  1  3  4  0
  1  7  4  0
  2 21  4  0
  2 27  4  0
  3  9  4  0
  3 10  4  0
  4  8  4  0
  4 18  4  0
  4 25  1  0
  5  9  4  0
  5 12  4  0
  6 13  1  0
  6 27  1  0
  7 28  4  0
  8 11  4  0
  9 29  4  0
 10 12  4  0
 11 24  1  0
 11 26  4  0
 12 25  1  0
 13 28  1  0
 14 20  4  0
 14 23  4  0
 15 17  4  0
 15 21  4  0
 16 19  4  0
 16 23  4  0
 17 22  4  0
 18 26  4  0
 19 24  4  0
 20 24  4  0
 22 27  4  0
 28 29  4  0
M  END
$$$$

 Created by Python create_sdf_string function

 29 33  0  0  0  0  0  0  0  0999 V2000
   10.7215   -3.3326   17.6437 C   0  0  0  0  0  0  0  0  0  0  0  0
    9.9489   -3.4675   24.6487 N   0  0  0  0  0  0  0  0  0  0  0  0
   10.0172   -4.4740   17.4101 C   0  0  0  0  0  0  0  0  0  0  0  0
    6.9051   -7.9575   16.4222 C   0  0  0  0  0  0  0  0  0  0  0  0
    8.9969   -6.3552   17.9668 N   0  0  0  0  0  0  0  0  0  0  0  0
   10.6702   -3.9051   22.4070 C   0  0  0  0  0  0  0  0  0  0  0  0
   11.0625   -3.0028   18.8894 C   0  0  0  0  0  0  0  0  0  0  0  0
    5.6180   -7.9194   16.1754 O   0  0  0  0  0  0  0  0  0  0  0  0
    9.7259   -5.3080   18.4485 C   0  0  0  0  0  0  0  0  0  0  0  0
    9.4578   -5.0200   16.3036 N   0  0  0  0  0  0  0  0  0  0  0  0
    5.0287   -8.9365   16.8223 C   0  0  0  0  0  0  0  0  0  0  0  0
    8.7742   -6.1498   16.6764 C   0  0  0  0  0  0  0  0  0  0  0  0
   10.9418   -3.4032   21.2053 O   0  0  0  0  0  0  0  0  0  0  0  0
    1.4797   -8.6258   16.2950 C   0  0  0  0  0  0  0  0  0  0  0  0
    9.2861   -1.2743   25.3585 C   0  0  0  0  0  0  0  0  0  0  0  0
    1.8892  -10.3985   17.7511 N   0  0  0  0  0  0  0  0  0  0  0  0
    9.6210   -0.6952   24.0976 C   0  0  0  0  0  0  0  0  0  0  0  0
    7.0792   -9.0217   17.1429 C   0  0  0  0  0  0  0  0  0  0  0  0
    3.1713  -10.1816   17.6634 C   0  0  0  0  0  0  0  0  0  0  0  0
    2.7878   -8.3822   16.2137 C   0  0  0  0  0  0  0  0  0  0  0  0
    9.4601   -2.6590   25.6528 C   0  0  0  0  0  0  0  0  0  0  0  0
   10.1182   -1.5672   23.1165 C   0  0  0  0  0  0  0  0  0  0  0  0
    1.0552   -9.6360   17.0650 C   0  0  0  0  0  0  0  0  0  0  0  0
    3.6519   -9.1783   16.9039 C   0  0  0  0  0  0  0  0  0  0  0  0
    7.8675   -7.0096   15.9415 C   0  0  0  0  0  0  0  0  0  0  0  0
    5.9733   -9.6553   17.3832 N   0  0  0  0  0  0  0  0  0  0  0  0
   10.2411   -2.9363   23.4301 C   0  0  0  0  0  0  0  0  0  0  0  0
   10.7288   -3.8197   19.9525 C   0  0  0  0  0  0  0  0  0  0  0  0
   10.1189   -5.0054   19.6987 C   0  0  0  0  0  0  0  0  0  0  0  0
  1  3  4  0
  1  7  4  0
  2 21  4  0
  2 27  4  0
  3  9  4  0
  3 10  4  0
  4  8  4  0
  4 18  4  0
  4 25  1  0
  5  9  4  0
  5 12  4  0
  6 13  1  0
  6 27  1  0
  7 28  4  0
  8 11  4  0
  9 29  4  0
 10 12  4  0
 11 24  1  0
 11 26  4  0
 12 25  1  0
 13 28  1  0
 14 20  4  0
 14 23  4  0
 15 17  4  0
 15 21  4  0
 16 19  4  0
 16 23  4  0
 17 22  4  0
 18 26  4  0
 19 24  4  0
 20 24  4  0
 22 27  4  0
 28 29  4  0
M  END
$$$$

 Created by Python create_sdf_string function

 29 33  0  0  0  0  0  0  0  0999 V2000
   10.7215   -3.3326   17.6437 C   0  0  0  0  0  0  0  0  0  0  0  0
    9.9489   -3.4675   24.6487 N   0  0  0  0  0  0  0  0  0  0  0  0
   10.0172   -4.4740   17.4101 C   0  0  0  0  0  0  0  0  0  0  0  0
    6.9051   -7.9575   16.4222 C   0  0  0  0  0  0  0  0  0  0  0  0
    8.9969   -6.3552   17.9668 N   0  0  0  0  0  0  0  0  0  0  0  0
   10.6702   -3.9051   22.4070 C   0  0  0  0  0  0  0  0  0  0  0  0
   11.0625   -3.0028   18.8894 C   0  0  0  0  0  0  0  0  0  0  0  0
    5.6180   -7.9194   16.1754 O   0  0  0  0  0  0  0  0  0  0  0  0
    9.7259   -5.3080   18.4485 C   0  0  0  0  0  0  0  0  0  0  0  0
    9.4578   -5.0200   16.3036 N   0  0  0  0  0  0  0  0  0  0  0  0
    5.0287   -8.9365   16.8223 C   0  0  0  0  0  0  0  0  0  0  0  0
    8.7742   -6.1498   16.6764 C   0  0  0  0  0  0  0  0  0  0  0  0
   10.9418   -3.4032   21.2053 O   0  0  0  0  0  0  0  0  0  0  0  0
    1.4797   -8.6258   16.2950 C   0  0  0  0  0  0  0  0  0  0  0  0
    9.2861   -1.2743   25.3585 C   0  0  0  0  0  0  0  0  0  0  0  0
    1.8892  -10.3985   17.7511 N   0  0  0  0  0  0  0  0  0  0  0  0
    9.6210   -0.6952   24.0976 C   0  0  0  0  0  0  0  0  0  0  0  0
    7.0792   -9.0217   17.1429 C   0  0  0  0  0  0  0  0  0  0  0  0
    3.1713  -10.1816   17.6634 C   0  0  0  0  0  0  0  0  0  0  0  0
    2.7878   -8.3822   16.2137 C   0  0  0  0  0  0  0  0  0  0  0  0
    9.4601   -2.6590   25.6528 C   0  0  0  0  0  0  0  0  0  0  0  0
   10.1182   -1.5672   23.1165 C   0  0  0  0  0  0  0  0  0  0  0  0
    1.0552   -9.6360   17.0650 C   0  0  0  0  0  0  0  0  0  0  0  0
    3.6519   -9.1783   16.9039 C   0  0  0  0  0  0  0  0  0  0  0  0
    7.8675   -7.0096   15.9415 C   0  0  0  0  0  0  0  0  0  0  0  0
    5.9733   -9.6553   17.3832 N   0  0  0  0  0  0  0  0  0  0  0  0
   10.2411   -2.9363   23.4301 C   0  0  0  0  0  0  0  0  0  0  0  0
   10.7288   -3.8197   19.9525 C   0  0  0  0  0  0  0  0  0  0  0  0
   10.1189   -5.0054   19.6987 C   0  0  0  0  0  0  0  0  0  0  0  0
  1  3  4  0
  1  7  4  0
  2 21  4  0
  2 27  4  0
  3  9  4  0
  3 10  4  0
  4  8  4  0
  4 18  4  0
  4 25  1  0
  5  9  4  0
  5 12  4  0
  6 13  1  0
  6 27  1  0
  7 28  4  0
  8 11  4  0
  9 29  4  0
 10 12  4  0
 11 24  1  0
 11 26  4  0
 12 25  1  0
 13 28  1  0
 14 20  4  0
 14 23  4  0
 15 17  4  0
 15 21  4  0
 16 19  4  0
 16 23  4  0
 17 22  4  0
 18 26  4  0
 19 24  4  0
 20 24  4  0
 22 27  4  0
 28 29  4  0
M  END
$$$$

 Created by Python create_sdf_string function

 29 33  0  0  0  0  0  0  0  0999 V2000
   10.7215   -3.3326   17.6437 C   0  0  0  0  0  0  0  0  0  0  0  0
    9.9489   -3.4675   24.6487 N   0  0  0  0  0  0  0  0  0  0  0  0
   10.0172   -4.4740   17.4101 C   0  0  0  0  0  0  0  0  0  0  0  0
    6.9051   -7.9575   16.4222 C   0  0  0  0  0  0  0  0  0  0  0  0
    8.9969   -6.3552   17.9668 N   0  0  0  0  0  0  0  0  0  0  0  0
   10.6702   -3.9051   22.4070 C   0  0  0  0  0  0  0  0  0  0  0  0
   11.0625   -3.0028   18.8894 C   0  0  0  0  0  0  0  0  0  0  0  0
    5.6180   -7.9194   16.1754 O   0  0  0  0  0  0  0  0  0  0  0  0
    9.7259   -5.3080   18.4485 C   0  0  0  0  0  0  0  0  0  0  0  0
    9.4578   -5.0200   16.3036 N   0  0  0  0  0  0  0  0  0  0  0  0
    5.0287   -8.9365   16.8223 C   0  0  0  0  0  0  0  0  0  0  0  0
    8.7742   -6.1498   16.6764 C   0  0  0  0  0  0  0  0  0  0  0  0
   10.9418   -3.4032   21.2053 O   0  0  0  0  0  0  0  0  0  0  0  0
    1.4797   -8.6258   16.2950 C   0  0  0  0  0  0  0  0  0  0  0  0
    9.2861   -1.2743   25.3585 C   0  0  0  0  0  0  0  0  0  0  0  0
    1.8892  -10.3985   17.7511 N   0  0  0  0  0  0  0  0  0  0  0  0
    9.6210   -0.6952   24.0976 C   0  0  0  0  0  0  0  0  0  0  0  0
    7.0792   -9.0217   17.1429 C   0  0  0  0  0  0  0  0  0  0  0  0
    3.1713  -10.1816   17.6634 C   0  0  0  0  0  0  0  0  0  0  0  0
    2.7878   -8.3822   16.2137 C   0  0  0  0  0  0  0  0  0  0  0  0
    9.4601   -2.6590   25.6528 C   0  0  0  0  0  0  0  0  0  0  0  0
   10.1182   -1.5672   23.1165 C   0  0  0  0  0  0  0  0  0  0  0  0
    1.0552   -9.6360   17.0650 C   0  0  0  0  0  0  0  0  0  0  0  0
    3.6519   -9.1783   16.9039 C   0  0  0  0  0  0  0  0  0  0  0  0
    7.8675   -7.0096   15.9415 C   0  0  0  0  0  0  0  0  0  0  0  0
    5.9733   -9.6553   17.3832 N   0  0  0  0  0  0  0  0  0  0  0  0
   10.2411   -2.9363   23.4301 C   0  0  0  0  0  0  0  0  0  0  0  0
   10.7288   -3.8197   19.9525 C   0  0  0  0  0  0  0  0  0  0  0  0
   10.1189   -5.0054   19.6987 C   0  0  0  0  0  0  0  0  0  0  0  0
  1  3  4  0
  1  7  4  0
  2 21  4  0
  2 27  4  0
  3  9  4  0
  3 10  4  0
  4  8  4  0
  4 18  4  0
  4 25  1  0
  5  9  4  0
  5 12  4  0
  6 13  1  0
  6 27  1  0
  7 28  4  0
  8 11  4  0
  9 29  4  0
 10 12  4  0
 11 24  1  0
 11 26  4  0
 12 25  1  0
 13 28  1  0
 14 20  4  0
 14 23  4  0
 15 17  4  0
 15 21  4  0
 16 19  4  0
 16 23  4  0
 17 22  4  0
 18 26  4  0
 19 24  4  0
 20 24  4  0
 22 27  4  0
 28 29  4  0
M  END
$$$$

 Created by Python create_sdf_string function

 29 33  0  0  0  0  0  0  0  0999 V2000
   10.7215   -3.3326   17.6437 C   0  0  0  0  0  0  0  0  0  0  0  0
    9.9489   -3.4675   24.6487 N   0  0  0  0  0  0  0  0  0  0  0  0
   10.0172   -4.4740   17.4101 C   0  0  0  0  0  0  0  0  0  0  0  0
    6.9051   -7.9575   16.4222 C   0  0  0  0  0  0  0  0  0  0  0  0
    8.9969   -6.3552   17.9668 N   0  0  0  0  0  0  0  0  0  0  0  0
   10.6702   -3.9051   22.4070 C   0  0  0  0  0  0  0  0  0  0  0  0
   11.0625   -3.0028   18.8894 C   0  0  0  0  0  0  0  0  0  0  0  0
    5.6180   -7.9194   16.1754 O   0  0  0  0  0  0  0  0  0  0  0  0
    9.7259   -5.3080   18.4485 C   0  0  0  0  0  0  0  0  0  0  0  0
    9.4578   -5.0200   16.3036 N   0  0  0  0  0  0  0  0  0  0  0  0
    5.0287   -8.9365   16.8223 C   0  0  0  0  0  0  0  0  0  0  0  0
    8.7742   -6.1498   16.6764 C   0  0  0  0  0  0  0  0  0  0  0  0
   10.9418   -3.4032   21.2053 O   0  0  0  0  0  0  0  0  0  0  0  0
    1.4797   -8.6258   16.2950 C   0  0  0  0  0  0  0  0  0  0  0  0
    9.2861   -1.2743   25.3585 C   0  0  0  0  0  0  0  0  0  0  0  0
    1.8892  -10.3985   17.7511 N   0  0  0  0  0  0  0  0  0  0  0  0
    9.6210   -0.6952   24.0976 C   0  0  0  0  0  0  0  0  0  0  0  0
    7.0792   -9.0217   17.1429 C   0  0  0  0  0  0  0  0  0  0  0  0
    3.1713  -10.1816   17.6634 C   0  0  0  0  0  0  0  0  0  0  0  0
    2.7878   -8.3822   16.2137 C   0  0  0  0  0  0  0  0  0  0  0  0
    9.4601   -2.6590   25.6528 C   0  0  0  0  0  0  0  0  0  0  0  0
   10.1182   -1.5672   23.1165 C   0  0  0  0  0  0  0  0  0  0  0  0
    1.0552   -9.6360   17.0650 C   0  0  0  0  0  0  0  0  0  0  0  0
    3.6519   -9.1783   16.9039 C   0  0  0  0  0  0  0  0  0  0  0  0
    7.8675   -7.0096   15.9415 C   0  0  0  0  0  0  0  0  0  0  0  0
    5.9733   -9.6553   17.3832 N   0  0  0  0  0  0  0  0  0  0  0  0
   10.2411   -2.9363   23.4301 C   0  0  0  0  0  0  0  0  0  0  0  0
   10.7288   -3.8197   19.9525 C   0  0  0  0  0  0  0  0  0  0  0  0
   10.1189   -5.0054   19.6987 C   0  0  0  0  0  0  0  0  0  0  0  0
  1  3  4  0
  1  7  4  0
  2 21  4  0
  2 27  4  0
  3  9  4  0
  3 10  4  0
  4  8  4  0
  4 18  4  0
  4 25  1  0
  5  9  4  0
  5 12  4  0
  6 13  1  0
  6 27  1  0
  7 28  4  0
  8 11  4  0
  9 29  4  0
 10 12  4  0
 11 24  1  0
 11 26  4  0
 12 25  1  0
 13 28  1  0
 14 20  4  0
 14 23  4  0
 15 17  4  0
 15 21  4  0
 16 19  4  0
 16 23  4  0
 17 22  4  0
 18 26  4  0
 19 24  4  0
 20 24  4  0
 22 27  4  0
 28 29  4  0
M  END
$$$$

 Created by Python create_sdf_string function

 29 33  0  0  0  0  0  0  0  0999 V2000
   10.7215   -3.3326   17.6437 C   0  0  0  0  0  0  0  0  0  0  0  0
    9.9489   -3.4675   24.6487 N   0  0  0  0  0  0  0  0  0  0  0  0
   10.0172   -4.4740   17.4101 C   0  0  0  0  0  0  0  0  0  0  0  0
    6.9051   -7.9575   16.4222 C   0  0  0  0  0  0  0  0  0  0  0  0
    8.9969   -6.3552   17.9668 N   0  0  0  0  0  0  0  0  0  0  0  0
   10.6702   -3.9051   22.4070 C   0  0  0  0  0  0  0  0  0  0  0  0
   11.0625   -3.0028   18.8894 C   0  0  0  0  0  0  0  0  0  0  0  0
    5.6180   -7.9194   16.1754 O   0  0  0  0  0  0  0  0  0  0  0  0
    9.7259   -5.3080   18.4485 C   0  0  0  0  0  0  0  0  0  0  0  0
    9.4578   -5.0200   16.3036 N   0  0  0  0  0  0  0  0  0  0  0  0
    5.0287   -8.9365   16.8223 C   0  0  0  0  0  0  0  0  0  0  0  0
    8.7742   -6.1498   16.6764 C   0  0  0  0  0  0  0  0  0  0  0  0
   10.9418   -3.4032   21.2053 O   0  0  0  0  0  0  0  0  0  0  0  0
    1.4797   -8.6258   16.2950 C   0  0  0  0  0  0  0  0  0  0  0  0
    9.2861   -1.2743   25.3585 C   0  0  0  0  0  0  0  0  0  0  0  0
    1.8892  -10.3985   17.7511 N   0  0  0  0  0  0  0  0  0  0  0  0
    9.6210   -0.6952   24.0976 C   0  0  0  0  0  0  0  0  0  0  0  0
    7.0792   -9.0217   17.1429 C   0  0  0  0  0  0  0  0  0  0  0  0
    3.1713  -10.1816   17.6634 C   0  0  0  0  0  0  0  0  0  0  0  0
    2.7878   -8.3822   16.2137 C   0  0  0  0  0  0  0  0  0  0  0  0
    9.4601   -2.6590   25.6528 C   0  0  0  0  0  0  0  0  0  0  0  0
   10.1182   -1.5672   23.1165 C   0  0  0  0  0  0  0  0  0  0  0  0
    1.0552   -9.6360   17.0650 C   0  0  0  0  0  0  0  0  0  0  0  0
    3.6519   -9.1783   16.9039 C   0  0  0  0  0  0  0  0  0  0  0  0
    7.8675   -7.0096   15.9415 C   0  0  0  0  0  0  0  0  0  0  0  0
    5.9733   -9.6553   17.3832 N   0  0  0  0  0  0  0  0  0  0  0  0
   10.2411   -2.9363   23.4301 C   0  0  0  0  0  0  0  0  0  0  0  0
   10.7288   -3.8197   19.9525 C   0  0  0  0  0  0  0  0  0  0  0  0
   10.1189   -5.0054   19.6987 C   0  0  0  0  0  0  0  0  0  0  0  0
  1  3  4  0
  1  7  4  0
  2 21  4  0
  2 27  4  0
  3  9  4  0
  3 10  4  0
  4  8  4  0
  4 18  4  0
  4 25  1  0
  5  9  4  0
  5 12  4  0
  6 13  1  0
  6 27  1  0
  7 28  4  0
  8 11  4  0
  9 29  4  0
 10 12  4  0
 11 24  1  0
 11 26  4  0
 12 25  1  0
 13 28  1  0
 14 20  4  0
 14 23  4  0
 15 17  4  0
 15 21  4  0
 16 19  4  0
 16 23  4  0
 17 22  4  0
 18 26  4  0
 19 24  4  0
 20 24  4  0
 22 27  4  0
 28 29  4  0
M  END
$$$$

 Created by Python create_sdf_string function

 29 33  0  0  0  0  0  0  0  0999 V2000
   10.7215   -3.3326   17.6437 C   0  0  0  0  0  0  0  0  0  0  0  0
    9.9489   -3.4675   24.6487 N   0  0  0  0  0  0  0  0  0  0  0  0
   10.0172   -4.4740   17.4101 C   0  0  0  0  0  0  0  0  0  0  0  0
    6.9051   -7.9575   16.4222 C   0  0  0  0  0  0  0  0  0  0  0  0
    8.9969   -6.3552   17.9668 N   0  0  0  0  0  0  0  0  0  0  0  0
   10.6702   -3.9051   22.4070 C   0  0  0  0  0  0  0  0  0  0  0  0
   11.0625   -3.0028   18.8894 C   0  0  0  0  0  0  0  0  0  0  0  0
    5.6180   -7.9194   16.1754 O   0  0  0  0  0  0  0  0  0  0  0  0
    9.7259   -5.3080   18.4485 C   0  0  0  0  0  0  0  0  0  0  0  0
    9.4578   -5.0200   16.3036 N   0  0  0  0  0  0  0  0  0  0  0  0
    5.0287   -8.9365   16.8223 C   0  0  0  0  0  0  0  0  0  0  0  0
    8.7742   -6.1498   16.6764 C   0  0  0  0  0  0  0  0  0  0  0  0
   10.9418   -3.4032   21.2053 O   0  0  0  0  0  0  0  0  0  0  0  0
    1.4797   -8.6258   16.2950 C   0  0  0  0  0  0  0  0  0  0  0  0
    9.2861   -1.2743   25.3585 C   0  0  0  0  0  0  0  0  0  0  0  0
    1.8892  -10.3985   17.7511 N   0  0  0  0  0  0  0  0  0  0  0  0
    9.6210   -0.6952   24.0976 C   0  0  0  0  0  0  0  0  0  0  0  0
    7.0792   -9.0217   17.1429 C   0  0  0  0  0  0  0  0  0  0  0  0
    3.1713  -10.1816   17.6634 C   0  0  0  0  0  0  0  0  0  0  0  0
    2.7878   -8.3822   16.2137 C   0  0  0  0  0  0  0  0  0  0  0  0
    9.4601   -2.6590   25.6528 C   0  0  0  0  0  0  0  0  0  0  0  0
   10.1182   -1.5672   23.1165 C   0  0  0  0  0  0  0  0  0  0  0  0
    1.0552   -9.6360   17.0650 C   0  0  0  0  0  0  0  0  0  0  0  0
    3.6519   -9.1783   16.9039 C   0  0  0  0  0  0  0  0  0  0  0  0
    7.8675   -7.0096   15.9415 C   0  0  0  0  0  0  0  0  0  0  0  0
    5.9733   -9.6553   17.3832 N   0  0  0  0  0  0  0  0  0  0  0  0
   10.2411   -2.9363   23.4301 C   0  0  0  0  0  0  0  0  0  0  0  0
   10.7288   -3.8197   19.9525 C   0  0  0  0  0  0  0  0  0  0  0  0
   10.1189   -5.0054   19.6987 C   0  0  0  0  0  0  0  0  0  0  0  0
  1  3  4  0
  1  7  4  0
  2 21  4  0
  2 27  4  0
  3  9  4  0
  3 10  4  0
  4  8  4  0
  4 18  4  0
  4 25  1  0
  5  9  4  0
  5 12  4  0
  6 13  1  0
  6 27  1  0
  7 28  4  0
  8 11  4  0
  9 29  4  0
 10 12  4  0
 11 24  1  0
 11 26  4  0
 12 25  1  0
 13 28  1  0
 14 20  4  0
 14 23  4  0
 15 17  4  0
 15 21  4  0
 16 19  4  0
 16 23  4  0
 17 22  4  0
 18 26  4  0
 19 24  4  0
 20 24  4  0
 22 27  4  0
 28 29  4  0
M  END
$$$$

 Created by Python create_sdf_string function

 29 33  0  0  0  0  0  0  0  0999 V2000
   10.7215   -3.3326   17.6437 C   0  0  0  0  0  0  0  0  0  0  0  0
    9.9489   -3.4675   24.6487 N   0  0  0  0  0  0  0  0  0  0  0  0
   10.0172   -4.4740   17.4101 C   0  0  0  0  0  0  0  0  0  0  0  0
    6.9051   -7.9575   16.4222 C   0  0  0  0  0  0  0  0  0  0  0  0
    8.9969   -6.3552   17.9668 N   0  0  0  0  0  0  0  0  0  0  0  0
   10.6702   -3.9051   22.4070 C   0  0  0  0  0  0  0  0  0  0  0  0
   11.0625   -3.0028   18.8894 C   0  0  0  0  0  0  0  0  0  0  0  0
    5.6180   -7.9194   16.1754 O   0  0  0  0  0  0  0  0  0  0  0  0
    9.7259   -5.3080   18.4485 C   0  0  0  0  0  0  0  0  0  0  0  0
    9.4578   -5.0200   16.3036 N   0  0  0  0  0  0  0  0  0  0  0  0
    5.0287   -8.9365   16.8223 C   0  0  0  0  0  0  0  0  0  0  0  0
    8.7742   -6.1498   16.6764 C   0  0  0  0  0  0  0  0  0  0  0  0
   10.9418   -3.4032   21.2053 O   0  0  0  0  0  0  0  0  0  0  0  0
    1.4797   -8.6258   16.2950 C   0  0  0  0  0  0  0  0  0  0  0  0
    9.2861   -1.2743   25.3585 C   0  0  0  0  0  0  0  0  0  0  0  0
    1.8892  -10.3985   17.7511 N   0  0  0  0  0  0  0  0  0  0  0  0
    9.6210   -0.6952   24.0976 C   0  0  0  0  0  0  0  0  0  0  0  0
    7.0792   -9.0217   17.1429 C   0  0  0  0  0  0  0  0  0  0  0  0
    3.1713  -10.1816   17.6634 C   0  0  0  0  0  0  0  0  0  0  0  0
    2.7878   -8.3822   16.2137 C   0  0  0  0  0  0  0  0  0  0  0  0
    9.4601   -2.6590   25.6528 C   0  0  0  0  0  0  0  0  0  0  0  0
   10.1182   -1.5672   23.1165 C   0  0  0  0  0  0  0  0  0  0  0  0
    1.0552   -9.6360   17.0650 C   0  0  0  0  0  0  0  0  0  0  0  0
    3.6519   -9.1783   16.9039 C   0  0  0  0  0  0  0  0  0  0  0  0
    7.8675   -7.0096   15.9415 C   0  0  0  0  0  0  0  0  0  0  0  0
    5.9733   -9.6553   17.3832 N   0  0  0  0  0  0  0  0  0  0  0  0
   10.2411   -2.9363   23.4301 C   0  0  0  0  0  0  0  0  0  0  0  0
   10.7288   -3.8197   19.9525 C   0  0  0  0  0  0  0  0  0  0  0  0
   10.1189   -5.0054   19.6987 C   0  0  0  0  0  0  0  0  0  0  0  0
  1  3  4  0
  1  7  4  0
  2 21  4  0
  2 27  4  0
  3  9  4  0
  3 10  4  0
  4  8  4  0
  4 18  4  0
  4 25  1  0
  5  9  4  0
  5 12  4  0
  6 13  1  0
  6 27  1  0
  7 28  4  0
  8 11  4  0
  9 29  4  0
 10 12  4  0
 11 24  1  0
 11 26  4  0
 12 25  1  0
 13 28  1  0
 14 20  4  0
 14 23  4  0
 15 17  4  0
 15 21  4  0
 16 19  4  0
 16 23  4  0
 17 22  4  0
 18 26  4  0
 19 24  4  0
 20 24  4  0
 22 27  4  0
 28 29  4  0
M  END
$$$$

 Created by Python create_sdf_string function

 29 33  0  0  0  0  0  0  0  0999 V2000
   10.7215   -3.3326   17.6437 C   0  0  0  0  0  0  0  0  0  0  0  0
    9.9489   -3.4675   24.6487 N   0  0  0  0  0  0  0  0  0  0  0  0
   10.0172   -4.4740   17.4101 C   0  0  0  0  0  0  0  0  0  0  0  0
    6.9051   -7.9575   16.4222 C   0  0  0  0  0  0  0  0  0  0  0  0
    8.9969   -6.3552   17.9668 N   0  0  0  0  0  0  0  0  0  0  0  0
   10.6702   -3.9051   22.4070 C   0  0  0  0  0  0  0  0  0  0  0  0
   11.0625   -3.0028   18.8894 C   0  0  0  0  0  0  0  0  0  0  0  0
    5.6180   -7.9194   16.1754 O   0  0  0  0  0  0  0  0  0  0  0  0
    9.7259   -5.3080   18.4485 C   0  0  0  0  0  0  0  0  0  0  0  0
    9.4578   -5.0200   16.3036 N   0  0  0  0  0  0  0  0  0  0  0  0
    5.0287   -8.9365   16.8223 C   0  0  0  0  0  0  0  0  0  0  0  0
    8.7742   -6.1498   16.6764 C   0  0  0  0  0  0  0  0  0  0  0  0
   10.9418   -3.4032   21.2053 O   0  0  0  0  0  0  0  0  0  0  0  0
    1.4797   -8.6258   16.2950 C   0  0  0  0  0  0  0  0  0  0  0  0
    9.2861   -1.2743   25.3585 C   0  0  0  0  0  0  0  0  0  0  0  0
    1.8892  -10.3985   17.7511 N   0  0  0  0  0  0  0  0  0  0  0  0
    9.6210   -0.6952   24.0976 C   0  0  0  0  0  0  0  0  0  0  0  0
    7.0792   -9.0217   17.1429 C   0  0  0  0  0  0  0  0  0  0  0  0
    3.1713  -10.1816   17.6634 C   0  0  0  0  0  0  0  0  0  0  0  0
    2.7878   -8.3822   16.2137 C   0  0  0  0  0  0  0  0  0  0  0  0
    9.4601   -2.6590   25.6528 C   0  0  0  0  0  0  0  0  0  0  0  0
   10.1182   -1.5672   23.1165 C   0  0  0  0  0  0  0  0  0  0  0  0
    1.0552   -9.6360   17.0650 C   0  0  0  0  0  0  0  0  0  0  0  0
    3.6519   -9.1783   16.9039 C   0  0  0  0  0  0  0  0  0  0  0  0
    7.8675   -7.0096   15.9415 C   0  0  0  0  0  0  0  0  0  0  0  0
    5.9733   -9.6553   17.3832 N   0  0  0  0  0  0  0  0  0  0  0  0
   10.2411   -2.9363   23.4301 C   0  0  0  0  0  0  0  0  0  0  0  0
   10.7288   -3.8197   19.9525 C   0  0  0  0  0  0  0  0  0  0  0  0
   10.1189   -5.0054   19.6987 C   0  0  0  0  0  0  0  0  0  0  0  0
  1  3  4  0
  1  7  4  0
  2 21  4  0
  2 27  4  0
  3  9  4  0
  3 10  4  0
  4  8  4  0
  4 18  4  0
  4 25  1  0
  5  9  4  0
  5 12  4  0
  6 13  1  0
  6 27  1  0
  7 28  4  0
  8 11  4  0
  9 29  4  0
 10 12  4  0
 11 24  1  0
 11 26  4  0
 12 25  1  0
 13 28  1  0
 14 20  4  0
 14 23  4  0
 15 17  4  0
 15 21  4  0
 16 19  4  0
 16 23  4  0
 17 22  4  0
 18 26  4  0
 19 24  4  0
 20 24  4  0
 22 27  4  0
 28 29  4  0
M  END
$$$$

 Created by Python create_sdf_string function

 29 33  0  0  0  0  0  0  0  0999 V2000
   10.7215   -3.3326   17.6437 C   0  0  0  0  0  0  0  0  0  0  0  0
    9.9489   -3.4675   24.6487 N   0  0  0  0  0  0  0  0  0  0  0  0
   10.0172   -4.4740   17.4101 C   0  0  0  0  0  0  0  0  0  0  0  0
    6.9051   -7.9575   16.4222 C   0  0  0  0  0  0  0  0  0  0  0  0
    8.9969   -6.3552   17.9668 N   0  0  0  0  0  0  0  0  0  0  0  0
   10.6702   -3.9051   22.4070 C   0  0  0  0  0  0  0  0  0  0  0  0
   11.0625   -3.0028   18.8894 C   0  0  0  0  0  0  0  0  0  0  0  0
    5.6180   -7.9194   16.1754 O   0  0  0  0  0  0  0  0  0  0  0  0
    9.7259   -5.3080   18.4485 C   0  0  0  0  0  0  0  0  0  0  0  0
    9.4578   -5.0200   16.3036 N   0  0  0  0  0  0  0  0  0  0  0  0
    5.0287   -8.9365   16.8223 C   0  0  0  0  0  0  0  0  0  0  0  0
    8.7742   -6.1498   16.6764 C   0  0  0  0  0  0  0  0  0  0  0  0
   10.9418   -3.4032   21.2053 O   0  0  0  0  0  0  0  0  0  0  0  0
    1.4797   -8.6258   16.2950 C   0  0  0  0  0  0  0  0  0  0  0  0
    9.2861   -1.2743   25.3585 C   0  0  0  0  0  0  0  0  0  0  0  0
    1.8892  -10.3985   17.7511 N   0  0  0  0  0  0  0  0  0  0  0  0
    9.6210   -0.6952   24.0976 C   0  0  0  0  0  0  0  0  0  0  0  0
    7.0792   -9.0217   17.1429 C   0  0  0  0  0  0  0  0  0  0  0  0
    3.1713  -10.1816   17.6634 C   0  0  0  0  0  0  0  0  0  0  0  0
    2.7878   -8.3822   16.2137 C   0  0  0  0  0  0  0  0  0  0  0  0
    9.4601   -2.6590   25.6528 C   0  0  0  0  0  0  0  0  0  0  0  0
   10.1182   -1.5672   23.1165 C   0  0  0  0  0  0  0  0  0  0  0  0
    1.0552   -9.6360   17.0650 C   0  0  0  0  0  0  0  0  0  0  0  0
    3.6519   -9.1783   16.9039 C   0  0  0  0  0  0  0  0  0  0  0  0
    7.8675   -7.0096   15.9415 C   0  0  0  0  0  0  0  0  0  0  0  0
    5.9733   -9.6553   17.3832 N   0  0  0  0  0  0  0  0  0  0  0  0
   10.2411   -2.9363   23.4301 C   0  0  0  0  0  0  0  0  0  0  0  0
   10.7288   -3.8197   19.9525 C   0  0  0  0  0  0  0  0  0  0  0  0
   10.1189   -5.0054   19.6987 C   0  0  0  0  0  0  0  0  0  0  0  0
  1  3  4  0
  1  7  4  0
  2 21  4  0
  2 27  4  0
  3  9  4  0
  3 10  4  0
  4  8  4  0
  4 18  4  0
  4 25  1  0
  5  9  4  0
  5 12  4  0
  6 13  1  0
  6 27  1  0
  7 28  4  0
  8 11  4  0
  9 29  4  0
 10 12  4  0
 11 24  1  0
 11 26  4  0
 12 25  1  0
 13 28  1  0
 14 20  4  0
 14 23  4  0
 15 17  4  0
 15 21  4  0
 16 19  4  0
 16 23  4  0
 17 22  4  0
 18 26  4  0
 19 24  4  0
 20 24  4  0
 22 27  4  0
 28 29  4  0
M  END
$$$$

 Created by Python create_sdf_string function

 29 33  0  0  0  0  0  0  0  0999 V2000
   10.7215   -3.3326   17.6437 C   0  0  0  0  0  0  0  0  0  0  0  0
    9.9489   -3.4675   24.6487 N   0  0  0  0  0  0  0  0  0  0  0  0
   10.0172   -4.4740   17.4101 C   0  0  0  0  0  0  0  0  0  0  0  0
    6.9051   -7.9575   16.4222 C   0  0  0  0  0  0  0  0  0  0  0  0
    8.9969   -6.3552   17.9668 N   0  0  0  0  0  0  0  0  0  0  0  0
   10.6702   -3.9051   22.4070 C   0  0  0  0  0  0  0  0  0  0  0  0
   11.0625   -3.0028   18.8894 C   0  0  0  0  0  0  0  0  0  0  0  0
    5.6180   -7.9194   16.1754 O   0  0  0  0  0  0  0  0  0  0  0  0
    9.7259   -5.3080   18.4485 C   0  0  0  0  0  0  0  0  0  0  0  0
    9.4578   -5.0200   16.3036 N   0  0  0  0  0  0  0  0  0  0  0  0
    5.0287   -8.9365   16.8223 C   0  0  0  0  0  0  0  0  0  0  0  0
    8.7742   -6.1498   16.6764 C   0  0  0  0  0  0  0  0  0  0  0  0
   10.9418   -3.4032   21.2053 O   0  0  0  0  0  0  0  0  0  0  0  0
    1.4797   -8.6258   16.2950 C   0  0  0  0  0  0  0  0  0  0  0  0
    9.2861   -1.2743   25.3585 C   0  0  0  0  0  0  0  0  0  0  0  0
    1.8892  -10.3985   17.7511 N   0  0  0  0  0  0  0  0  0  0  0  0
    9.6210   -0.6952   24.0976 C   0  0  0  0  0  0  0  0  0  0  0  0
    7.0792   -9.0217   17.1429 C   0  0  0  0  0  0  0  0  0  0  0  0
    3.1713  -10.1816   17.6634 C   0  0  0  0  0  0  0  0  0  0  0  0
    2.7878   -8.3822   16.2137 C   0  0  0  0  0  0  0  0  0  0  0  0
    9.4601   -2.6590   25.6528 C   0  0  0  0  0  0  0  0  0  0  0  0
   10.1182   -1.5672   23.1165 C   0  0  0  0  0  0  0  0  0  0  0  0
    1.0552   -9.6360   17.0650 C   0  0  0  0  0  0  0  0  0  0  0  0
    3.6519   -9.1783   16.9039 C   0  0  0  0  0  0  0  0  0  0  0  0
    7.8675   -7.0096   15.9415 C   0  0  0  0  0  0  0  0  0  0  0  0
    5.9733   -9.6553   17.3832 N   0  0  0  0  0  0  0  0  0  0  0  0
   10.2411   -2.9363   23.4301 C   0  0  0  0  0  0  0  0  0  0  0  0
   10.7288   -3.8197   19.9525 C   0  0  0  0  0  0  0  0  0  0  0  0
   10.1189   -5.0054   19.6987 C   0  0  0  0  0  0  0  0  0  0  0  0
  1  3  4  0
  1  7  4  0
  2 21  4  0
  2 27  4  0
  3  9  4  0
  3 10  4  0
  4  8  4  0
  4 18  4  0
  4 25  1  0
  5  9  4  0
  5 12  4  0
  6 13  1  0
  6 27  1  0
  7 28  4  0
  8 11  4  0
  9 29  4  0
 10 12  4  0
 11 24  1  0
 11 26  4  0
 12 25  1  0
 13 28  1  0
 14 20  4  0
 14 23  4  0
 15 17  4  0
 15 21  4  0
 16 19  4  0
 16 23  4  0
 17 22  4  0
 18 26  4  0
 19 24  4  0
 20 24  4  0
 22 27  4  0
 28 29  4  0
M  END
$$$$

 Created by Python create_sdf_string function

 29 33  0  0  0  0  0  0  0  0999 V2000
   10.7215   -3.3326   17.6437 C   0  0  0  0  0  0  0  0  0  0  0  0
    9.9489   -3.4675   24.6487 N   0  0  0  0  0  0  0  0  0  0  0  0
   10.0172   -4.4740   17.4101 C   0  0  0  0  0  0  0  0  0  0  0  0
    6.9051   -7.9575   16.4222 C   0  0  0  0  0  0  0  0  0  0  0  0
    8.9969   -6.3552   17.9668 N   0  0  0  0  0  0  0  0  0  0  0  0
   10.6702   -3.9051   22.4070 C   0  0  0  0  0  0  0  0  0  0  0  0
   11.0625   -3.0028   18.8894 C   0  0  0  0  0  0  0  0  0  0  0  0
    5.6180   -7.9194   16.1754 O   0  0  0  0  0  0  0  0  0  0  0  0
    9.7259   -5.3080   18.4485 C   0  0  0  0  0  0  0  0  0  0  0  0
    9.4578   -5.0200   16.3036 N   0  0  0  0  0  0  0  0  0  0  0  0
    5.0287   -8.9365   16.8223 C   0  0  0  0  0  0  0  0  0  0  0  0
    8.7742   -6.1498   16.6764 C   0  0  0  0  0  0  0  0  0  0  0  0
   10.9418   -3.4032   21.2053 O   0  0  0  0  0  0  0  0  0  0  0  0
    1.4797   -8.6258   16.2950 C   0  0  0  0  0  0  0  0  0  0  0  0
    9.2861   -1.2743   25.3585 C   0  0  0  0  0  0  0  0  0  0  0  0
    1.8892  -10.3985   17.7511 N   0  0  0  0  0  0  0  0  0  0  0  0
    9.6210   -0.6952   24.0976 C   0  0  0  0  0  0  0  0  0  0  0  0
    7.0792   -9.0217   17.1429 C   0  0  0  0  0  0  0  0  0  0  0  0
    3.1713  -10.1816   17.6634 C   0  0  0  0  0  0  0  0  0  0  0  0
    2.7878   -8.3822   16.2137 C   0  0  0  0  0  0  0  0  0  0  0  0
    9.4601   -2.6590   25.6528 C   0  0  0  0  0  0  0  0  0  0  0  0
   10.1182   -1.5672   23.1165 C   0  0  0  0  0  0  0  0  0  0  0  0
    1.0552   -9.6360   17.0650 C   0  0  0  0  0  0  0  0  0  0  0  0
    3.6519   -9.1783   16.9039 C   0  0  0  0  0  0  0  0  0  0  0  0
    7.8675   -7.0096   15.9415 C   0  0  0  0  0  0  0  0  0  0  0  0
    5.9733   -9.6553   17.3832 N   0  0  0  0  0  0  0  0  0  0  0  0
   10.2411   -2.9363   23.4301 C   0  0  0  0  0  0  0  0  0  0  0  0
   10.7288   -3.8197   19.9525 C   0  0  0  0  0  0  0  0  0  0  0  0
   10.1189   -5.0054   19.6987 C   0  0  0  0  0  0  0  0  0  0  0  0
  1  3  4  0
  1  7  4  0
  2 21  4  0
  2 27  4  0
  3  9  4  0
  3 10  4  0
  4  8  4  0
  4 18  4  0
  4 25  1  0
  5  9  4  0
  5 12  4  0
  6 13  1  0
  6 27  1  0
  7 28  4  0
  8 11  4  0
  9 29  4  0
 10 12  4  0
 11 24  1  0
 11 26  4  0
 12 25  1  0
 13 28  1  0
 14 20  4  0
 14 23  4  0
 15 17  4  0
 15 21  4  0
 16 19  4  0
 16 23  4  0
 17 22  4  0
 18 26  4  0
 19 24  4  0
 20 24  4  0
 22 27  4  0
 28 29  4  0
M  END
$$$$

 Created by Python create_sdf_string function

 29 33  0  0  0  0  0  0  0  0999 V2000
   10.7215   -3.3326   17.6437 C   0  0  0  0  0  0  0  0  0  0  0  0
    9.9489   -3.4675   24.6487 N   0  0  0  0  0  0  0  0  0  0  0  0
   10.0172   -4.4740   17.4101 C   0  0  0  0  0  0  0  0  0  0  0  0
    6.9051   -7.9575   16.4222 C   0  0  0  0  0  0  0  0  0  0  0  0
    8.9969   -6.3552   17.9668 N   0  0  0  0  0  0  0  0  0  0  0  0
   10.6702   -3.9051   22.4070 C   0  0  0  0  0  0  0  0  0  0  0  0
   11.0625   -3.0028   18.8894 C   0  0  0  0  0  0  0  0  0  0  0  0
    5.6180   -7.9194   16.1754 O   0  0  0  0  0  0  0  0  0  0  0  0
    9.7259   -5.3080   18.4485 C   0  0  0  0  0  0  0  0  0  0  0  0
    9.4578   -5.0200   16.3036 N   0  0  0  0  0  0  0  0  0  0  0  0
    5.0287   -8.9365   16.8223 C   0  0  0  0  0  0  0  0  0  0  0  0
    8.7742   -6.1498   16.6764 C   0  0  0  0  0  0  0  0  0  0  0  0
   10.9418   -3.4032   21.2053 O   0  0  0  0  0  0  0  0  0  0  0  0
    1.4797   -8.6258   16.2950 C   0  0  0  0  0  0  0  0  0  0  0  0
    9.2861   -1.2743   25.3585 C   0  0  0  0  0  0  0  0  0  0  0  0
    1.8892  -10.3985   17.7511 N   0  0  0  0  0  0  0  0  0  0  0  0
    9.6210   -0.6952   24.0976 C   0  0  0  0  0  0  0  0  0  0  0  0
    7.0792   -9.0217   17.1429 C   0  0  0  0  0  0  0  0  0  0  0  0
    3.1713  -10.1816   17.6634 C   0  0  0  0  0  0  0  0  0  0  0  0
    2.7878   -8.3822   16.2137 C   0  0  0  0  0  0  0  0  0  0  0  0
    9.4601   -2.6590   25.6528 C   0  0  0  0  0  0  0  0  0  0  0  0
   10.1182   -1.5672   23.1165 C   0  0  0  0  0  0  0  0  0  0  0  0
    1.0552   -9.6360   17.0650 C   0  0  0  0  0  0  0  0  0  0  0  0
    3.6519   -9.1783   16.9039 C   0  0  0  0  0  0  0  0  0  0  0  0
    7.8675   -7.0096   15.9415 C   0  0  0  0  0  0  0  0  0  0  0  0
    5.9733   -9.6553   17.3832 N   0  0  0  0  0  0  0  0  0  0  0  0
   10.2411   -2.9363   23.4301 C   0  0  0  0  0  0  0  0  0  0  0  0
   10.7288   -3.8197   19.9525 C   0  0  0  0  0  0  0  0  0  0  0  0
   10.1189   -5.0054   19.6987 C   0  0  0  0  0  0  0  0  0  0  0  0
  1  3  4  0
  1  7  4  0
  2 21  4  0
  2 27  4  0
  3  9  4  0
  3 10  4  0
  4  8  4  0
  4 18  4  0
  4 25  1  0
  5  9  4  0
  5 12  4  0
  6 13  1  0
  6 27  1  0
  7 28  4  0
  8 11  4  0
  9 29  4  0
 10 12  4  0
 11 24  1  0
 11 26  4  0
 12 25  1  0
 13 28  1  0
 14 20  4  0
 14 23  4  0
 15 17  4  0
 15 21  4  0
 16 19  4  0
 16 23  4  0
 17 22  4  0
 18 26  4  0
 19 24  4  0
 20 24  4  0
 22 27  4  0
 28 29  4  0
M  END
$$$$

 Created by Python create_sdf_string function

 29 33  0  0  0  0  0  0  0  0999 V2000
   10.7215   -3.3326   17.6437 C   0  0  0  0  0  0  0  0  0  0  0  0
    9.9489   -3.4675   24.6487 N   0  0  0  0  0  0  0  0  0  0  0  0
   10.0172   -4.4740   17.4101 C   0  0  0  0  0  0  0  0  0  0  0  0
    6.9051   -7.9575   16.4222 C   0  0  0  0  0  0  0  0  0  0  0  0
    8.9969   -6.3552   17.9668 N   0  0  0  0  0  0  0  0  0  0  0  0
   10.6702   -3.9051   22.4070 C   0  0  0  0  0  0  0  0  0  0  0  0
   11.0625   -3.0028   18.8894 C   0  0  0  0  0  0  0  0  0  0  0  0
    5.6180   -7.9194   16.1754 O   0  0  0  0  0  0  0  0  0  0  0  0
    9.7259   -5.3080   18.4485 C   0  0  0  0  0  0  0  0  0  0  0  0
    9.4578   -5.0200   16.3036 N   0  0  0  0  0  0  0  0  0  0  0  0
    5.0287   -8.9365   16.8223 C   0  0  0  0  0  0  0  0  0  0  0  0
    8.7742   -6.1498   16.6764 C   0  0  0  0  0  0  0  0  0  0  0  0
   10.9418   -3.4032   21.2053 O   0  0  0  0  0  0  0  0  0  0  0  0
    1.4797   -8.6258   16.2950 C   0  0  0  0  0  0  0  0  0  0  0  0
    9.2861   -1.2743   25.3585 C   0  0  0  0  0  0  0  0  0  0  0  0
    1.8892  -10.3985   17.7511 N   0  0  0  0  0  0  0  0  0  0  0  0
    9.6210   -0.6952   24.0976 C   0  0  0  0  0  0  0  0  0  0  0  0
    7.0792   -9.0217   17.1429 C   0  0  0  0  0  0  0  0  0  0  0  0
    3.1713  -10.1816   17.6634 C   0  0  0  0  0  0  0  0  0  0  0  0
    2.7878   -8.3822   16.2137 C   0  0  0  0  0  0  0  0  0  0  0  0
    9.4601   -2.6590   25.6528 C   0  0  0  0  0  0  0  0  0  0  0  0
   10.1182   -1.5672   23.1165 C   0  0  0  0  0  0  0  0  0  0  0  0
    1.0552   -9.6360   17.0650 C   0  0  0  0  0  0  0  0  0  0  0  0
    3.6519   -9.1783   16.9039 C   0  0  0  0  0  0  0  0  0  0  0  0
    7.8675   -7.0096   15.9415 C   0  0  0  0  0  0  0  0  0  0  0  0
    5.9733   -9.6553   17.3832 N   0  0  0  0  0  0  0  0  0  0  0  0
   10.2411   -2.9363   23.4301 C   0  0  0  0  0  0  0  0  0  0  0  0
   10.7288   -3.8197   19.9525 C   0  0  0  0  0  0  0  0  0  0  0  0
   10.1189   -5.0054   19.6987 C   0  0  0  0  0  0  0  0  0  0  0  0
  1  3  4  0
  1  7  4  0
  2 21  4  0
  2 27  4  0
  3  9  4  0
  3 10  4  0
  4  8  4  0
  4 18  4  0
  4 25  1  0
  5  9  4  0
  5 12  4  0
  6 13  1  0
  6 27  1  0
  7 28  4  0
  8 11  4  0
  9 29  4  0
 10 12  4  0
 11 24  1  0
 11 26  4  0
 12 25  1  0
 13 28  1  0
 14 20  4  0
 14 23  4  0
 15 17  4  0
 15 21  4  0
 16 19  4  0
 16 23  4  0
 17 22  4  0
 18 26  4  0
 19 24  4  0
 20 24  4  0
 22 27  4  0
 28 29  4  0
M  END
$$$$

 Created by Python create_sdf_string function

 29 33  0  0  0  0  0  0  0  0999 V2000
   10.7215   -3.3326   17.6437 C   0  0  0  0  0  0  0  0  0  0  0  0
    9.9489   -3.4675   24.6487 N   0  0  0  0  0  0  0  0  0  0  0  0
   10.0172   -4.4740   17.4101 C   0  0  0  0  0  0  0  0  0  0  0  0
    6.9051   -7.9575   16.4222 C   0  0  0  0  0  0  0  0  0  0  0  0
    8.9969   -6.3552   17.9668 N   0  0  0  0  0  0  0  0  0  0  0  0
   10.6702   -3.9051   22.4070 C   0  0  0  0  0  0  0  0  0  0  0  0
   11.0625   -3.0028   18.8894 C   0  0  0  0  0  0  0  0  0  0  0  0
    5.6180   -7.9194   16.1754 O   0  0  0  0  0  0  0  0  0  0  0  0
    9.7259   -5.3080   18.4485 C   0  0  0  0  0  0  0  0  0  0  0  0
    9.4578   -5.0200   16.3036 N   0  0  0  0  0  0  0  0  0  0  0  0
    5.0287   -8.9365   16.8223 C   0  0  0  0  0  0  0  0  0  0  0  0
    8.7742   -6.1498   16.6764 C   0  0  0  0  0  0  0  0  0  0  0  0
   10.9418   -3.4032   21.2053 O   0  0  0  0  0  0  0  0  0  0  0  0
    1.4797   -8.6258   16.2950 C   0  0  0  0  0  0  0  0  0  0  0  0
    9.2861   -1.2743   25.3585 C   0  0  0  0  0  0  0  0  0  0  0  0
    1.8892  -10.3985   17.7511 N   0  0  0  0  0  0  0  0  0  0  0  0
    9.6210   -0.6952   24.0976 C   0  0  0  0  0  0  0  0  0  0  0  0
    7.0792   -9.0217   17.1429 C   0  0  0  0  0  0  0  0  0  0  0  0
    3.1713  -10.1816   17.6634 C   0  0  0  0  0  0  0  0  0  0  0  0
    2.7878   -8.3822   16.2137 C   0  0  0  0  0  0  0  0  0  0  0  0
    9.4601   -2.6590   25.6528 C   0  0  0  0  0  0  0  0  0  0  0  0
   10.1182   -1.5672   23.1165 C   0  0  0  0  0  0  0  0  0  0  0  0
    1.0552   -9.6360   17.0650 C   0  0  0  0  0  0  0  0  0  0  0  0
    3.6519   -9.1783   16.9039 C   0  0  0  0  0  0  0  0  0  0  0  0
    7.8675   -7.0096   15.9415 C   0  0  0  0  0  0  0  0  0  0  0  0
    5.9733   -9.6553   17.3832 N   0  0  0  0  0  0  0  0  0  0  0  0
   10.2411   -2.9363   23.4301 C   0  0  0  0  0  0  0  0  0  0  0  0
   10.7288   -3.8197   19.9525 C   0  0  0  0  0  0  0  0  0  0  0  0
   10.1189   -5.0054   19.6987 C   0  0  0  0  0  0  0  0  0  0  0  0
  1  3  4  0
  1  7  4  0
  2 21  4  0
  2 27  4  0
  3  9  4  0
  3 10  4  0
  4  8  4  0
  4 18  4  0
  4 25  1  0
  5  9  4  0
  5 12  4  0
  6 13  1  0
  6 27  1  0
  7 28  4  0
  8 11  4  0
  9 29  4  0
 10 12  4  0
 11 24  1  0
 11 26  4  0
 12 25  1  0
 13 28  1  0
 14 20  4  0
 14 23  4  0
 15 17  4  0
 15 21  4  0
 16 19  4  0
 16 23  4  0
 17 22  4  0
 18 26  4  0
 19 24  4  0
 20 24  4  0
 22 27  4  0
 28 29  4  0
M  END
$$$$

 Created by Python create_sdf_string function

 29 33  0  0  0  0  0  0  0  0999 V2000
   10.7215   -3.3326   17.6437 C   0  0  0  0  0  0  0  0  0  0  0  0
    9.9489   -3.4675   24.6487 N   0  0  0  0  0  0  0  0  0  0  0  0
   10.0172   -4.4740   17.4101 C   0  0  0  0  0  0  0  0  0  0  0  0
    6.9051   -7.9575   16.4222 C   0  0  0  0  0  0  0  0  0  0  0  0
    8.9969   -6.3552   17.9668 N   0  0  0  0  0  0  0  0  0  0  0  0
   10.6702   -3.9051   22.4070 C   0  0  0  0  0  0  0  0  0  0  0  0
   11.0625   -3.0028   18.8894 C   0  0  0  0  0  0  0  0  0  0  0  0
    5.6180   -7.9194   16.1754 O   0  0  0  0  0  0  0  0  0  0  0  0
    9.7259   -5.3080   18.4485 C   0  0  0  0  0  0  0  0  0  0  0  0
    9.4578   -5.0200   16.3036 N   0  0  0  0  0  0  0  0  0  0  0  0
    5.0287   -8.9365   16.8223 C   0  0  0  0  0  0  0  0  0  0  0  0
    8.7742   -6.1498   16.6764 C   0  0  0  0  0  0  0  0  0  0  0  0
   10.9418   -3.4032   21.2053 O   0  0  0  0  0  0  0  0  0  0  0  0
    1.4797   -8.6258   16.2950 C   0  0  0  0  0  0  0  0  0  0  0  0
    9.2861   -1.2743   25.3585 C   0  0  0  0  0  0  0  0  0  0  0  0
    1.8892  -10.3985   17.7511 N   0  0  0  0  0  0  0  0  0  0  0  0
    9.6210   -0.6952   24.0976 C   0  0  0  0  0  0  0  0  0  0  0  0
    7.0792   -9.0217   17.1429 C   0  0  0  0  0  0  0  0  0  0  0  0
    3.1713  -10.1816   17.6634 C   0  0  0  0  0  0  0  0  0  0  0  0
    2.7878   -8.3822   16.2137 C   0  0  0  0  0  0  0  0  0  0  0  0
    9.4601   -2.6590   25.6528 C   0  0  0  0  0  0  0  0  0  0  0  0
   10.1182   -1.5672   23.1165 C   0  0  0  0  0  0  0  0  0  0  0  0
    1.0552   -9.6360   17.0650 C   0  0  0  0  0  0  0  0  0  0  0  0
    3.6519   -9.1783   16.9039 C   0  0  0  0  0  0  0  0  0  0  0  0
    7.8675   -7.0096   15.9415 C   0  0  0  0  0  0  0  0  0  0  0  0
    5.9733   -9.6553   17.3832 N   0  0  0  0  0  0  0  0  0  0  0  0
   10.2411   -2.9363   23.4301 C   0  0  0  0  0  0  0  0  0  0  0  0
   10.7288   -3.8197   19.9525 C   0  0  0  0  0  0  0  0  0  0  0  0
   10.1189   -5.0054   19.6987 C   0  0  0  0  0  0  0  0  0  0  0  0
  1  3  4  0
  1  7  4  0
  2 21  4  0
  2 27  4  0
  3  9  4  0
  3 10  4  0
  4  8  4  0
  4 18  4  0
  4 25  1  0
  5  9  4  0
  5 12  4  0
  6 13  1  0
  6 27  1  0
  7 28  4  0
  8 11  4  0
  9 29  4  0
 10 12  4  0
 11 24  1  0
 11 26  4  0
 12 25  1  0
 13 28  1  0
 14 20  4  0
 14 23  4  0
 15 17  4  0
 15 21  4  0
 16 19  4  0
 16 23  4  0
 17 22  4  0
 18 26  4  0
 19 24  4  0
 20 24  4  0
 22 27  4  0
 28 29  4  0
M  END
$$$$

 Created by Python create_sdf_string function

 29 33  0  0  0  0  0  0  0  0999 V2000
   10.7215   -3.3326   17.6437 C   0  0  0  0  0  0  0  0  0  0  0  0
    9.9489   -3.4675   24.6487 N   0  0  0  0  0  0  0  0  0  0  0  0
   10.0172   -4.4740   17.4101 C   0  0  0  0  0  0  0  0  0  0  0  0
    6.9051   -7.9575   16.4222 C   0  0  0  0  0  0  0  0  0  0  0  0
    8.9969   -6.3552   17.9668 N   0  0  0  0  0  0  0  0  0  0  0  0
   10.6702   -3.9051   22.4070 C   0  0  0  0  0  0  0  0  0  0  0  0
   11.0625   -3.0028   18.8894 C   0  0  0  0  0  0  0  0  0  0  0  0
    5.6180   -7.9194   16.1754 O   0  0  0  0  0  0  0  0  0  0  0  0
    9.7259   -5.3080   18.4485 C   0  0  0  0  0  0  0  0  0  0  0  0
    9.4578   -5.0200   16.3036 N   0  0  0  0  0  0  0  0  0  0  0  0
    5.0287   -8.9365   16.8223 C   0  0  0  0  0  0  0  0  0  0  0  0
    8.7742   -6.1498   16.6764 C   0  0  0  0  0  0  0  0  0  0  0  0
   10.9418   -3.4032   21.2053 O   0  0  0  0  0  0  0  0  0  0  0  0
    1.4797   -8.6258   16.2950 C   0  0  0  0  0  0  0  0  0  0  0  0
    9.2861   -1.2743   25.3585 C   0  0  0  0  0  0  0  0  0  0  0  0
    1.8892  -10.3985   17.7511 N   0  0  0  0  0  0  0  0  0  0  0  0
    9.6210   -0.6952   24.0976 C   0  0  0  0  0  0  0  0  0  0  0  0
    7.0792   -9.0217   17.1429 C   0  0  0  0  0  0  0  0  0  0  0  0
    3.1713  -10.1816   17.6634 C   0  0  0  0  0  0  0  0  0  0  0  0
    2.7878   -8.3822   16.2137 C   0  0  0  0  0  0  0  0  0  0  0  0
    9.4601   -2.6590   25.6528 C   0  0  0  0  0  0  0  0  0  0  0  0
   10.1182   -1.5672   23.1165 C   0  0  0  0  0  0  0  0  0  0  0  0
    1.0552   -9.6360   17.0650 C   0  0  0  0  0  0  0  0  0  0  0  0
    3.6519   -9.1783   16.9039 C   0  0  0  0  0  0  0  0  0  0  0  0
    7.8675   -7.0096   15.9415 C   0  0  0  0  0  0  0  0  0  0  0  0
    5.9733   -9.6553   17.3832 N   0  0  0  0  0  0  0  0  0  0  0  0
   10.2411   -2.9363   23.4301 C   0  0  0  0  0  0  0  0  0  0  0  0
   10.7288   -3.8197   19.9525 C   0  0  0  0  0  0  0  0  0  0  0  0
   10.1189   -5.0054   19.6987 C   0  0  0  0  0  0  0  0  0  0  0  0
  1  3  4  0
  1  7  4  0
  2 21  4  0
  2 27  4  0
  3  9  4  0
  3 10  4  0
  4  8  4  0
  4 18  4  0
  4 25  1  0
  5  9  4  0
  5 12  4  0
  6 13  1  0
  6 27  1  0
  7 28  4  0
  8 11  4  0
  9 29  4  0
 10 12  4  0
 11 24  1  0
 11 26  4  0
 12 25  1  0
 13 28  1  0
 14 20  4  0
 14 23  4  0
 15 17  4  0
 15 21  4  0
 16 19  4  0
 16 23  4  0
 17 22  4  0
 18 26  4  0
 19 24  4  0
 20 24  4  0
 22 27  4  0
 28 29  4  0
M  END
$$$$

 Created by Python create_sdf_string function

 29 33  0  0  0  0  0  0  0  0999 V2000
   10.7215   -3.3326   17.6437 C   0  0  0  0  0  0  0  0  0  0  0  0
    9.9489   -3.4675   24.6487 N   0  0  0  0  0  0  0  0  0  0  0  0
   10.0172   -4.4740   17.4101 C   0  0  0  0  0  0  0  0  0  0  0  0
    6.9051   -7.9575   16.4222 C   0  0  0  0  0  0  0  0  0  0  0  0
    8.9969   -6.3552   17.9668 N   0  0  0  0  0  0  0  0  0  0  0  0
   10.6702   -3.9051   22.4070 C   0  0  0  0  0  0  0  0  0  0  0  0
   11.0625   -3.0028   18.8894 C   0  0  0  0  0  0  0  0  0  0  0  0
    5.6180   -7.9194   16.1754 O   0  0  0  0  0  0  0  0  0  0  0  0
    9.7259   -5.3080   18.4485 C   0  0  0  0  0  0  0  0  0  0  0  0
    9.4578   -5.0200   16.3036 N   0  0  0  0  0  0  0  0  0  0  0  0
    5.0287   -8.9365   16.8223 C   0  0  0  0  0  0  0  0  0  0  0  0
    8.7742   -6.1498   16.6764 C   0  0  0  0  0  0  0  0  0  0  0  0
   10.9418   -3.4032   21.2053 O   0  0  0  0  0  0  0  0  0  0  0  0
    1.4797   -8.6258   16.2950 C   0  0  0  0  0  0  0  0  0  0  0  0
    9.2861   -1.2743   25.3585 C   0  0  0  0  0  0  0  0  0  0  0  0
    1.8892  -10.3985   17.7511 N   0  0  0  0  0  0  0  0  0  0  0  0
    9.6210   -0.6952   24.0976 C   0  0  0  0  0  0  0  0  0  0  0  0
    7.0792   -9.0217   17.1429 C   0  0  0  0  0  0  0  0  0  0  0  0
    3.1713  -10.1816   17.6634 C   0  0  0  0  0  0  0  0  0  0  0  0
    2.7878   -8.3822   16.2137 C   0  0  0  0  0  0  0  0  0  0  0  0
    9.4601   -2.6590   25.6528 C   0  0  0  0  0  0  0  0  0  0  0  0
   10.1182   -1.5672   23.1165 C   0  0  0  0  0  0  0  0  0  0  0  0
    1.0552   -9.6360   17.0650 C   0  0  0  0  0  0  0  0  0  0  0  0
    3.6519   -9.1783   16.9039 C   0  0  0  0  0  0  0  0  0  0  0  0
    7.8675   -7.0096   15.9415 C   0  0  0  0  0  0  0  0  0  0  0  0
    5.9733   -9.6553   17.3832 N   0  0  0  0  0  0  0  0  0  0  0  0
   10.2411   -2.9363   23.4301 C   0  0  0  0  0  0  0  0  0  0  0  0
   10.7288   -3.8197   19.9525 C   0  0  0  0  0  0  0  0  0  0  0  0
   10.1189   -5.0054   19.6987 C   0  0  0  0  0  0  0  0  0  0  0  0
  1  3  4  0
  1  7  4  0
  2 21  4  0
  2 27  4  0
  3  9  4  0
  3 10  4  0
  4  8  4  0
  4 18  4  0
  4 25  1  0
  5  9  4  0
  5 12  4  0
  6 13  1  0
  6 27  1  0
  7 28  4  0
  8 11  4  0
  9 29  4  0
 10 12  4  0
 11 24  1  0
 11 26  4  0
 12 25  1  0
 13 28  1  0
 14 20  4  0
 14 23  4  0
 15 17  4  0
 15 21  4  0
 16 19  4  0
 16 23  4  0
 17 22  4  0
 18 26  4  0
 19 24  4  0
 20 24  4  0
 22 27  4  0
 28 29  4  0
M  END
$$$$

 Created by Python create_sdf_string function

 29 33  0  0  0  0  0  0  0  0999 V2000
   10.7215   -3.3326   17.6437 C   0  0  0  0  0  0  0  0  0  0  0  0
    9.9489   -3.4675   24.6487 N   0  0  0  0  0  0  0  0  0  0  0  0
   10.0172   -4.4740   17.4101 C   0  0  0  0  0  0  0  0  0  0  0  0
    6.9051   -7.9575   16.4222 C   0  0  0  0  0  0  0  0  0  0  0  0
    8.9969   -6.3552   17.9668 N   0  0  0  0  0  0  0  0  0  0  0  0
   10.6702   -3.9051   22.4070 C   0  0  0  0  0  0  0  0  0  0  0  0
   11.0625   -3.0028   18.8894 C   0  0  0  0  0  0  0  0  0  0  0  0
    5.6180   -7.9194   16.1754 O   0  0  0  0  0  0  0  0  0  0  0  0
    9.7259   -5.3080   18.4485 C   0  0  0  0  0  0  0  0  0  0  0  0
    9.4578   -5.0200   16.3036 N   0  0  0  0  0  0  0  0  0  0  0  0
    5.0287   -8.9365   16.8223 C   0  0  0  0  0  0  0  0  0  0  0  0
    8.7742   -6.1498   16.6764 C   0  0  0  0  0  0  0  0  0  0  0  0
   10.9418   -3.4032   21.2053 O   0  0  0  0  0  0  0  0  0  0  0  0
    1.4797   -8.6258   16.2950 C   0  0  0  0  0  0  0  0  0  0  0  0
    9.2861   -1.2743   25.3585 C   0  0  0  0  0  0  0  0  0  0  0  0
    1.8892  -10.3985   17.7511 N   0  0  0  0  0  0  0  0  0  0  0  0
    9.6210   -0.6952   24.0976 C   0  0  0  0  0  0  0  0  0  0  0  0
    7.0792   -9.0217   17.1429 C   0  0  0  0  0  0  0  0  0  0  0  0
    3.1713  -10.1816   17.6634 C   0  0  0  0  0  0  0  0  0  0  0  0
    2.7878   -8.3822   16.2137 C   0  0  0  0  0  0  0  0  0  0  0  0
    9.4601   -2.6590   25.6528 C   0  0  0  0  0  0  0  0  0  0  0  0
   10.1182   -1.5672   23.1165 C   0  0  0  0  0  0  0  0  0  0  0  0
    1.0552   -9.6360   17.0650 C   0  0  0  0  0  0  0  0  0  0  0  0
    3.6519   -9.1783   16.9039 C   0  0  0  0  0  0  0  0  0  0  0  0
    7.8675   -7.0096   15.9415 C   0  0  0  0  0  0  0  0  0  0  0  0
    5.9733   -9.6553   17.3832 N   0  0  0  0  0  0  0  0  0  0  0  0
   10.2411   -2.9363   23.4301 C   0  0  0  0  0  0  0  0  0  0  0  0
   10.7288   -3.8197   19.9525 C   0  0  0  0  0  0  0  0  0  0  0  0
   10.1189   -5.0054   19.6987 C   0  0  0  0  0  0  0  0  0  0  0  0
  1  3  4  0
  1  7  4  0
  2 21  4  0
  2 27  4  0
  3  9  4  0
  3 10  4  0
  4  8  4  0
  4 18  4  0
  4 25  1  0
  5  9  4  0
  5 12  4  0
  6 13  1  0
  6 27  1  0
  7 28  4  0
  8 11  4  0
  9 29  4  0
 10 12  4  0
 11 24  1  0
 11 26  4  0
 12 25  1  0
 13 28  1  0
 14 20  4  0
 14 23  4  0
 15 17  4  0
 15 21  4  0
 16 19  4  0
 16 23  4  0
 17 22  4  0
 18 26  4  0
 19 24  4  0
 20 24  4  0
 22 27  4  0
 28 29  4  0
M  END
$$$$

 Created by Python create_sdf_string function

 29 33  0  0  0  0  0  0  0  0999 V2000
   10.7215   -3.3326   17.6437 C   0  0  0  0  0  0  0  0  0  0  0  0
    9.9489   -3.4675   24.6487 N   0  0  0  0  0  0  0  0  0  0  0  0
   10.0172   -4.4740   17.4101 C   0  0  0  0  0  0  0  0  0  0  0  0
    6.9051   -7.9575   16.4222 C   0  0  0  0  0  0  0  0  0  0  0  0
    8.9969   -6.3552   17.9668 N   0  0  0  0  0  0  0  0  0  0  0  0
   10.6702   -3.9051   22.4070 C   0  0  0  0  0  0  0  0  0  0  0  0
   11.0625   -3.0028   18.8894 C   0  0  0  0  0  0  0  0  0  0  0  0
    5.6180   -7.9194   16.1754 O   0  0  0  0  0  0  0  0  0  0  0  0
    9.7259   -5.3080   18.4485 C   0  0  0  0  0  0  0  0  0  0  0  0
    9.4578   -5.0200   16.3036 N   0  0  0  0  0  0  0  0  0  0  0  0
    5.0287   -8.9365   16.8223 C   0  0  0  0  0  0  0  0  0  0  0  0
    8.7742   -6.1498   16.6764 C   0  0  0  0  0  0  0  0  0  0  0  0
   10.9418   -3.4032   21.2053 O   0  0  0  0  0  0  0  0  0  0  0  0
    1.4797   -8.6258   16.2950 C   0  0  0  0  0  0  0  0  0  0  0  0
    9.2861   -1.2743   25.3585 C   0  0  0  0  0  0  0  0  0  0  0  0
    1.8892  -10.3985   17.7511 N   0  0  0  0  0  0  0  0  0  0  0  0
    9.6210   -0.6952   24.0976 C   0  0  0  0  0  0  0  0  0  0  0  0
    7.0792   -9.0217   17.1429 C   0  0  0  0  0  0  0  0  0  0  0  0
    3.1713  -10.1816   17.6634 C   0  0  0  0  0  0  0  0  0  0  0  0
    2.7878   -8.3822   16.2137 C   0  0  0  0  0  0  0  0  0  0  0  0
    9.4601   -2.6590   25.6528 C   0  0  0  0  0  0  0  0  0  0  0  0
   10.1182   -1.5672   23.1165 C   0  0  0  0  0  0  0  0  0  0  0  0
    1.0552   -9.6360   17.0650 C   0  0  0  0  0  0  0  0  0  0  0  0
    3.6519   -9.1783   16.9039 C   0  0  0  0  0  0  0  0  0  0  0  0
    7.8675   -7.0096   15.9415 C   0  0  0  0  0  0  0  0  0  0  0  0
    5.9733   -9.6553   17.3832 N   0  0  0  0  0  0  0  0  0  0  0  0
   10.2411   -2.9363   23.4301 C   0  0  0  0  0  0  0  0  0  0  0  0
   10.7288   -3.8197   19.9525 C   0  0  0  0  0  0  0  0  0  0  0  0
   10.1189   -5.0054   19.6987 C   0  0  0  0  0  0  0  0  0  0  0  0
  1  3  4  0
  1  7  4  0
  2 21  4  0
  2 27  4  0
  3  9  4  0
  3 10  4  0
  4  8  4  0
  4 18  4  0
  4 25  1  0
  5  9  4  0
  5 12  4  0
  6 13  1  0
  6 27  1  0
  7 28  4  0
  8 11  4  0
  9 29  4  0
 10 12  4  0
 11 24  1  0
 11 26  4  0
 12 25  1  0
 13 28  1  0
 14 20  4  0
 14 23  4  0
 15 17  4  0
 15 21  4  0
 16 19  4  0
 16 23  4  0
 17 22  4  0
 18 26  4  0
 19 24  4  0
 20 24  4  0
 22 27  4  0
 28 29  4  0
M  END
$$$$

 Created by Python create_sdf_string function

 29 33  0  0  0  0  0  0  0  0999 V2000
   10.7215   -3.3326   17.6437 C   0  0  0  0  0  0  0  0  0  0  0  0
    9.9489   -3.4675   24.6487 N   0  0  0  0  0  0  0  0  0  0  0  0
   10.0172   -4.4740   17.4101 C   0  0  0  0  0  0  0  0  0  0  0  0
    6.9051   -7.9575   16.4222 C   0  0  0  0  0  0  0  0  0  0  0  0
    8.9969   -6.3552   17.9668 N   0  0  0  0  0  0  0  0  0  0  0  0
   10.6702   -3.9051   22.4070 C   0  0  0  0  0  0  0  0  0  0  0  0
   11.0625   -3.0028   18.8894 C   0  0  0  0  0  0  0  0  0  0  0  0
    5.6180   -7.9194   16.1754 O   0  0  0  0  0  0  0  0  0  0  0  0
    9.7259   -5.3080   18.4485 C   0  0  0  0  0  0  0  0  0  0  0  0
    9.4578   -5.0200   16.3036 N   0  0  0  0  0  0  0  0  0  0  0  0
    5.0287   -8.9365   16.8223 C   0  0  0  0  0  0  0  0  0  0  0  0
    8.7742   -6.1498   16.6764 C   0  0  0  0  0  0  0  0  0  0  0  0
   10.9418   -3.4032   21.2053 O   0  0  0  0  0  0  0  0  0  0  0  0
    1.4797   -8.6258   16.2950 C   0  0  0  0  0  0  0  0  0  0  0  0
    9.2861   -1.2743   25.3585 C   0  0  0  0  0  0  0  0  0  0  0  0
    1.8892  -10.3985   17.7511 N   0  0  0  0  0  0  0  0  0  0  0  0
    9.6210   -0.6952   24.0976 C   0  0  0  0  0  0  0  0  0  0  0  0
    7.0792   -9.0217   17.1429 C   0  0  0  0  0  0  0  0  0  0  0  0
    3.1713  -10.1816   17.6634 C   0  0  0  0  0  0  0  0  0  0  0  0
    2.7878   -8.3822   16.2137 C   0  0  0  0  0  0  0  0  0  0  0  0
    9.4601   -2.6590   25.6528 C   0  0  0  0  0  0  0  0  0  0  0  0
   10.1182   -1.5672   23.1165 C   0  0  0  0  0  0  0  0  0  0  0  0
    1.0552   -9.6360   17.0650 C   0  0  0  0  0  0  0  0  0  0  0  0
    3.6519   -9.1783   16.9039 C   0  0  0  0  0  0  0  0  0  0  0  0
    7.8675   -7.0096   15.9415 C   0  0  0  0  0  0  0  0  0  0  0  0
    5.9733   -9.6553   17.3832 N   0  0  0  0  0  0  0  0  0  0  0  0
   10.2411   -2.9363   23.4301 C   0  0  0  0  0  0  0  0  0  0  0  0
   10.7288   -3.8197   19.9525 C   0  0  0  0  0  0  0  0  0  0  0  0
   10.1189   -5.0054   19.6987 C   0  0  0  0  0  0  0  0  0  0  0  0
  1  3  4  0
  1  7  4  0
  2 21  4  0
  2 27  4  0
  3  9  4  0
  3 10  4  0
  4  8  4  0
  4 18  4  0
  4 25  1  0
  5  9  4  0
  5 12  4  0
  6 13  1  0
  6 27  1  0
  7 28  4  0
  8 11  4  0
  9 29  4  0
 10 12  4  0
 11 24  1  0
 11 26  4  0
 12 25  1  0
 13 28  1  0
 14 20  4  0
 14 23  4  0
 15 17  4  0
 15 21  4  0
 16 19  4  0
 16 23  4  0
 17 22  4  0
 18 26  4  0
 19 24  4  0
 20 24  4  0
 22 27  4  0
 28 29  4  0
M  END
$$$$

 Created by Python create_sdf_string function

 29 33  0  0  0  0  0  0  0  0999 V2000
   10.7215   -3.3326   17.6437 C   0  0  0  0  0  0  0  0  0  0  0  0
    9.9489   -3.4675   24.6487 N   0  0  0  0  0  0  0  0  0  0  0  0
   10.0172   -4.4740   17.4101 C   0  0  0  0  0  0  0  0  0  0  0  0
    6.9051   -7.9575   16.4222 C   0  0  0  0  0  0  0  0  0  0  0  0
    8.9969   -6.3552   17.9668 N   0  0  0  0  0  0  0  0  0  0  0  0
   10.6702   -3.9051   22.4070 C   0  0  0  0  0  0  0  0  0  0  0  0
   11.0625   -3.0028   18.8894 C   0  0  0  0  0  0  0  0  0  0  0  0
    5.6180   -7.9194   16.1754 O   0  0  0  0  0  0  0  0  0  0  0  0
    9.7259   -5.3080   18.4485 C   0  0  0  0  0  0  0  0  0  0  0  0
    9.4578   -5.0200   16.3036 N   0  0  0  0  0  0  0  0  0  0  0  0
    5.0287   -8.9365   16.8223 C   0  0  0  0  0  0  0  0  0  0  0  0
    8.7742   -6.1498   16.6764 C   0  0  0  0  0  0  0  0  0  0  0  0
   10.9418   -3.4032   21.2053 O   0  0  0  0  0  0  0  0  0  0  0  0
    1.4797   -8.6258   16.2950 C   0  0  0  0  0  0  0  0  0  0  0  0
    9.2861   -1.2743   25.3585 C   0  0  0  0  0  0  0  0  0  0  0  0
    1.8892  -10.3985   17.7511 N   0  0  0  0  0  0  0  0  0  0  0  0
    9.6210   -0.6952   24.0976 C   0  0  0  0  0  0  0  0  0  0  0  0
    7.0792   -9.0217   17.1429 C   0  0  0  0  0  0  0  0  0  0  0  0
    3.1713  -10.1816   17.6634 C   0  0  0  0  0  0  0  0  0  0  0  0
    2.7878   -8.3822   16.2137 C   0  0  0  0  0  0  0  0  0  0  0  0
    9.4601   -2.6590   25.6528 C   0  0  0  0  0  0  0  0  0  0  0  0
   10.1182   -1.5672   23.1165 C   0  0  0  0  0  0  0  0  0  0  0  0
    1.0552   -9.6360   17.0650 C   0  0  0  0  0  0  0  0  0  0  0  0
    3.6519   -9.1783   16.9039 C   0  0  0  0  0  0  0  0  0  0  0  0
    7.8675   -7.0096   15.9415 C   0  0  0  0  0  0  0  0  0  0  0  0
    5.9733   -9.6553   17.3832 N   0  0  0  0  0  0  0  0  0  0  0  0
   10.2411   -2.9363   23.4301 C   0  0  0  0  0  0  0  0  0  0  0  0
   10.7288   -3.8197   19.9525 C   0  0  0  0  0  0  0  0  0  0  0  0
   10.1189   -5.0054   19.6987 C   0  0  0  0  0  0  0  0  0  0  0  0
  1  3  4  0
  1  7  4  0
  2 21  4  0
  2 27  4  0
  3  9  4  0
  3 10  4  0
  4  8  4  0
  4 18  4  0
  4 25  1  0
  5  9  4  0
  5 12  4  0
  6 13  1  0
  6 27  1  0
  7 28  4  0
  8 11  4  0
  9 29  4  0
 10 12  4  0
 11 24  1  0
 11 26  4  0
 12 25  1  0
 13 28  1  0
 14 20  4  0
 14 23  4  0
 15 17  4  0
 15 21  4  0
 16 19  4  0
 16 23  4  0
 17 22  4  0
 18 26  4  0
 19 24  4  0
 20 24  4  0
 22 27  4  0
 28 29  4  0
M  END
$$$$

 Created by Python create_sdf_string function

 29 33  0  0  0  0  0  0  0  0999 V2000
   10.7215   -3.3326   17.6437 C   0  0  0  0  0  0  0  0  0  0  0  0
    9.9489   -3.4675   24.6487 N   0  0  0  0  0  0  0  0  0  0  0  0
   10.0172   -4.4740   17.4101 C   0  0  0  0  0  0  0  0  0  0  0  0
    6.9051   -7.9575   16.4222 C   0  0  0  0  0  0  0  0  0  0  0  0
    8.9969   -6.3552   17.9668 N   0  0  0  0  0  0  0  0  0  0  0  0
   10.6702   -3.9051   22.4070 C   0  0  0  0  0  0  0  0  0  0  0  0
   11.0625   -3.0028   18.8894 C   0  0  0  0  0  0  0  0  0  0  0  0
    5.6180   -7.9194   16.1754 O   0  0  0  0  0  0  0  0  0  0  0  0
    9.7259   -5.3080   18.4485 C   0  0  0  0  0  0  0  0  0  0  0  0
    9.4578   -5.0200   16.3036 N   0  0  0  0  0  0  0  0  0  0  0  0
    5.0287   -8.9365   16.8223 C   0  0  0  0  0  0  0  0  0  0  0  0
    8.7742   -6.1498   16.6764 C   0  0  0  0  0  0  0  0  0  0  0  0
   10.9418   -3.4032   21.2053 O   0  0  0  0  0  0  0  0  0  0  0  0
    1.4797   -8.6258   16.2950 C   0  0  0  0  0  0  0  0  0  0  0  0
    9.2861   -1.2743   25.3585 C   0  0  0  0  0  0  0  0  0  0  0  0
    1.8892  -10.3985   17.7511 N   0  0  0  0  0  0  0  0  0  0  0  0
    9.6210   -0.6952   24.0976 C   0  0  0  0  0  0  0  0  0  0  0  0
    7.0792   -9.0217   17.1429 C   0  0  0  0  0  0  0  0  0  0  0  0
    3.1713  -10.1816   17.6634 C   0  0  0  0  0  0  0  0  0  0  0  0
    2.7878   -8.3822   16.2137 C   0  0  0  0  0  0  0  0  0  0  0  0
    9.4601   -2.6590   25.6528 C   0  0  0  0  0  0  0  0  0  0  0  0
   10.1182   -1.5672   23.1165 C   0  0  0  0  0  0  0  0  0  0  0  0
    1.0552   -9.6360   17.0650 C   0  0  0  0  0  0  0  0  0  0  0  0
    3.6519   -9.1783   16.9039 C   0  0  0  0  0  0  0  0  0  0  0  0
    7.8675   -7.0096   15.9415 C   0  0  0  0  0  0  0  0  0  0  0  0
    5.9733   -9.6553   17.3832 N   0  0  0  0  0  0  0  0  0  0  0  0
   10.2411   -2.9363   23.4301 C   0  0  0  0  0  0  0  0  0  0  0  0
   10.7288   -3.8197   19.9525 C   0  0  0  0  0  0  0  0  0  0  0  0
   10.1189   -5.0054   19.6987 C   0  0  0  0  0  0  0  0  0  0  0  0
  1  3  4  0
  1  7  4  0
  2 21  4  0
  2 27  4  0
  3  9  4  0
  3 10  4  0
  4  8  4  0
  4 18  4  0
  4 25  1  0
  5  9  4  0
  5 12  4  0
  6 13  1  0
  6 27  1  0
  7 28  4  0
  8 11  4  0
  9 29  4  0
 10 12  4  0
 11 24  1  0
 11 26  4  0
 12 25  1  0
 13 28  1  0
 14 20  4  0
 14 23  4  0
 15 17  4  0
 15 21  4  0
 16 19  4  0
 16 23  4  0
 17 22  4  0
 18 26  4  0
 19 24  4  0
 20 24  4  0
 22 27  4  0
 28 29  4  0
M  END
$$$$

 Created by Python create_sdf_string function

 29 33  0  0  0  0  0  0  0  0999 V2000
   10.7215   -3.3326   17.6437 C   0  0  0  0  0  0  0  0  0  0  0  0
    9.9489   -3.4675   24.6487 N   0  0  0  0  0  0  0  0  0  0  0  0
   10.0172   -4.4740   17.4101 C   0  0  0  0  0  0  0  0  0  0  0  0
    6.9051   -7.9575   16.4222 C   0  0  0  0  0  0  0  0  0  0  0  0
    8.9969   -6.3552   17.9668 N   0  0  0  0  0  0  0  0  0  0  0  0
   10.6702   -3.9051   22.4070 C   0  0  0  0  0  0  0  0  0  0  0  0
   11.0625   -3.0028   18.8894 C   0  0  0  0  0  0  0  0  0  0  0  0
    5.6180   -7.9194   16.1754 O   0  0  0  0  0  0  0  0  0  0  0  0
    9.7259   -5.3080   18.4485 C   0  0  0  0  0  0  0  0  0  0  0  0
    9.4578   -5.0200   16.3036 N   0  0  0  0  0  0  0  0  0  0  0  0
    5.0287   -8.9365   16.8223 C   0  0  0  0  0  0  0  0  0  0  0  0
    8.7742   -6.1498   16.6764 C   0  0  0  0  0  0  0  0  0  0  0  0
   10.9418   -3.4032   21.2053 O   0  0  0  0  0  0  0  0  0  0  0  0
    1.4797   -8.6258   16.2950 C   0  0  0  0  0  0  0  0  0  0  0  0
    9.2861   -1.2743   25.3585 C   0  0  0  0  0  0  0  0  0  0  0  0
    1.8892  -10.3985   17.7511 N   0  0  0  0  0  0  0  0  0  0  0  0
    9.6210   -0.6952   24.0976 C   0  0  0  0  0  0  0  0  0  0  0  0
    7.0792   -9.0217   17.1429 C   0  0  0  0  0  0  0  0  0  0  0  0
    3.1713  -10.1816   17.6634 C   0  0  0  0  0  0  0  0  0  0  0  0
    2.7878   -8.3822   16.2137 C   0  0  0  0  0  0  0  0  0  0  0  0
    9.4601   -2.6590   25.6528 C   0  0  0  0  0  0  0  0  0  0  0  0
   10.1182   -1.5672   23.1165 C   0  0  0  0  0  0  0  0  0  0  0  0
    1.0552   -9.6360   17.0650 C   0  0  0  0  0  0  0  0  0  0  0  0
    3.6519   -9.1783   16.9039 C   0  0  0  0  0  0  0  0  0  0  0  0
    7.8675   -7.0096   15.9415 C   0  0  0  0  0  0  0  0  0  0  0  0
    5.9733   -9.6553   17.3832 N   0  0  0  0  0  0  0  0  0  0  0  0
   10.2411   -2.9363   23.4301 C   0  0  0  0  0  0  0  0  0  0  0  0
   10.7288   -3.8197   19.9525 C   0  0  0  0  0  0  0  0  0  0  0  0
   10.1189   -5.0054   19.6987 C   0  0  0  0  0  0  0  0  0  0  0  0
  1  3  4  0
  1  7  4  0
  2 21  4  0
  2 27  4  0
  3  9  4  0
  3 10  4  0
  4  8  4  0
  4 18  4  0
  4 25  1  0
  5  9  4  0
  5 12  4  0
  6 13  1  0
  6 27  1  0
  7 28  4  0
  8 11  4  0
  9 29  4  0
 10 12  4  0
 11 24  1  0
 11 26  4  0
 12 25  1  0
 13 28  1  0
 14 20  4  0
 14 23  4  0
 15 17  4  0
 15 21  4  0
 16 19  4  0
 16 23  4  0
 17 22  4  0
 18 26  4  0
 19 24  4  0
 20 24  4  0
 22 27  4  0
 28 29  4  0
M  END
$$$$

 Created by Python create_sdf_string function

 29 33  0  0  0  0  0  0  0  0999 V2000
   10.7215   -3.3326   17.6437 C   0  0  0  0  0  0  0  0  0  0  0  0
    9.9489   -3.4675   24.6487 N   0  0  0  0  0  0  0  0  0  0  0  0
   10.0172   -4.4740   17.4101 C   0  0  0  0  0  0  0  0  0  0  0  0
    6.9051   -7.9575   16.4222 C   0  0  0  0  0  0  0  0  0  0  0  0
    8.9969   -6.3552   17.9668 N   0  0  0  0  0  0  0  0  0  0  0  0
   10.6702   -3.9051   22.4070 C   0  0  0  0  0  0  0  0  0  0  0  0
   11.0625   -3.0028   18.8894 C   0  0  0  0  0  0  0  0  0  0  0  0
    5.6180   -7.9194   16.1754 O   0  0  0  0  0  0  0  0  0  0  0  0
    9.7259   -5.3080   18.4485 C   0  0  0  0  0  0  0  0  0  0  0  0
    9.4578   -5.0200   16.3036 N   0  0  0  0  0  0  0  0  0  0  0  0
    5.0287   -8.9365   16.8223 C   0  0  0  0  0  0  0  0  0  0  0  0
    8.7742   -6.1498   16.6764 C   0  0  0  0  0  0  0  0  0  0  0  0
   10.9418   -3.4032   21.2053 O   0  0  0  0  0  0  0  0  0  0  0  0
    1.4797   -8.6258   16.2950 C   0  0  0  0  0  0  0  0  0  0  0  0
    9.2861   -1.2743   25.3585 C   0  0  0  0  0  0  0  0  0  0  0  0
    1.8892  -10.3985   17.7511 N   0  0  0  0  0  0  0  0  0  0  0  0
    9.6210   -0.6952   24.0976 C   0  0  0  0  0  0  0  0  0  0  0  0
    7.0792   -9.0217   17.1429 C   0  0  0  0  0  0  0  0  0  0  0  0
    3.1713  -10.1816   17.6634 C   0  0  0  0  0  0  0  0  0  0  0  0
    2.7878   -8.3822   16.2137 C   0  0  0  0  0  0  0  0  0  0  0  0
    9.4601   -2.6590   25.6528 C   0  0  0  0  0  0  0  0  0  0  0  0
   10.1182   -1.5672   23.1165 C   0  0  0  0  0  0  0  0  0  0  0  0
    1.0552   -9.6360   17.0650 C   0  0  0  0  0  0  0  0  0  0  0  0
    3.6519   -9.1783   16.9039 C   0  0  0  0  0  0  0  0  0  0  0  0
    7.8675   -7.0096   15.9415 C   0  0  0  0  0  0  0  0  0  0  0  0
    5.9733   -9.6553   17.3832 N   0  0  0  0  0  0  0  0  0  0  0  0
   10.2411   -2.9363   23.4301 C   0  0  0  0  0  0  0  0  0  0  0  0
   10.7288   -3.8197   19.9525 C   0  0  0  0  0  0  0  0  0  0  0  0
   10.1189   -5.0054   19.6987 C   0  0  0  0  0  0  0  0  0  0  0  0
  1  3  4  0
  1  7  4  0
  2 21  4  0
  2 27  4  0
  3  9  4  0
  3 10  4  0
  4  8  4  0
  4 18  4  0
  4 25  1  0
  5  9  4  0
  5 12  4  0
  6 13  1  0
  6 27  1  0
  7 28  4  0
  8 11  4  0
  9 29  4  0
 10 12  4  0
 11 24  1  0
 11 26  4  0
 12 25  1  0
 13 28  1  0
 14 20  4  0
 14 23  4  0
 15 17  4  0
 15 21  4  0
 16 19  4  0
 16 23  4  0
 17 22  4  0
 18 26  4  0
 19 24  4  0
 20 24  4  0
 22 27  4  0
 28 29  4  0
M  END
$$$$

 Created by Python create_sdf_string function

 29 33  0  0  0  0  0  0  0  0999 V2000
   10.7215   -3.3326   17.6437 C   0  0  0  0  0  0  0  0  0  0  0  0
    9.9489   -3.4675   24.6487 N   0  0  0  0  0  0  0  0  0  0  0  0
   10.0172   -4.4740   17.4101 C   0  0  0  0  0  0  0  0  0  0  0  0
    6.9051   -7.9575   16.4222 C   0  0  0  0  0  0  0  0  0  0  0  0
    8.9969   -6.3552   17.9668 N   0  0  0  0  0  0  0  0  0  0  0  0
   10.6702   -3.9051   22.4070 C   0  0  0  0  0  0  0  0  0  0  0  0
   11.0625   -3.0028   18.8894 C   0  0  0  0  0  0  0  0  0  0  0  0
    5.6180   -7.9194   16.1754 O   0  0  0  0  0  0  0  0  0  0  0  0
    9.7259   -5.3080   18.4485 C   0  0  0  0  0  0  0  0  0  0  0  0
    9.4578   -5.0200   16.3036 N   0  0  0  0  0  0  0  0  0  0  0  0
    5.0287   -8.9365   16.8223 C   0  0  0  0  0  0  0  0  0  0  0  0
    8.7742   -6.1498   16.6764 C   0  0  0  0  0  0  0  0  0  0  0  0
   10.9418   -3.4032   21.2053 O   0  0  0  0  0  0  0  0  0  0  0  0
    1.4797   -8.6258   16.2950 C   0  0  0  0  0  0  0  0  0  0  0  0
    9.2861   -1.2743   25.3585 C   0  0  0  0  0  0  0  0  0  0  0  0
    1.8892  -10.3985   17.7511 N   0  0  0  0  0  0  0  0  0  0  0  0
    9.6210   -0.6952   24.0976 C   0  0  0  0  0  0  0  0  0  0  0  0
    7.0792   -9.0217   17.1429 C   0  0  0  0  0  0  0  0  0  0  0  0
    3.1713  -10.1816   17.6634 C   0  0  0  0  0  0  0  0  0  0  0  0
    2.7878   -8.3822   16.2137 C   0  0  0  0  0  0  0  0  0  0  0  0
    9.4601   -2.6590   25.6528 C   0  0  0  0  0  0  0  0  0  0  0  0
   10.1182   -1.5672   23.1165 C   0  0  0  0  0  0  0  0  0  0  0  0
    1.0552   -9.6360   17.0650 C   0  0  0  0  0  0  0  0  0  0  0  0
    3.6519   -9.1783   16.9039 C   0  0  0  0  0  0  0  0  0  0  0  0
    7.8675   -7.0096   15.9415 C   0  0  0  0  0  0  0  0  0  0  0  0
    5.9733   -9.6553   17.3832 N   0  0  0  0  0  0  0  0  0  0  0  0
   10.2411   -2.9363   23.4301 C   0  0  0  0  0  0  0  0  0  0  0  0
   10.7288   -3.8197   19.9525 C   0  0  0  0  0  0  0  0  0  0  0  0
   10.1189   -5.0054   19.6987 C   0  0  0  0  0  0  0  0  0  0  0  0
  1  3  4  0
  1  7  4  0
  2 21  4  0
  2 27  4  0
  3  9  4  0
  3 10  4  0
  4  8  4  0
  4 18  4  0
  4 25  1  0
  5  9  4  0
  5 12  4  0
  6 13  1  0
  6 27  1  0
  7 28  4  0
  8 11  4  0
  9 29  4  0
 10 12  4  0
 11 24  1  0
 11 26  4  0
 12 25  1  0
 13 28  1  0
 14 20  4  0
 14 23  4  0
 15 17  4  0
 15 21  4  0
 16 19  4  0
 16 23  4  0
 17 22  4  0
 18 26  4  0
 19 24  4  0
 20 24  4  0
 22 27  4  0
 28 29  4  0
M  END
$$$$

 Created by Python create_sdf_string function

 29 33  0  0  0  0  0  0  0  0999 V2000
   10.7215   -3.3326   17.6437 C   0  0  0  0  0  0  0  0  0  0  0  0
    9.9489   -3.4675   24.6487 N   0  0  0  0  0  0  0  0  0  0  0  0
   10.0172   -4.4740   17.4101 C   0  0  0  0  0  0  0  0  0  0  0  0
    6.9051   -7.9575   16.4222 C   0  0  0  0  0  0  0  0  0  0  0  0
    8.9969   -6.3552   17.9668 N   0  0  0  0  0  0  0  0  0  0  0  0
   10.6702   -3.9051   22.4070 C   0  0  0  0  0  0  0  0  0  0  0  0
   11.0625   -3.0028   18.8894 C   0  0  0  0  0  0  0  0  0  0  0  0
    5.6180   -7.9194   16.1754 O   0  0  0  0  0  0  0  0  0  0  0  0
    9.7259   -5.3080   18.4485 C   0  0  0  0  0  0  0  0  0  0  0  0
    9.4578   -5.0200   16.3036 N   0  0  0  0  0  0  0  0  0  0  0  0
    5.0287   -8.9365   16.8223 C   0  0  0  0  0  0  0  0  0  0  0  0
    8.7742   -6.1498   16.6764 C   0  0  0  0  0  0  0  0  0  0  0  0
   10.9418   -3.4032   21.2053 O   0  0  0  0  0  0  0  0  0  0  0  0
    1.4797   -8.6258   16.2950 C   0  0  0  0  0  0  0  0  0  0  0  0
    9.2861   -1.2743   25.3585 C   0  0  0  0  0  0  0  0  0  0  0  0
    1.8892  -10.3985   17.7511 N   0  0  0  0  0  0  0  0  0  0  0  0
    9.6210   -0.6952   24.0976 C   0  0  0  0  0  0  0  0  0  0  0  0
    7.0792   -9.0217   17.1429 C   0  0  0  0  0  0  0  0  0  0  0  0
    3.1713  -10.1816   17.6634 C   0  0  0  0  0  0  0  0  0  0  0  0
    2.7878   -8.3822   16.2137 C   0  0  0  0  0  0  0  0  0  0  0  0
    9.4601   -2.6590   25.6528 C   0  0  0  0  0  0  0  0  0  0  0  0
   10.1182   -1.5672   23.1165 C   0  0  0  0  0  0  0  0  0  0  0  0
    1.0552   -9.6360   17.0650 C   0  0  0  0  0  0  0  0  0  0  0  0
    3.6519   -9.1783   16.9039 C   0  0  0  0  0  0  0  0  0  0  0  0
    7.8675   -7.0096   15.9415 C   0  0  0  0  0  0  0  0  0  0  0  0
    5.9733   -9.6553   17.3832 N   0  0  0  0  0  0  0  0  0  0  0  0
   10.2411   -2.9363   23.4301 C   0  0  0  0  0  0  0  0  0  0  0  0
   10.7288   -3.8197   19.9525 C   0  0  0  0  0  0  0  0  0  0  0  0
   10.1189   -5.0054   19.6987 C   0  0  0  0  0  0  0  0  0  0  0  0
  1  3  4  0
  1  7  4  0
  2 21  4  0
  2 27  4  0
  3  9  4  0
  3 10  4  0
  4  8  4  0
  4 18  4  0
  4 25  1  0
  5  9  4  0
  5 12  4  0
  6 13  1  0
  6 27  1  0
  7 28  4  0
  8 11  4  0
  9 29  4  0
 10 12  4  0
 11 24  1  0
 11 26  4  0
 12 25  1  0
 13 28  1  0
 14 20  4  0
 14 23  4  0
 15 17  4  0
 15 21  4  0
 16 19  4  0
 16 23  4  0
 17 22  4  0
 18 26  4  0
 19 24  4  0
 20 24  4  0
 22 27  4  0
 28 29  4  0
M  END
$$$$

 Created by Python create_sdf_string function

 29 33  0  0  0  0  0  0  0  0999 V2000
   10.7215   -3.3326   17.6437 C   0  0  0  0  0  0  0  0  0  0  0  0
    9.9489   -3.4675   24.6487 N   0  0  0  0  0  0  0  0  0  0  0  0
   10.0172   -4.4740   17.4101 C   0  0  0  0  0  0  0  0  0  0  0  0
    6.9051   -7.9575   16.4222 C   0  0  0  0  0  0  0  0  0  0  0  0
    8.9969   -6.3552   17.9668 N   0  0  0  0  0  0  0  0  0  0  0  0
   10.6702   -3.9051   22.4070 C   0  0  0  0  0  0  0  0  0  0  0  0
   11.0625   -3.0028   18.8894 C   0  0  0  0  0  0  0  0  0  0  0  0
    5.6180   -7.9194   16.1754 O   0  0  0  0  0  0  0  0  0  0  0  0
    9.7259   -5.3080   18.4485 C   0  0  0  0  0  0  0  0  0  0  0  0
    9.4578   -5.0200   16.3036 N   0  0  0  0  0  0  0  0  0  0  0  0
    5.0287   -8.9365   16.8223 C   0  0  0  0  0  0  0  0  0  0  0  0
    8.7742   -6.1498   16.6764 C   0  0  0  0  0  0  0  0  0  0  0  0
   10.9418   -3.4032   21.2053 O   0  0  0  0  0  0  0  0  0  0  0  0
    1.4797   -8.6258   16.2950 C   0  0  0  0  0  0  0  0  0  0  0  0
    9.2861   -1.2743   25.3585 C   0  0  0  0  0  0  0  0  0  0  0  0
    1.8892  -10.3985   17.7511 N   0  0  0  0  0  0  0  0  0  0  0  0
    9.6210   -0.6952   24.0976 C   0  0  0  0  0  0  0  0  0  0  0  0
    7.0792   -9.0217   17.1429 C   0  0  0  0  0  0  0  0  0  0  0  0
    3.1713  -10.1816   17.6634 C   0  0  0  0  0  0  0  0  0  0  0  0
    2.7878   -8.3822   16.2137 C   0  0  0  0  0  0  0  0  0  0  0  0
    9.4601   -2.6590   25.6528 C   0  0  0  0  0  0  0  0  0  0  0  0
   10.1182   -1.5672   23.1165 C   0  0  0  0  0  0  0  0  0  0  0  0
    1.0552   -9.6360   17.0650 C   0  0  0  0  0  0  0  0  0  0  0  0
    3.6519   -9.1783   16.9039 C   0  0  0  0  0  0  0  0  0  0  0  0
    7.8675   -7.0096   15.9415 C   0  0  0  0  0  0  0  0  0  0  0  0
    5.9733   -9.6553   17.3832 N   0  0  0  0  0  0  0  0  0  0  0  0
   10.2411   -2.9363   23.4301 C   0  0  0  0  0  0  0  0  0  0  0  0
   10.7288   -3.8197   19.9525 C   0  0  0  0  0  0  0  0  0  0  0  0
   10.1189   -5.0054   19.6987 C   0  0  0  0  0  0  0  0  0  0  0  0
  1  3  4  0
  1  7  4  0
  2 21  4  0
  2 27  4  0
  3  9  4  0
  3 10  4  0
  4  8  4  0
  4 18  4  0
  4 25  1  0
  5  9  4  0
  5 12  4  0
  6 13  1  0
  6 27  1  0
  7 28  4  0
  8 11  4  0
  9 29  4  0
 10 12  4  0
 11 24  1  0
 11 26  4  0
 12 25  1  0
 13 28  1  0
 14 20  4  0
 14 23  4  0
 15 17  4  0
 15 21  4  0
 16 19  4  0
 16 23  4  0
 17 22  4  0
 18 26  4  0
 19 24  4  0
 20 24  4  0
 22 27  4  0
 28 29  4  0
M  END
$$$$

 Created by Python create_sdf_string function

 29 33  0  0  0  0  0  0  0  0999 V2000
   10.7215   -3.3326   17.6437 C   0  0  0  0  0  0  0  0  0  0  0  0
    9.9489   -3.4675   24.6487 N   0  0  0  0  0  0  0  0  0  0  0  0
   10.0172   -4.4740   17.4101 C   0  0  0  0  0  0  0  0  0  0  0  0
    6.9051   -7.9575   16.4222 C   0  0  0  0  0  0  0  0  0  0  0  0
    8.9969   -6.3552   17.9668 N   0  0  0  0  0  0  0  0  0  0  0  0
   10.6702   -3.9051   22.4070 C   0  0  0  0  0  0  0  0  0  0  0  0
   11.0625   -3.0028   18.8894 C   0  0  0  0  0  0  0  0  0  0  0  0
    5.6180   -7.9194   16.1754 O   0  0  0  0  0  0  0  0  0  0  0  0
    9.7259   -5.3080   18.4485 C   0  0  0  0  0  0  0  0  0  0  0  0
    9.4578   -5.0200   16.3036 N   0  0  0  0  0  0  0  0  0  0  0  0
    5.0287   -8.9365   16.8223 C   0  0  0  0  0  0  0  0  0  0  0  0
    8.7742   -6.1498   16.6764 C   0  0  0  0  0  0  0  0  0  0  0  0
   10.9418   -3.4032   21.2053 O   0  0  0  0  0  0  0  0  0  0  0  0
    1.4797   -8.6258   16.2950 C   0  0  0  0  0  0  0  0  0  0  0  0
    9.2861   -1.2743   25.3585 C   0  0  0  0  0  0  0  0  0  0  0  0
    1.8892  -10.3985   17.7511 N   0  0  0  0  0  0  0  0  0  0  0  0
    9.6210   -0.6952   24.0976 C   0  0  0  0  0  0  0  0  0  0  0  0
    7.0792   -9.0217   17.1429 C   0  0  0  0  0  0  0  0  0  0  0  0
    3.1713  -10.1816   17.6634 C   0  0  0  0  0  0  0  0  0  0  0  0
    2.7878   -8.3822   16.2137 C   0  0  0  0  0  0  0  0  0  0  0  0
    9.4601   -2.6590   25.6528 C   0  0  0  0  0  0  0  0  0  0  0  0
   10.1182   -1.5672   23.1165 C   0  0  0  0  0  0  0  0  0  0  0  0
    1.0552   -9.6360   17.0650 C   0  0  0  0  0  0  0  0  0  0  0  0
    3.6519   -9.1783   16.9039 C   0  0  0  0  0  0  0  0  0  0  0  0
    7.8675   -7.0096   15.9415 C   0  0  0  0  0  0  0  0  0  0  0  0
    5.9733   -9.6553   17.3832 N   0  0  0  0  0  0  0  0  0  0  0  0
   10.2411   -2.9363   23.4301 C   0  0  0  0  0  0  0  0  0  0  0  0
   10.7288   -3.8197   19.9525 C   0  0  0  0  0  0  0  0  0  0  0  0
   10.1189   -5.0054   19.6987 C   0  0  0  0  0  0  0  0  0  0  0  0
  1  3  4  0
  1  7  4  0
  2 21  4  0
  2 27  4  0
  3  9  4  0
  3 10  4  0
  4  8  4  0
  4 18  4  0
  4 25  1  0
  5  9  4  0
  5 12  4  0
  6 13  1  0
  6 27  1  0
  7 28  4  0
  8 11  4  0
  9 29  4  0
 10 12  4  0
 11 24  1  0
 11 26  4  0
 12 25  1  0
 13 28  1  0
 14 20  4  0
 14 23  4  0
 15 17  4  0
 15 21  4  0
 16 19  4  0
 16 23  4  0
 17 22  4  0
 18 26  4  0
 19 24  4  0
 20 24  4  0
 22 27  4  0
 28 29  4  0
M  END
$$$$

 Created by Python create_sdf_string function

 29 33  0  0  0  0  0  0  0  0999 V2000
   10.7215   -3.3326   17.6437 C   0  0  0  0  0  0  0  0  0  0  0  0
    9.9489   -3.4675   24.6487 N   0  0  0  0  0  0  0  0  0  0  0  0
   10.0172   -4.4740   17.4101 C   0  0  0  0  0  0  0  0  0  0  0  0
    6.9051   -7.9575   16.4222 C   0  0  0  0  0  0  0  0  0  0  0  0
    8.9969   -6.3552   17.9668 N   0  0  0  0  0  0  0  0  0  0  0  0
   10.6702   -3.9051   22.4070 C   0  0  0  0  0  0  0  0  0  0  0  0
   11.0625   -3.0028   18.8894 C   0  0  0  0  0  0  0  0  0  0  0  0
    5.6180   -7.9194   16.1754 O   0  0  0  0  0  0  0  0  0  0  0  0
    9.7259   -5.3080   18.4485 C   0  0  0  0  0  0  0  0  0  0  0  0
    9.4578   -5.0200   16.3036 N   0  0  0  0  0  0  0  0  0  0  0  0
    5.0287   -8.9365   16.8223 C   0  0  0  0  0  0  0  0  0  0  0  0
    8.7742   -6.1498   16.6764 C   0  0  0  0  0  0  0  0  0  0  0  0
   10.9418   -3.4032   21.2053 O   0  0  0  0  0  0  0  0  0  0  0  0
    1.4797   -8.6258   16.2950 C   0  0  0  0  0  0  0  0  0  0  0  0
    9.2861   -1.2743   25.3585 C   0  0  0  0  0  0  0  0  0  0  0  0
    1.8892  -10.3985   17.7511 N   0  0  0  0  0  0  0  0  0  0  0  0
    9.6210   -0.6952   24.0976 C   0  0  0  0  0  0  0  0  0  0  0  0
    7.0792   -9.0217   17.1429 C   0  0  0  0  0  0  0  0  0  0  0  0
    3.1713  -10.1816   17.6634 C   0  0  0  0  0  0  0  0  0  0  0  0
    2.7878   -8.3822   16.2137 C   0  0  0  0  0  0  0  0  0  0  0  0
    9.4601   -2.6590   25.6528 C   0  0  0  0  0  0  0  0  0  0  0  0
   10.1182   -1.5672   23.1165 C   0  0  0  0  0  0  0  0  0  0  0  0
    1.0552   -9.6360   17.0650 C   0  0  0  0  0  0  0  0  0  0  0  0
    3.6519   -9.1783   16.9039 C   0  0  0  0  0  0  0  0  0  0  0  0
    7.8675   -7.0096   15.9415 C   0  0  0  0  0  0  0  0  0  0  0  0
    5.9733   -9.6553   17.3832 N   0  0  0  0  0  0  0  0  0  0  0  0
   10.2411   -2.9363   23.4301 C   0  0  0  0  0  0  0  0  0  0  0  0
   10.7288   -3.8197   19.9525 C   0  0  0  0  0  0  0  0  0  0  0  0
   10.1189   -5.0054   19.6987 C   0  0  0  0  0  0  0  0  0  0  0  0
  1  3  4  0
  1  7  4  0
  2 21  4  0
  2 27  4  0
  3  9  4  0
  3 10  4  0
  4  8  4  0
  4 18  4  0
  4 25  1  0
  5  9  4  0
  5 12  4  0
  6 13  1  0
  6 27  1  0
  7 28  4  0
  8 11  4  0
  9 29  4  0
 10 12  4  0
 11 24  1  0
 11 26  4  0
 12 25  1  0
 13 28  1  0
 14 20  4  0
 14 23  4  0
 15 17  4  0
 15 21  4  0
 16 19  4  0
 16 23  4  0
 17 22  4  0
 18 26  4  0
 19 24  4  0
 20 24  4  0
 22 27  4  0
 28 29  4  0
M  END
$$$$

 Created by Python create_sdf_string function

 29 33  0  0  0  0  0  0  0  0999 V2000
   10.7215   -3.3326   17.6437 C   0  0  0  0  0  0  0  0  0  0  0  0
    9.9489   -3.4675   24.6487 N   0  0  0  0  0  0  0  0  0  0  0  0
   10.0172   -4.4740   17.4101 C   0  0  0  0  0  0  0  0  0  0  0  0
    6.9051   -7.9575   16.4222 C   0  0  0  0  0  0  0  0  0  0  0  0
    8.9969   -6.3552   17.9668 N   0  0  0  0  0  0  0  0  0  0  0  0
   10.6702   -3.9051   22.4070 C   0  0  0  0  0  0  0  0  0  0  0  0
   11.0625   -3.0028   18.8894 C   0  0  0  0  0  0  0  0  0  0  0  0
    5.6180   -7.9194   16.1754 O   0  0  0  0  0  0  0  0  0  0  0  0
    9.7259   -5.3080   18.4485 C   0  0  0  0  0  0  0  0  0  0  0  0
    9.4578   -5.0200   16.3036 N   0  0  0  0  0  0  0  0  0  0  0  0
    5.0287   -8.9365   16.8223 C   0  0  0  0  0  0  0  0  0  0  0  0
    8.7742   -6.1498   16.6764 C   0  0  0  0  0  0  0  0  0  0  0  0
   10.9418   -3.4032   21.2053 O   0  0  0  0  0  0  0  0  0  0  0  0
    1.4797   -8.6258   16.2950 C   0  0  0  0  0  0  0  0  0  0  0  0
    9.2861   -1.2743   25.3585 C   0  0  0  0  0  0  0  0  0  0  0  0
    1.8892  -10.3985   17.7511 N   0  0  0  0  0  0  0  0  0  0  0  0
    9.6210   -0.6952   24.0976 C   0  0  0  0  0  0  0  0  0  0  0  0
    7.0792   -9.0217   17.1429 C   0  0  0  0  0  0  0  0  0  0  0  0
    3.1713  -10.1816   17.6634 C   0  0  0  0  0  0  0  0  0  0  0  0
    2.7878   -8.3822   16.2137 C   0  0  0  0  0  0  0  0  0  0  0  0
    9.4601   -2.6590   25.6528 C   0  0  0  0  0  0  0  0  0  0  0  0
   10.1182   -1.5672   23.1165 C   0  0  0  0  0  0  0  0  0  0  0  0
    1.0552   -9.6360   17.0650 C   0  0  0  0  0  0  0  0  0  0  0  0
    3.6519   -9.1783   16.9039 C   0  0  0  0  0  0  0  0  0  0  0  0
    7.8675   -7.0096   15.9415 C   0  0  0  0  0  0  0  0  0  0  0  0
    5.9733   -9.6553   17.3832 N   0  0  0  0  0  0  0  0  0  0  0  0
   10.2411   -2.9363   23.4301 C   0  0  0  0  0  0  0  0  0  0  0  0
   10.7288   -3.8197   19.9525 C   0  0  0  0  0  0  0  0  0  0  0  0
   10.1189   -5.0054   19.6987 C   0  0  0  0  0  0  0  0  0  0  0  0
  1  3  4  0
  1  7  4  0
  2 21  4  0
  2 27  4  0
  3  9  4  0
  3 10  4  0
  4  8  4  0
  4 18  4  0
  4 25  1  0
  5  9  4  0
  5 12  4  0
  6 13  1  0
  6 27  1  0
  7 28  4  0
  8 11  4  0
  9 29  4  0
 10 12  4  0
 11 24  1  0
 11 26  4  0
 12 25  1  0
 13 28  1  0
 14 20  4  0
 14 23  4  0
 15 17  4  0
 15 21  4  0
 16 19  4  0
 16 23  4  0
 17 22  4  0
 18 26  4  0
 19 24  4  0
 20 24  4  0
 22 27  4  0
 28 29  4  0
M  END
$$$$

 Created by Python create_sdf_string function

 29 33  0  0  0  0  0  0  0  0999 V2000
   10.7215   -3.3326   17.6437 C   0  0  0  0  0  0  0  0  0  0  0  0
    9.9489   -3.4675   24.6487 N   0  0  0  0  0  0  0  0  0  0  0  0
   10.0172   -4.4740   17.4101 C   0  0  0  0  0  0  0  0  0  0  0  0
    6.9051   -7.9575   16.4222 C   0  0  0  0  0  0  0  0  0  0  0  0
    8.9969   -6.3552   17.9668 N   0  0  0  0  0  0  0  0  0  0  0  0
   10.6702   -3.9051   22.4070 C   0  0  0  0  0  0  0  0  0  0  0  0
   11.0625   -3.0028   18.8894 C   0  0  0  0  0  0  0  0  0  0  0  0
    5.6180   -7.9194   16.1754 O   0  0  0  0  0  0  0  0  0  0  0  0
    9.7259   -5.3080   18.4485 C   0  0  0  0  0  0  0  0  0  0  0  0
    9.4578   -5.0200   16.3036 N   0  0  0  0  0  0  0  0  0  0  0  0
    5.0287   -8.9365   16.8223 C   0  0  0  0  0  0  0  0  0  0  0  0
    8.7742   -6.1498   16.6764 C   0  0  0  0  0  0  0  0  0  0  0  0
   10.9418   -3.4032   21.2053 O   0  0  0  0  0  0  0  0  0  0  0  0
    1.4797   -8.6258   16.2950 C   0  0  0  0  0  0  0  0  0  0  0  0
    9.2861   -1.2743   25.3585 C   0  0  0  0  0  0  0  0  0  0  0  0
    1.8892  -10.3985   17.7511 N   0  0  0  0  0  0  0  0  0  0  0  0
    9.6210   -0.6952   24.0976 C   0  0  0  0  0  0  0  0  0  0  0  0
    7.0792   -9.0217   17.1429 C   0  0  0  0  0  0  0  0  0  0  0  0
    3.1713  -10.1816   17.6634 C   0  0  0  0  0  0  0  0  0  0  0  0
    2.7878   -8.3822   16.2137 C   0  0  0  0  0  0  0  0  0  0  0  0
    9.4601   -2.6590   25.6528 C   0  0  0  0  0  0  0  0  0  0  0  0
   10.1182   -1.5672   23.1165 C   0  0  0  0  0  0  0  0  0  0  0  0
    1.0552   -9.6360   17.0650 C   0  0  0  0  0  0  0  0  0  0  0  0
    3.6519   -9.1783   16.9039 C   0  0  0  0  0  0  0  0  0  0  0  0
    7.8675   -7.0096   15.9415 C   0  0  0  0  0  0  0  0  0  0  0  0
    5.9733   -9.6553   17.3832 N   0  0  0  0  0  0  0  0  0  0  0  0
   10.2411   -2.9363   23.4301 C   0  0  0  0  0  0  0  0  0  0  0  0
   10.7288   -3.8197   19.9525 C   0  0  0  0  0  0  0  0  0  0  0  0
   10.1189   -5.0054   19.6987 C   0  0  0  0  0  0  0  0  0  0  0  0
  1  3  4  0
  1  7  4  0
  2 21  4  0
  2 27  4  0
  3  9  4  0
  3 10  4  0
  4  8  4  0
  4 18  4  0
  4 25  1  0
  5  9  4  0
  5 12  4  0
  6 13  1  0
  6 27  1  0
  7 28  4  0
  8 11  4  0
  9 29  4  0
 10 12  4  0
 11 24  1  0
 11 26  4  0
 12 25  1  0
 13 28  1  0
 14 20  4  0
 14 23  4  0
 15 17  4  0
 15 21  4  0
 16 19  4  0
 16 23  4  0
 17 22  4  0
 18 26  4  0
 19 24  4  0
 20 24  4  0
 22 27  4  0
 28 29  4  0
M  END
$$$$

 Created by Python create_sdf_string function

 29 33  0  0  0  0  0  0  0  0999 V2000
   10.7215   -3.3326   17.6437 C   0  0  0  0  0  0  0  0  0  0  0  0
    9.9489   -3.4675   24.6487 N   0  0  0  0  0  0  0  0  0  0  0  0
   10.0172   -4.4740   17.4101 C   0  0  0  0  0  0  0  0  0  0  0  0
    6.9051   -7.9575   16.4222 C   0  0  0  0  0  0  0  0  0  0  0  0
    8.9969   -6.3552   17.9668 N   0  0  0  0  0  0  0  0  0  0  0  0
   10.6702   -3.9051   22.4070 C   0  0  0  0  0  0  0  0  0  0  0  0
   11.0625   -3.0028   18.8894 C   0  0  0  0  0  0  0  0  0  0  0  0
    5.6180   -7.9194   16.1754 O   0  0  0  0  0  0  0  0  0  0  0  0
    9.7259   -5.3080   18.4485 C   0  0  0  0  0  0  0  0  0  0  0  0
    9.4578   -5.0200   16.3036 N   0  0  0  0  0  0  0  0  0  0  0  0
    5.0287   -8.9365   16.8223 C   0  0  0  0  0  0  0  0  0  0  0  0
    8.7742   -6.1498   16.6764 C   0  0  0  0  0  0  0  0  0  0  0  0
   10.9418   -3.4032   21.2053 O   0  0  0  0  0  0  0  0  0  0  0  0
    1.4797   -8.6258   16.2950 C   0  0  0  0  0  0  0  0  0  0  0  0
    9.2861   -1.2743   25.3585 C   0  0  0  0  0  0  0  0  0  0  0  0
    1.8892  -10.3985   17.7511 N   0  0  0  0  0  0  0  0  0  0  0  0
    9.6210   -0.6952   24.0976 C   0  0  0  0  0  0  0  0  0  0  0  0
    7.0792   -9.0217   17.1429 C   0  0  0  0  0  0  0  0  0  0  0  0
    3.1713  -10.1816   17.6634 C   0  0  0  0  0  0  0  0  0  0  0  0
    2.7878   -8.3822   16.2137 C   0  0  0  0  0  0  0  0  0  0  0  0
    9.4601   -2.6590   25.6528 C   0  0  0  0  0  0  0  0  0  0  0  0
   10.1182   -1.5672   23.1165 C   0  0  0  0  0  0  0  0  0  0  0  0
    1.0552   -9.6360   17.0650 C   0  0  0  0  0  0  0  0  0  0  0  0
    3.6519   -9.1783   16.9039 C   0  0  0  0  0  0  0  0  0  0  0  0
    7.8675   -7.0096   15.9415 C   0  0  0  0  0  0  0  0  0  0  0  0
    5.9733   -9.6553   17.3832 N   0  0  0  0  0  0  0  0  0  0  0  0
   10.2411   -2.9363   23.4301 C   0  0  0  0  0  0  0  0  0  0  0  0
   10.7288   -3.8197   19.9525 C   0  0  0  0  0  0  0  0  0  0  0  0
   10.1189   -5.0054   19.6987 C   0  0  0  0  0  0  0  0  0  0  0  0
  1  3  4  0
  1  7  4  0
  2 21  4  0
  2 27  4  0
  3  9  4  0
  3 10  4  0
  4  8  4  0
  4 18  4  0
  4 25  1  0
  5  9  4  0
  5 12  4  0
  6 13  1  0
  6 27  1  0
  7 28  4  0
  8 11  4  0
  9 29  4  0
 10 12  4  0
 11 24  1  0
 11 26  4  0
 12 25  1  0
 13 28  1  0
 14 20  4  0
 14 23  4  0
 15 17  4  0
 15 21  4  0
 16 19  4  0
 16 23  4  0
 17 22  4  0
 18 26  4  0
 19 24  4  0
 20 24  4  0
 22 27  4  0
 28 29  4  0
M  END
$$$$

 Created by Python create_sdf_string function

 29 33  0  0  0  0  0  0  0  0999 V2000
   10.7215   -3.3326   17.6437 C   0  0  0  0  0  0  0  0  0  0  0  0
    9.9489   -3.4675   24.6487 N   0  0  0  0  0  0  0  0  0  0  0  0
   10.0172   -4.4740   17.4101 C   0  0  0  0  0  0  0  0  0  0  0  0
    6.9051   -7.9575   16.4222 C   0  0  0  0  0  0  0  0  0  0  0  0
    8.9969   -6.3552   17.9668 N   0  0  0  0  0  0  0  0  0  0  0  0
   10.6702   -3.9051   22.4070 C   0  0  0  0  0  0  0  0  0  0  0  0
   11.0625   -3.0028   18.8894 C   0  0  0  0  0  0  0  0  0  0  0  0
    5.6180   -7.9194   16.1754 O   0  0  0  0  0  0  0  0  0  0  0  0
    9.7259   -5.3080   18.4485 C   0  0  0  0  0  0  0  0  0  0  0  0
    9.4578   -5.0200   16.3036 N   0  0  0  0  0  0  0  0  0  0  0  0
    5.0287   -8.9365   16.8223 C   0  0  0  0  0  0  0  0  0  0  0  0
    8.7742   -6.1498   16.6764 C   0  0  0  0  0  0  0  0  0  0  0  0
   10.9418   -3.4032   21.2053 O   0  0  0  0  0  0  0  0  0  0  0  0
    1.4797   -8.6258   16.2950 C   0  0  0  0  0  0  0  0  0  0  0  0
    9.2861   -1.2743   25.3585 C   0  0  0  0  0  0  0  0  0  0  0  0
    1.8892  -10.3985   17.7511 N   0  0  0  0  0  0  0  0  0  0  0  0
    9.6210   -0.6952   24.0976 C   0  0  0  0  0  0  0  0  0  0  0  0
    7.0792   -9.0217   17.1429 C   0  0  0  0  0  0  0  0  0  0  0  0
    3.1713  -10.1816   17.6634 C   0  0  0  0  0  0  0  0  0  0  0  0
    2.7878   -8.3822   16.2137 C   0  0  0  0  0  0  0  0  0  0  0  0
    9.4601   -2.6590   25.6528 C   0  0  0  0  0  0  0  0  0  0  0  0
   10.1182   -1.5672   23.1165 C   0  0  0  0  0  0  0  0  0  0  0  0
    1.0552   -9.6360   17.0650 C   0  0  0  0  0  0  0  0  0  0  0  0
    3.6519   -9.1783   16.9039 C   0  0  0  0  0  0  0  0  0  0  0  0
    7.8675   -7.0096   15.9415 C   0  0  0  0  0  0  0  0  0  0  0  0
    5.9733   -9.6553   17.3832 N   0  0  0  0  0  0  0  0  0  0  0  0
   10.2411   -2.9363   23.4301 C   0  0  0  0  0  0  0  0  0  0  0  0
   10.7288   -3.8197   19.9525 C   0  0  0  0  0  0  0  0  0  0  0  0
   10.1189   -5.0054   19.6987 C   0  0  0  0  0  0  0  0  0  0  0  0
  1  3  4  0
  1  7  4  0
  2 21  4  0
  2 27  4  0
  3  9  4  0
  3 10  4  0
  4  8  4  0
  4 18  4  0
  4 25  1  0
  5  9  4  0
  5 12  4  0
  6 13  1  0
  6 27  1  0
  7 28  4  0
  8 11  4  0
  9 29  4  0
 10 12  4  0
 11 24  1  0
 11 26  4  0
 12 25  1  0
 13 28  1  0
 14 20  4  0
 14 23  4  0
 15 17  4  0
 15 21  4  0
 16 19  4  0
 16 23  4  0
 17 22  4  0
 18 26  4  0
 19 24  4  0
 20 24  4  0
 22 27  4  0
 28 29  4  0
M  END
$$$$

 Created by Python create_sdf_string function

 29 33  0  0  0  0  0  0  0  0999 V2000
   10.7215   -3.3326   17.6437 C   0  0  0  0  0  0  0  0  0  0  0  0
    9.9489   -3.4675   24.6487 N   0  0  0  0  0  0  0  0  0  0  0  0
   10.0172   -4.4740   17.4101 C   0  0  0  0  0  0  0  0  0  0  0  0
    6.9051   -7.9575   16.4222 C   0  0  0  0  0  0  0  0  0  0  0  0
    8.9969   -6.3552   17.9668 N   0  0  0  0  0  0  0  0  0  0  0  0
   10.6702   -3.9051   22.4070 C   0  0  0  0  0  0  0  0  0  0  0  0
   11.0625   -3.0028   18.8894 C   0  0  0  0  0  0  0  0  0  0  0  0
    5.6180   -7.9194   16.1754 O   0  0  0  0  0  0  0  0  0  0  0  0
    9.7259   -5.3080   18.4485 C   0  0  0  0  0  0  0  0  0  0  0  0
    9.4578   -5.0200   16.3036 N   0  0  0  0  0  0  0  0  0  0  0  0
    5.0287   -8.9365   16.8223 C   0  0  0  0  0  0  0  0  0  0  0  0
    8.7742   -6.1498   16.6764 C   0  0  0  0  0  0  0  0  0  0  0  0
   10.9418   -3.4032   21.2053 O   0  0  0  0  0  0  0  0  0  0  0  0
    1.4797   -8.6258   16.2950 C   0  0  0  0  0  0  0  0  0  0  0  0
    9.2861   -1.2743   25.3585 C   0  0  0  0  0  0  0  0  0  0  0  0
    1.8892  -10.3985   17.7511 N   0  0  0  0  0  0  0  0  0  0  0  0
    9.6210   -0.6952   24.0976 C   0  0  0  0  0  0  0  0  0  0  0  0
    7.0792   -9.0217   17.1429 C   0  0  0  0  0  0  0  0  0  0  0  0
    3.1713  -10.1816   17.6634 C   0  0  0  0  0  0  0  0  0  0  0  0
    2.7878   -8.3822   16.2137 C   0  0  0  0  0  0  0  0  0  0  0  0
    9.4601   -2.6590   25.6528 C   0  0  0  0  0  0  0  0  0  0  0  0
   10.1182   -1.5672   23.1165 C   0  0  0  0  0  0  0  0  0  0  0  0
    1.0552   -9.6360   17.0650 C   0  0  0  0  0  0  0  0  0  0  0  0
    3.6519   -9.1783   16.9039 C   0  0  0  0  0  0  0  0  0  0  0  0
    7.8675   -7.0096   15.9415 C   0  0  0  0  0  0  0  0  0  0  0  0
    5.9733   -9.6553   17.3832 N   0  0  0  0  0  0  0  0  0  0  0  0
   10.2411   -2.9363   23.4301 C   0  0  0  0  0  0  0  0  0  0  0  0
   10.7288   -3.8197   19.9525 C   0  0  0  0  0  0  0  0  0  0  0  0
   10.1189   -5.0054   19.6987 C   0  0  0  0  0  0  0  0  0  0  0  0
  1  3  4  0
  1  7  4  0
  2 21  4  0
  2 27  4  0
  3  9  4  0
  3 10  4  0
  4  8  4  0
  4 18  4  0
  4 25  1  0
  5  9  4  0
  5 12  4  0
  6 13  1  0
  6 27  1  0
  7 28  4  0
  8 11  4  0
  9 29  4  0
 10 12  4  0
 11 24  1  0
 11 26  4  0
 12 25  1  0
 13 28  1  0
 14 20  4  0
 14 23  4  0
 15 17  4  0
 15 21  4  0
 16 19  4  0
 16 23  4  0
 17 22  4  0
 18 26  4  0
 19 24  4  0
 20 24  4  0
 22 27  4  0
 28 29  4  0
M  END
$$$$

 Created by Python create_sdf_string function

 29 33  0  0  0  0  0  0  0  0999 V2000
   10.7215   -3.3326   17.6437 C   0  0  0  0  0  0  0  0  0  0  0  0
    9.9489   -3.4675   24.6487 N   0  0  0  0  0  0  0  0  0  0  0  0
   10.0172   -4.4740   17.4101 C   0  0  0  0  0  0  0  0  0  0  0  0
    6.9051   -7.9575   16.4222 C   0  0  0  0  0  0  0  0  0  0  0  0
    8.9969   -6.3552   17.9668 N   0  0  0  0  0  0  0  0  0  0  0  0
   10.6702   -3.9051   22.4070 C   0  0  0  0  0  0  0  0  0  0  0  0
   11.0625   -3.0028   18.8894 C   0  0  0  0  0  0  0  0  0  0  0  0
    5.6180   -7.9194   16.1754 O   0  0  0  0  0  0  0  0  0  0  0  0
    9.7259   -5.3080   18.4485 C   0  0  0  0  0  0  0  0  0  0  0  0
    9.4578   -5.0200   16.3036 N   0  0  0  0  0  0  0  0  0  0  0  0
    5.0287   -8.9365   16.8223 C   0  0  0  0  0  0  0  0  0  0  0  0
    8.7742   -6.1498   16.6764 C   0  0  0  0  0  0  0  0  0  0  0  0
   10.9418   -3.4032   21.2053 O   0  0  0  0  0  0  0  0  0  0  0  0
    1.4797   -8.6258   16.2950 C   0  0  0  0  0  0  0  0  0  0  0  0
    9.2861   -1.2743   25.3585 C   0  0  0  0  0  0  0  0  0  0  0  0
    1.8892  -10.3985   17.7511 N   0  0  0  0  0  0  0  0  0  0  0  0
    9.6210   -0.6952   24.0976 C   0  0  0  0  0  0  0  0  0  0  0  0
    7.0792   -9.0217   17.1429 C   0  0  0  0  0  0  0  0  0  0  0  0
    3.1713  -10.1816   17.6634 C   0  0  0  0  0  0  0  0  0  0  0  0
    2.7878   -8.3822   16.2137 C   0  0  0  0  0  0  0  0  0  0  0  0
    9.4601   -2.6590   25.6528 C   0  0  0  0  0  0  0  0  0  0  0  0
   10.1182   -1.5672   23.1165 C   0  0  0  0  0  0  0  0  0  0  0  0
    1.0552   -9.6360   17.0650 C   0  0  0  0  0  0  0  0  0  0  0  0
    3.6519   -9.1783   16.9039 C   0  0  0  0  0  0  0  0  0  0  0  0
    7.8675   -7.0096   15.9415 C   0  0  0  0  0  0  0  0  0  0  0  0
    5.9733   -9.6553   17.3832 N   0  0  0  0  0  0  0  0  0  0  0  0
   10.2411   -2.9363   23.4301 C   0  0  0  0  0  0  0  0  0  0  0  0
   10.7288   -3.8197   19.9525 C   0  0  0  0  0  0  0  0  0  0  0  0
   10.1189   -5.0054   19.6987 C   0  0  0  0  0  0  0  0  0  0  0  0
  1  3  4  0
  1  7  4  0
  2 21  4  0
  2 27  4  0
  3  9  4  0
  3 10  4  0
  4  8  4  0
  4 18  4  0
  4 25  1  0
  5  9  4  0
  5 12  4  0
  6 13  1  0
  6 27  1  0
  7 28  4  0
  8 11  4  0
  9 29  4  0
 10 12  4  0
 11 24  1  0
 11 26  4  0
 12 25  1  0
 13 28  1  0
 14 20  4  0
 14 23  4  0
 15 17  4  0
 15 21  4  0
 16 19  4  0
 16 23  4  0
 17 22  4  0
 18 26  4  0
 19 24  4  0
 20 24  4  0
 22 27  4  0
 28 29  4  0
M  END
$$$$

 Created by Python create_sdf_string function

 29 33  0  0  0  0  0  0  0  0999 V2000
   10.7215   -3.3326   17.6437 C   0  0  0  0  0  0  0  0  0  0  0  0
    9.9489   -3.4675   24.6487 N   0  0  0  0  0  0  0  0  0  0  0  0
   10.0172   -4.4740   17.4101 C   0  0  0  0  0  0  0  0  0  0  0  0
    6.9051   -7.9575   16.4222 C   0  0  0  0  0  0  0  0  0  0  0  0
    8.9969   -6.3552   17.9668 N   0  0  0  0  0  0  0  0  0  0  0  0
   10.6702   -3.9051   22.4070 C   0  0  0  0  0  0  0  0  0  0  0  0
   11.0625   -3.0028   18.8894 C   0  0  0  0  0  0  0  0  0  0  0  0
    5.6180   -7.9194   16.1754 O   0  0  0  0  0  0  0  0  0  0  0  0
    9.7259   -5.3080   18.4485 C   0  0  0  0  0  0  0  0  0  0  0  0
    9.4578   -5.0200   16.3036 N   0  0  0  0  0  0  0  0  0  0  0  0
    5.0287   -8.9365   16.8223 C   0  0  0  0  0  0  0  0  0  0  0  0
    8.7742   -6.1498   16.6764 C   0  0  0  0  0  0  0  0  0  0  0  0
   10.9418   -3.4032   21.2053 O   0  0  0  0  0  0  0  0  0  0  0  0
    1.4797   -8.6258   16.2950 C   0  0  0  0  0  0  0  0  0  0  0  0
    9.2861   -1.2743   25.3585 C   0  0  0  0  0  0  0  0  0  0  0  0
    1.8892  -10.3985   17.7511 N   0  0  0  0  0  0  0  0  0  0  0  0
    9.6210   -0.6952   24.0976 C   0  0  0  0  0  0  0  0  0  0  0  0
    7.0792   -9.0217   17.1429 C   0  0  0  0  0  0  0  0  0  0  0  0
    3.1713  -10.1816   17.6634 C   0  0  0  0  0  0  0  0  0  0  0  0
    2.7878   -8.3822   16.2137 C   0  0  0  0  0  0  0  0  0  0  0  0
    9.4601   -2.6590   25.6528 C   0  0  0  0  0  0  0  0  0  0  0  0
   10.1182   -1.5672   23.1165 C   0  0  0  0  0  0  0  0  0  0  0  0
    1.0552   -9.6360   17.0650 C   0  0  0  0  0  0  0  0  0  0  0  0
    3.6519   -9.1783   16.9039 C   0  0  0  0  0  0  0  0  0  0  0  0
    7.8675   -7.0096   15.9415 C   0  0  0  0  0  0  0  0  0  0  0  0
    5.9733   -9.6553   17.3832 N   0  0  0  0  0  0  0  0  0  0  0  0
   10.2411   -2.9363   23.4301 C   0  0  0  0  0  0  0  0  0  0  0  0
   10.7288   -3.8197   19.9525 C   0  0  0  0  0  0  0  0  0  0  0  0
   10.1189   -5.0054   19.6987 C   0  0  0  0  0  0  0  0  0  0  0  0
  1  3  4  0
  1  7  4  0
  2 21  4  0
  2 27  4  0
  3  9  4  0
  3 10  4  0
  4  8  4  0
  4 18  4  0
  4 25  1  0
  5  9  4  0
  5 12  4  0
  6 13  1  0
  6 27  1  0
  7 28  4  0
  8 11  4  0
  9 29  4  0
 10 12  4  0
 11 24  1  0
 11 26  4  0
 12 25  1  0
 13 28  1  0
 14 20  4  0
 14 23  4  0
 15 17  4  0
 15 21  4  0
 16 19  4  0
 16 23  4  0
 17 22  4  0
 18 26  4  0
 19 24  4  0
 20 24  4  0
 22 27  4  0
 28 29  4  0
M  END
$$$$

 Created by Python create_sdf_string function

 29 33  0  0  0  0  0  0  0  0999 V2000
   10.7215   -3.3326   17.6437 C   0  0  0  0  0  0  0  0  0  0  0  0
    9.9489   -3.4675   24.6487 N   0  0  0  0  0  0  0  0  0  0  0  0
   10.0172   -4.4740   17.4101 C   0  0  0  0  0  0  0  0  0  0  0  0
    6.9051   -7.9575   16.4222 C   0  0  0  0  0  0  0  0  0  0  0  0
    8.9969   -6.3552   17.9668 N   0  0  0  0  0  0  0  0  0  0  0  0
   10.6702   -3.9051   22.4070 C   0  0  0  0  0  0  0  0  0  0  0  0
   11.0625   -3.0028   18.8894 C   0  0  0  0  0  0  0  0  0  0  0  0
    5.6180   -7.9194   16.1754 O   0  0  0  0  0  0  0  0  0  0  0  0
    9.7259   -5.3080   18.4485 C   0  0  0  0  0  0  0  0  0  0  0  0
    9.4578   -5.0200   16.3036 N   0  0  0  0  0  0  0  0  0  0  0  0
    5.0287   -8.9365   16.8223 C   0  0  0  0  0  0  0  0  0  0  0  0
    8.7742   -6.1498   16.6764 C   0  0  0  0  0  0  0  0  0  0  0  0
   10.9418   -3.4032   21.2053 O   0  0  0  0  0  0  0  0  0  0  0  0
    1.4797   -8.6258   16.2950 C   0  0  0  0  0  0  0  0  0  0  0  0
    9.2861   -1.2743   25.3585 C   0  0  0  0  0  0  0  0  0  0  0  0
    1.8892  -10.3985   17.7511 N   0  0  0  0  0  0  0  0  0  0  0  0
    9.6210   -0.6952   24.0976 C   0  0  0  0  0  0  0  0  0  0  0  0
    7.0792   -9.0217   17.1429 C   0  0  0  0  0  0  0  0  0  0  0  0
    3.1713  -10.1816   17.6634 C   0  0  0  0  0  0  0  0  0  0  0  0
    2.7878   -8.3822   16.2137 C   0  0  0  0  0  0  0  0  0  0  0  0
    9.4601   -2.6590   25.6528 C   0  0  0  0  0  0  0  0  0  0  0  0
   10.1182   -1.5672   23.1165 C   0  0  0  0  0  0  0  0  0  0  0  0
    1.0552   -9.6360   17.0650 C   0  0  0  0  0  0  0  0  0  0  0  0
    3.6519   -9.1783   16.9039 C   0  0  0  0  0  0  0  0  0  0  0  0
    7.8675   -7.0096   15.9415 C   0  0  0  0  0  0  0  0  0  0  0  0
    5.9733   -9.6553   17.3832 N   0  0  0  0  0  0  0  0  0  0  0  0
   10.2411   -2.9363   23.4301 C   0  0  0  0  0  0  0  0  0  0  0  0
   10.7288   -3.8197   19.9525 C   0  0  0  0  0  0  0  0  0  0  0  0
   10.1189   -5.0054   19.6987 C   0  0  0  0  0  0  0  0  0  0  0  0
  1  3  4  0
  1  7  4  0
  2 21  4  0
  2 27  4  0
  3  9  4  0
  3 10  4  0
  4  8  4  0
  4 18  4  0
  4 25  1  0
  5  9  4  0
  5 12  4  0
  6 13  1  0
  6 27  1  0
  7 28  4  0
  8 11  4  0
  9 29  4  0
 10 12  4  0
 11 24  1  0
 11 26  4  0
 12 25  1  0
 13 28  1  0
 14 20  4  0
 14 23  4  0
 15 17  4  0
 15 21  4  0
 16 19  4  0
 16 23  4  0
 17 22  4  0
 18 26  4  0
 19 24  4  0
 20 24  4  0
 22 27  4  0
 28 29  4  0
M  END
$$$$

 Created by Python create_sdf_string function

 29 33  0  0  0  0  0  0  0  0999 V2000
   10.7215   -3.3326   17.6437 C   0  0  0  0  0  0  0  0  0  0  0  0
    9.9489   -3.4675   24.6487 N   0  0  0  0  0  0  0  0  0  0  0  0
   10.0172   -4.4740   17.4101 C   0  0  0  0  0  0  0  0  0  0  0  0
    6.9051   -7.9575   16.4222 C   0  0  0  0  0  0  0  0  0  0  0  0
    8.9969   -6.3552   17.9668 N   0  0  0  0  0  0  0  0  0  0  0  0
   10.6702   -3.9051   22.4070 C   0  0  0  0  0  0  0  0  0  0  0  0
   11.0625   -3.0028   18.8894 C   0  0  0  0  0  0  0  0  0  0  0  0
    5.6180   -7.9194   16.1754 O   0  0  0  0  0  0  0  0  0  0  0  0
    9.7259   -5.3080   18.4485 C   0  0  0  0  0  0  0  0  0  0  0  0
    9.4578   -5.0200   16.3036 N   0  0  0  0  0  0  0  0  0  0  0  0
    5.0287   -8.9365   16.8223 C   0  0  0  0  0  0  0  0  0  0  0  0
    8.7742   -6.1498   16.6764 C   0  0  0  0  0  0  0  0  0  0  0  0
   10.9418   -3.4032   21.2053 O   0  0  0  0  0  0  0  0  0  0  0  0
    1.4797   -8.6258   16.2950 C   0  0  0  0  0  0  0  0  0  0  0  0
    9.2861   -1.2743   25.3585 C   0  0  0  0  0  0  0  0  0  0  0  0
    1.8892  -10.3985   17.7511 N   0  0  0  0  0  0  0  0  0  0  0  0
    9.6210   -0.6952   24.0976 C   0  0  0  0  0  0  0  0  0  0  0  0
    7.0792   -9.0217   17.1429 C   0  0  0  0  0  0  0  0  0  0  0  0
    3.1713  -10.1816   17.6634 C   0  0  0  0  0  0  0  0  0  0  0  0
    2.7878   -8.3822   16.2137 C   0  0  0  0  0  0  0  0  0  0  0  0
    9.4601   -2.6590   25.6528 C   0  0  0  0  0  0  0  0  0  0  0  0
   10.1182   -1.5672   23.1165 C   0  0  0  0  0  0  0  0  0  0  0  0
    1.0552   -9.6360   17.0650 C   0  0  0  0  0  0  0  0  0  0  0  0
    3.6519   -9.1783   16.9039 C   0  0  0  0  0  0  0  0  0  0  0  0
    7.8675   -7.0096   15.9415 C   0  0  0  0  0  0  0  0  0  0  0  0
    5.9733   -9.6553   17.3832 N   0  0  0  0  0  0  0  0  0  0  0  0
   10.2411   -2.9363   23.4301 C   0  0  0  0  0  0  0  0  0  0  0  0
   10.7288   -3.8197   19.9525 C   0  0  0  0  0  0  0  0  0  0  0  0
   10.1189   -5.0054   19.6987 C   0  0  0  0  0  0  0  0  0  0  0  0
  1  3  4  0
  1  7  4  0
  2 21  4  0
  2 27  4  0
  3  9  4  0
  3 10  4  0
  4  8  4  0
  4 18  4  0
  4 25  1  0
  5  9  4  0
  5 12  4  0
  6 13  1  0
  6 27  1  0
  7 28  4  0
  8 11  4  0
  9 29  4  0
 10 12  4  0
 11 24  1  0
 11 26  4  0
 12 25  1  0
 13 28  1  0
 14 20  4  0
 14 23  4  0
 15 17  4  0
 15 21  4  0
 16 19  4  0
 16 23  4  0
 17 22  4  0
 18 26  4  0
 19 24  4  0
 20 24  4  0
 22 27  4  0
 28 29  4  0
M  END
$$$$

 Created by Python create_sdf_string function

 29 33  0  0  0  0  0  0  0  0999 V2000
   10.7215   -3.3326   17.6437 C   0  0  0  0  0  0  0  0  0  0  0  0
    9.9489   -3.4675   24.6487 N   0  0  0  0  0  0  0  0  0  0  0  0
   10.0172   -4.4740   17.4101 C   0  0  0  0  0  0  0  0  0  0  0  0
    6.9051   -7.9575   16.4222 C   0  0  0  0  0  0  0  0  0  0  0  0
    8.9969   -6.3552   17.9668 N   0  0  0  0  0  0  0  0  0  0  0  0
   10.6702   -3.9051   22.4070 C   0  0  0  0  0  0  0  0  0  0  0  0
   11.0625   -3.0028   18.8894 C   0  0  0  0  0  0  0  0  0  0  0  0
    5.6180   -7.9194   16.1754 O   0  0  0  0  0  0  0  0  0  0  0  0
    9.7259   -5.3080   18.4485 C   0  0  0  0  0  0  0  0  0  0  0  0
    9.4578   -5.0200   16.3036 N   0  0  0  0  0  0  0  0  0  0  0  0
    5.0287   -8.9365   16.8223 C   0  0  0  0  0  0  0  0  0  0  0  0
    8.7742   -6.1498   16.6764 C   0  0  0  0  0  0  0  0  0  0  0  0
   10.9418   -3.4032   21.2053 O   0  0  0  0  0  0  0  0  0  0  0  0
    1.4797   -8.6258   16.2950 C   0  0  0  0  0  0  0  0  0  0  0  0
    9.2861   -1.2743   25.3585 C   0  0  0  0  0  0  0  0  0  0  0  0
    1.8892  -10.3985   17.7511 N   0  0  0  0  0  0  0  0  0  0  0  0
    9.6210   -0.6952   24.0976 C   0  0  0  0  0  0  0  0  0  0  0  0
    7.0792   -9.0217   17.1429 C   0  0  0  0  0  0  0  0  0  0  0  0
    3.1713  -10.1816   17.6634 C   0  0  0  0  0  0  0  0  0  0  0  0
    2.7878   -8.3822   16.2137 C   0  0  0  0  0  0  0  0  0  0  0  0
    9.4601   -2.6590   25.6528 C   0  0  0  0  0  0  0  0  0  0  0  0
   10.1182   -1.5672   23.1165 C   0  0  0  0  0  0  0  0  0  0  0  0
    1.0552   -9.6360   17.0650 C   0  0  0  0  0  0  0  0  0  0  0  0
    3.6519   -9.1783   16.9039 C   0  0  0  0  0  0  0  0  0  0  0  0
    7.8675   -7.0096   15.9415 C   0  0  0  0  0  0  0  0  0  0  0  0
    5.9733   -9.6553   17.3832 N   0  0  0  0  0  0  0  0  0  0  0  0
   10.2411   -2.9363   23.4301 C   0  0  0  0  0  0  0  0  0  0  0  0
   10.7288   -3.8197   19.9525 C   0  0  0  0  0  0  0  0  0  0  0  0
   10.1189   -5.0054   19.6987 C   0  0  0  0  0  0  0  0  0  0  0  0
  1  3  4  0
  1  7  4  0
  2 21  4  0
  2 27  4  0
  3  9  4  0
  3 10  4  0
  4  8  4  0
  4 18  4  0
  4 25  1  0
  5  9  4  0
  5 12  4  0
  6 13  1  0
  6 27  1  0
  7 28  4  0
  8 11  4  0
  9 29  4  0
 10 12  4  0
 11 24  1  0
 11 26  4  0
 12 25  1  0
 13 28  1  0
 14 20  4  0
 14 23  4  0
 15 17  4  0
 15 21  4  0
 16 19  4  0
 16 23  4  0
 17 22  4  0
 18 26  4  0
 19 24  4  0
 20 24  4  0
 22 27  4  0
 28 29  4  0
M  END
$$$$

 Created by Python create_sdf_string function

 29 33  0  0  0  0  0  0  0  0999 V2000
   10.7215   -3.3326   17.6437 C   0  0  0  0  0  0  0  0  0  0  0  0
    9.9489   -3.4675   24.6487 N   0  0  0  0  0  0  0  0  0  0  0  0
   10.0172   -4.4740   17.4101 C   0  0  0  0  0  0  0  0  0  0  0  0
    6.9051   -7.9575   16.4222 C   0  0  0  0  0  0  0  0  0  0  0  0
    8.9969   -6.3552   17.9668 N   0  0  0  0  0  0  0  0  0  0  0  0
   10.6702   -3.9051   22.4070 C   0  0  0  0  0  0  0  0  0  0  0  0
   11.0625   -3.0028   18.8894 C   0  0  0  0  0  0  0  0  0  0  0  0
    5.6180   -7.9194   16.1754 O   0  0  0  0  0  0  0  0  0  0  0  0
    9.7259   -5.3080   18.4485 C   0  0  0  0  0  0  0  0  0  0  0  0
    9.4578   -5.0200   16.3036 N   0  0  0  0  0  0  0  0  0  0  0  0
    5.0287   -8.9365   16.8223 C   0  0  0  0  0  0  0  0  0  0  0  0
    8.7742   -6.1498   16.6764 C   0  0  0  0  0  0  0  0  0  0  0  0
   10.9418   -3.4032   21.2053 O   0  0  0  0  0  0  0  0  0  0  0  0
    1.4797   -8.6258   16.2950 C   0  0  0  0  0  0  0  0  0  0  0  0
    9.2861   -1.2743   25.3585 C   0  0  0  0  0  0  0  0  0  0  0  0
    1.8892  -10.3985   17.7511 N   0  0  0  0  0  0  0  0  0  0  0  0
    9.6210   -0.6952   24.0976 C   0  0  0  0  0  0  0  0  0  0  0  0
    7.0792   -9.0217   17.1429 C   0  0  0  0  0  0  0  0  0  0  0  0
    3.1713  -10.1816   17.6634 C   0  0  0  0  0  0  0  0  0  0  0  0
    2.7878   -8.3822   16.2137 C   0  0  0  0  0  0  0  0  0  0  0  0
    9.4601   -2.6590   25.6528 C   0  0  0  0  0  0  0  0  0  0  0  0
   10.1182   -1.5672   23.1165 C   0  0  0  0  0  0  0  0  0  0  0  0
    1.0552   -9.6360   17.0650 C   0  0  0  0  0  0  0  0  0  0  0  0
    3.6519   -9.1783   16.9039 C   0  0  0  0  0  0  0  0  0  0  0  0
    7.8675   -7.0096   15.9415 C   0  0  0  0  0  0  0  0  0  0  0  0
    5.9733   -9.6553   17.3832 N   0  0  0  0  0  0  0  0  0  0  0  0
   10.2411   -2.9363   23.4301 C   0  0  0  0  0  0  0  0  0  0  0  0
   10.7288   -3.8197   19.9525 C   0  0  0  0  0  0  0  0  0  0  0  0
   10.1189   -5.0054   19.6987 C   0  0  0  0  0  0  0  0  0  0  0  0
  1  3  4  0
  1  7  4  0
  2 21  4  0
  2 27  4  0
  3  9  4  0
  3 10  4  0
  4  8  4  0
  4 18  4  0
  4 25  1  0
  5  9  4  0
  5 12  4  0
  6 13  1  0
  6 27  1  0
  7 28  4  0
  8 11  4  0
  9 29  4  0
 10 12  4  0
 11 24  1  0
 11 26  4  0
 12 25  1  0
 13 28  1  0
 14 20  4  0
 14 23  4  0
 15 17  4  0
 15 21  4  0
 16 19  4  0
 16 23  4  0
 17 22  4  0
 18 26  4  0
 19 24  4  0
 20 24  4  0
 22 27  4  0
 28 29  4  0
M  END
$$$$

 Created by Python create_sdf_string function

 29 33  0  0  0  0  0  0  0  0999 V2000
   10.7215   -3.3326   17.6437 C   0  0  0  0  0  0  0  0  0  0  0  0
    9.9489   -3.4675   24.6487 N   0  0  0  0  0  0  0  0  0  0  0  0
   10.0172   -4.4740   17.4101 C   0  0  0  0  0  0  0  0  0  0  0  0
    6.9051   -7.9575   16.4222 C   0  0  0  0  0  0  0  0  0  0  0  0
    8.9969   -6.3552   17.9668 N   0  0  0  0  0  0  0  0  0  0  0  0
   10.6702   -3.9051   22.4070 C   0  0  0  0  0  0  0  0  0  0  0  0
   11.0625   -3.0028   18.8894 C   0  0  0  0  0  0  0  0  0  0  0  0
    5.6180   -7.9194   16.1754 O   0  0  0  0  0  0  0  0  0  0  0  0
    9.7259   -5.3080   18.4485 C   0  0  0  0  0  0  0  0  0  0  0  0
    9.4578   -5.0200   16.3036 N   0  0  0  0  0  0  0  0  0  0  0  0
    5.0287   -8.9365   16.8223 C   0  0  0  0  0  0  0  0  0  0  0  0
    8.7742   -6.1498   16.6764 C   0  0  0  0  0  0  0  0  0  0  0  0
   10.9418   -3.4032   21.2053 O   0  0  0  0  0  0  0  0  0  0  0  0
    1.4797   -8.6258   16.2950 C   0  0  0  0  0  0  0  0  0  0  0  0
    9.2861   -1.2743   25.3585 C   0  0  0  0  0  0  0  0  0  0  0  0
    1.8892  -10.3985   17.7511 N   0  0  0  0  0  0  0  0  0  0  0  0
    9.6210   -0.6952   24.0976 C   0  0  0  0  0  0  0  0  0  0  0  0
    7.0792   -9.0217   17.1429 C   0  0  0  0  0  0  0  0  0  0  0  0
    3.1713  -10.1816   17.6634 C   0  0  0  0  0  0  0  0  0  0  0  0
    2.7878   -8.3822   16.2137 C   0  0  0  0  0  0  0  0  0  0  0  0
    9.4601   -2.6590   25.6528 C   0  0  0  0  0  0  0  0  0  0  0  0
   10.1182   -1.5672   23.1165 C   0  0  0  0  0  0  0  0  0  0  0  0
    1.0552   -9.6360   17.0650 C   0  0  0  0  0  0  0  0  0  0  0  0
    3.6519   -9.1783   16.9039 C   0  0  0  0  0  0  0  0  0  0  0  0
    7.8675   -7.0096   15.9415 C   0  0  0  0  0  0  0  0  0  0  0  0
    5.9733   -9.6553   17.3832 N   0  0  0  0  0  0  0  0  0  0  0  0
   10.2411   -2.9363   23.4301 C   0  0  0  0  0  0  0  0  0  0  0  0
   10.7288   -3.8197   19.9525 C   0  0  0  0  0  0  0  0  0  0  0  0
   10.1189   -5.0054   19.6987 C   0  0  0  0  0  0  0  0  0  0  0  0
  1  3  4  0
  1  7  4  0
  2 21  4  0
  2 27  4  0
  3  9  4  0
  3 10  4  0
  4  8  4  0
  4 18  4  0
  4 25  1  0
  5  9  4  0
  5 12  4  0
  6 13  1  0
  6 27  1  0
  7 28  4  0
  8 11  4  0
  9 29  4  0
 10 12  4  0
 11 24  1  0
 11 26  4  0
 12 25  1  0
 13 28  1  0
 14 20  4  0
 14 23  4  0
 15 17  4  0
 15 21  4  0
 16 19  4  0
 16 23  4  0
 17 22  4  0
 18 26  4  0
 19 24  4  0
 20 24  4  0
 22 27  4  0
 28 29  4  0
M  END
$$$$

 Created by Python create_sdf_string function

 29 33  0  0  0  0  0  0  0  0999 V2000
   10.7215   -3.3326   17.6437 C   0  0  0  0  0  0  0  0  0  0  0  0
    9.9489   -3.4675   24.6487 N   0  0  0  0  0  0  0  0  0  0  0  0
   10.0172   -4.4740   17.4101 C   0  0  0  0  0  0  0  0  0  0  0  0
    6.9051   -7.9575   16.4222 C   0  0  0  0  0  0  0  0  0  0  0  0
    8.9969   -6.3552   17.9668 N   0  0  0  0  0  0  0  0  0  0  0  0
   10.6702   -3.9051   22.4070 C   0  0  0  0  0  0  0  0  0  0  0  0
   11.0625   -3.0028   18.8894 C   0  0  0  0  0  0  0  0  0  0  0  0
    5.6180   -7.9194   16.1754 O   0  0  0  0  0  0  0  0  0  0  0  0
    9.7259   -5.3080   18.4485 C   0  0  0  0  0  0  0  0  0  0  0  0
    9.4578   -5.0200   16.3036 N   0  0  0  0  0  0  0  0  0  0  0  0
    5.0287   -8.9365   16.8223 C   0  0  0  0  0  0  0  0  0  0  0  0
    8.7742   -6.1498   16.6764 C   0  0  0  0  0  0  0  0  0  0  0  0
   10.9418   -3.4032   21.2053 O   0  0  0  0  0  0  0  0  0  0  0  0
    1.4797   -8.6258   16.2950 C   0  0  0  0  0  0  0  0  0  0  0  0
    9.2861   -1.2743   25.3585 C   0  0  0  0  0  0  0  0  0  0  0  0
    1.8892  -10.3985   17.7511 N   0  0  0  0  0  0  0  0  0  0  0  0
    9.6210   -0.6952   24.0976 C   0  0  0  0  0  0  0  0  0  0  0  0
    7.0792   -9.0217   17.1429 C   0  0  0  0  0  0  0  0  0  0  0  0
    3.1713  -10.1816   17.6634 C   0  0  0  0  0  0  0  0  0  0  0  0
    2.7878   -8.3822   16.2137 C   0  0  0  0  0  0  0  0  0  0  0  0
    9.4601   -2.6590   25.6528 C   0  0  0  0  0  0  0  0  0  0  0  0
   10.1182   -1.5672   23.1165 C   0  0  0  0  0  0  0  0  0  0  0  0
    1.0552   -9.6360   17.0650 C   0  0  0  0  0  0  0  0  0  0  0  0
    3.6519   -9.1783   16.9039 C   0  0  0  0  0  0  0  0  0  0  0  0
    7.8675   -7.0096   15.9415 C   0  0  0  0  0  0  0  0  0  0  0  0
    5.9733   -9.6553   17.3832 N   0  0  0  0  0  0  0  0  0  0  0  0
   10.2411   -2.9363   23.4301 C   0  0  0  0  0  0  0  0  0  0  0  0
   10.7288   -3.8197   19.9525 C   0  0  0  0  0  0  0  0  0  0  0  0
   10.1189   -5.0054   19.6987 C   0  0  0  0  0  0  0  0  0  0  0  0
  1  3  4  0
  1  7  4  0
  2 21  4  0
  2 27  4  0
  3  9  4  0
  3 10  4  0
  4  8  4  0
  4 18  4  0
  4 25  1  0
  5  9  4  0
  5 12  4  0
  6 13  1  0
  6 27  1  0
  7 28  4  0
  8 11  4  0
  9 29  4  0
 10 12  4  0
 11 24  1  0
 11 26  4  0
 12 25  1  0
 13 28  1  0
 14 20  4  0
 14 23  4  0
 15 17  4  0
 15 21  4  0
 16 19  4  0
 16 23  4  0
 17 22  4  0
 18 26  4  0
 19 24  4  0
 20 24  4  0
 22 27  4  0
 28 29  4  0
M  END
$$$$

 Created by Python create_sdf_string function

 29 33  0  0  0  0  0  0  0  0999 V2000
   10.7215   -3.3326   17.6437 C   0  0  0  0  0  0  0  0  0  0  0  0
    9.9489   -3.4675   24.6487 N   0  0  0  0  0  0  0  0  0  0  0  0
   10.0172   -4.4740   17.4101 C   0  0  0  0  0  0  0  0  0  0  0  0
    6.9051   -7.9575   16.4222 C   0  0  0  0  0  0  0  0  0  0  0  0
    8.9969   -6.3552   17.9668 N   0  0  0  0  0  0  0  0  0  0  0  0
   10.6702   -3.9051   22.4070 C   0  0  0  0  0  0  0  0  0  0  0  0
   11.0625   -3.0028   18.8894 C   0  0  0  0  0  0  0  0  0  0  0  0
    5.6180   -7.9194   16.1754 O   0  0  0  0  0  0  0  0  0  0  0  0
    9.7259   -5.3080   18.4485 C   0  0  0  0  0  0  0  0  0  0  0  0
    9.4578   -5.0200   16.3036 N   0  0  0  0  0  0  0  0  0  0  0  0
    5.0287   -8.9365   16.8223 C   0  0  0  0  0  0  0  0  0  0  0  0
    8.7742   -6.1498   16.6764 C   0  0  0  0  0  0  0  0  0  0  0  0
   10.9418   -3.4032   21.2053 O   0  0  0  0  0  0  0  0  0  0  0  0
    1.4797   -8.6258   16.2950 C   0  0  0  0  0  0  0  0  0  0  0  0
    9.2861   -1.2743   25.3585 C   0  0  0  0  0  0  0  0  0  0  0  0
    1.8892  -10.3985   17.7511 N   0  0  0  0  0  0  0  0  0  0  0  0
    9.6210   -0.6952   24.0976 C   0  0  0  0  0  0  0  0  0  0  0  0
    7.0792   -9.0217   17.1429 C   0  0  0  0  0  0  0  0  0  0  0  0
    3.1713  -10.1816   17.6634 C   0  0  0  0  0  0  0  0  0  0  0  0
    2.7878   -8.3822   16.2137 C   0  0  0  0  0  0  0  0  0  0  0  0
    9.4601   -2.6590   25.6528 C   0  0  0  0  0  0  0  0  0  0  0  0
   10.1182   -1.5672   23.1165 C   0  0  0  0  0  0  0  0  0  0  0  0
    1.0552   -9.6360   17.0650 C   0  0  0  0  0  0  0  0  0  0  0  0
    3.6519   -9.1783   16.9039 C   0  0  0  0  0  0  0  0  0  0  0  0
    7.8675   -7.0096   15.9415 C   0  0  0  0  0  0  0  0  0  0  0  0
    5.9733   -9.6553   17.3832 N   0  0  0  0  0  0  0  0  0  0  0  0
   10.2411   -2.9363   23.4301 C   0  0  0  0  0  0  0  0  0  0  0  0
   10.7288   -3.8197   19.9525 C   0  0  0  0  0  0  0  0  0  0  0  0
   10.1189   -5.0054   19.6987 C   0  0  0  0  0  0  0  0  0  0  0  0
  1  3  4  0
  1  7  4  0
  2 21  4  0
  2 27  4  0
  3  9  4  0
  3 10  4  0
  4  8  4  0
  4 18  4  0
  4 25  1  0
  5  9  4  0
  5 12  4  0
  6 13  1  0
  6 27  1  0
  7 28  4  0
  8 11  4  0
  9 29  4  0
 10 12  4  0
 11 24  1  0
 11 26  4  0
 12 25  1  0
 13 28  1  0
 14 20  4  0
 14 23  4  0
 15 17  4  0
 15 21  4  0
 16 19  4  0
 16 23  4  0
 17 22  4  0
 18 26  4  0
 19 24  4  0
 20 24  4  0
 22 27  4  0
 28 29  4  0
M  END
$$$$

 Created by Python create_sdf_string function

 29 33  0  0  0  0  0  0  0  0999 V2000
   10.7215   -3.3326   17.6437 C   0  0  0  0  0  0  0  0  0  0  0  0
    9.9489   -3.4675   24.6487 N   0  0  0  0  0  0  0  0  0  0  0  0
   10.0172   -4.4740   17.4101 C   0  0  0  0  0  0  0  0  0  0  0  0
    6.9051   -7.9575   16.4222 C   0  0  0  0  0  0  0  0  0  0  0  0
    8.9969   -6.3552   17.9668 N   0  0  0  0  0  0  0  0  0  0  0  0
   10.6702   -3.9051   22.4070 C   0  0  0  0  0  0  0  0  0  0  0  0
   11.0625   -3.0028   18.8894 C   0  0  0  0  0  0  0  0  0  0  0  0
    5.6180   -7.9194   16.1754 O   0  0  0  0  0  0  0  0  0  0  0  0
    9.7259   -5.3080   18.4485 C   0  0  0  0  0  0  0  0  0  0  0  0
    9.4578   -5.0200   16.3036 N   0  0  0  0  0  0  0  0  0  0  0  0
    5.0287   -8.9365   16.8223 C   0  0  0  0  0  0  0  0  0  0  0  0
    8.7742   -6.1498   16.6764 C   0  0  0  0  0  0  0  0  0  0  0  0
   10.9418   -3.4032   21.2053 O   0  0  0  0  0  0  0  0  0  0  0  0
    1.4797   -8.6258   16.2950 C   0  0  0  0  0  0  0  0  0  0  0  0
    9.2861   -1.2743   25.3585 C   0  0  0  0  0  0  0  0  0  0  0  0
    1.8892  -10.3985   17.7511 N   0  0  0  0  0  0  0  0  0  0  0  0
    9.6210   -0.6952   24.0976 C   0  0  0  0  0  0  0  0  0  0  0  0
    7.0792   -9.0217   17.1429 C   0  0  0  0  0  0  0  0  0  0  0  0
    3.1713  -10.1816   17.6634 C   0  0  0  0  0  0  0  0  0  0  0  0
    2.7878   -8.3822   16.2137 C   0  0  0  0  0  0  0  0  0  0  0  0
    9.4601   -2.6590   25.6528 C   0  0  0  0  0  0  0  0  0  0  0  0
   10.1182   -1.5672   23.1165 C   0  0  0  0  0  0  0  0  0  0  0  0
    1.0552   -9.6360   17.0650 C   0  0  0  0  0  0  0  0  0  0  0  0
    3.6519   -9.1783   16.9039 C   0  0  0  0  0  0  0  0  0  0  0  0
    7.8675   -7.0096   15.9415 C   0  0  0  0  0  0  0  0  0  0  0  0
    5.9733   -9.6553   17.3832 N   0  0  0  0  0  0  0  0  0  0  0  0
   10.2411   -2.9363   23.4301 C   0  0  0  0  0  0  0  0  0  0  0  0
   10.7288   -3.8197   19.9525 C   0  0  0  0  0  0  0  0  0  0  0  0
   10.1189   -5.0054   19.6987 C   0  0  0  0  0  0  0  0  0  0  0  0
  1  3  4  0
  1  7  4  0
  2 21  4  0
  2 27  4  0
  3  9  4  0
  3 10  4  0
  4  8  4  0
  4 18  4  0
  4 25  1  0
  5  9  4  0
  5 12  4  0
  6 13  1  0
  6 27  1  0
  7 28  4  0
  8 11  4  0
  9 29  4  0
 10 12  4  0
 11 24  1  0
 11 26  4  0
 12 25  1  0
 13 28  1  0
 14 20  4  0
 14 23  4  0
 15 17  4  0
 15 21  4  0
 16 19  4  0
 16 23  4  0
 17 22  4  0
 18 26  4  0
 19 24  4  0
 20 24  4  0
 22 27  4  0
 28 29  4  0
M  END
$$$$

 Created by Python create_sdf_string function

 29 33  0  0  0  0  0  0  0  0999 V2000
   10.7215   -3.3326   17.6437 C   0  0  0  0  0  0  0  0  0  0  0  0
    9.9489   -3.4675   24.6487 N   0  0  0  0  0  0  0  0  0  0  0  0
   10.0172   -4.4740   17.4101 C   0  0  0  0  0  0  0  0  0  0  0  0
    6.9051   -7.9575   16.4222 C   0  0  0  0  0  0  0  0  0  0  0  0
    8.9969   -6.3552   17.9668 N   0  0  0  0  0  0  0  0  0  0  0  0
   10.6702   -3.9051   22.4070 C   0  0  0  0  0  0  0  0  0  0  0  0
   11.0625   -3.0028   18.8894 C   0  0  0  0  0  0  0  0  0  0  0  0
    5.6180   -7.9194   16.1754 O   0  0  0  0  0  0  0  0  0  0  0  0
    9.7259   -5.3080   18.4485 C   0  0  0  0  0  0  0  0  0  0  0  0
    9.4578   -5.0200   16.3036 N   0  0  0  0  0  0  0  0  0  0  0  0
    5.0287   -8.9365   16.8223 C   0  0  0  0  0  0  0  0  0  0  0  0
    8.7742   -6.1498   16.6764 C   0  0  0  0  0  0  0  0  0  0  0  0
   10.9418   -3.4032   21.2053 O   0  0  0  0  0  0  0  0  0  0  0  0
    1.4797   -8.6258   16.2950 C   0  0  0  0  0  0  0  0  0  0  0  0
    9.2861   -1.2743   25.3585 C   0  0  0  0  0  0  0  0  0  0  0  0
    1.8892  -10.3985   17.7511 N   0  0  0  0  0  0  0  0  0  0  0  0
    9.6210   -0.6952   24.0976 C   0  0  0  0  0  0  0  0  0  0  0  0
    7.0792   -9.0217   17.1429 C   0  0  0  0  0  0  0  0  0  0  0  0
    3.1713  -10.1816   17.6634 C   0  0  0  0  0  0  0  0  0  0  0  0
    2.7878   -8.3822   16.2137 C   0  0  0  0  0  0  0  0  0  0  0  0
    9.4601   -2.6590   25.6528 C   0  0  0  0  0  0  0  0  0  0  0  0
   10.1182   -1.5672   23.1165 C   0  0  0  0  0  0  0  0  0  0  0  0
    1.0552   -9.6360   17.0650 C   0  0  0  0  0  0  0  0  0  0  0  0
    3.6519   -9.1783   16.9039 C   0  0  0  0  0  0  0  0  0  0  0  0
    7.8675   -7.0096   15.9415 C   0  0  0  0  0  0  0  0  0  0  0  0
    5.9733   -9.6553   17.3832 N   0  0  0  0  0  0  0  0  0  0  0  0
   10.2411   -2.9363   23.4301 C   0  0  0  0  0  0  0  0  0  0  0  0
   10.7288   -3.8197   19.9525 C   0  0  0  0  0  0  0  0  0  0  0  0
   10.1189   -5.0054   19.6987 C   0  0  0  0  0  0  0  0  0  0  0  0
  1  3  4  0
  1  7  4  0
  2 21  4  0
  2 27  4  0
  3  9  4  0
  3 10  4  0
  4  8  4  0
  4 18  4  0
  4 25  1  0
  5  9  4  0
  5 12  4  0
  6 13  1  0
  6 27  1  0
  7 28  4  0
  8 11  4  0
  9 29  4  0
 10 12  4  0
 11 24  1  0
 11 26  4  0
 12 25  1  0
 13 28  1  0
 14 20  4  0
 14 23  4  0
 15 17  4  0
 15 21  4  0
 16 19  4  0
 16 23  4  0
 17 22  4  0
 18 26  4  0
 19 24  4  0
 20 24  4  0
 22 27  4  0
 28 29  4  0
M  END
$$$$

 Created by Python create_sdf_string function

 29 33  0  0  0  0  0  0  0  0999 V2000
   10.7215   -3.3326   17.6437 C   0  0  0  0  0  0  0  0  0  0  0  0
    9.9489   -3.4675   24.6487 N   0  0  0  0  0  0  0  0  0  0  0  0
   10.0172   -4.4740   17.4101 C   0  0  0  0  0  0  0  0  0  0  0  0
    6.9051   -7.9575   16.4222 C   0  0  0  0  0  0  0  0  0  0  0  0
    8.9969   -6.3552   17.9668 N   0  0  0  0  0  0  0  0  0  0  0  0
   10.6702   -3.9051   22.4070 C   0  0  0  0  0  0  0  0  0  0  0  0
   11.0625   -3.0028   18.8894 C   0  0  0  0  0  0  0  0  0  0  0  0
    5.6180   -7.9194   16.1754 O   0  0  0  0  0  0  0  0  0  0  0  0
    9.7259   -5.3080   18.4485 C   0  0  0  0  0  0  0  0  0  0  0  0
    9.4578   -5.0200   16.3036 N   0  0  0  0  0  0  0  0  0  0  0  0
    5.0287   -8.9365   16.8223 C   0  0  0  0  0  0  0  0  0  0  0  0
    8.7742   -6.1498   16.6764 C   0  0  0  0  0  0  0  0  0  0  0  0
   10.9418   -3.4032   21.2053 O   0  0  0  0  0  0  0  0  0  0  0  0
    1.4797   -8.6258   16.2950 C   0  0  0  0  0  0  0  0  0  0  0  0
    9.2861   -1.2743   25.3585 C   0  0  0  0  0  0  0  0  0  0  0  0
    1.8892  -10.3985   17.7511 N   0  0  0  0  0  0  0  0  0  0  0  0
    9.6210   -0.6952   24.0976 C   0  0  0  0  0  0  0  0  0  0  0  0
    7.0792   -9.0217   17.1429 C   0  0  0  0  0  0  0  0  0  0  0  0
    3.1713  -10.1816   17.6634 C   0  0  0  0  0  0  0  0  0  0  0  0
    2.7878   -8.3822   16.2137 C   0  0  0  0  0  0  0  0  0  0  0  0
    9.4601   -2.6590   25.6528 C   0  0  0  0  0  0  0  0  0  0  0  0
   10.1182   -1.5672   23.1165 C   0  0  0  0  0  0  0  0  0  0  0  0
    1.0552   -9.6360   17.0650 C   0  0  0  0  0  0  0  0  0  0  0  0
    3.6519   -9.1783   16.9039 C   0  0  0  0  0  0  0  0  0  0  0  0
    7.8675   -7.0096   15.9415 C   0  0  0  0  0  0  0  0  0  0  0  0
    5.9733   -9.6553   17.3832 N   0  0  0  0  0  0  0  0  0  0  0  0
   10.2411   -2.9363   23.4301 C   0  0  0  0  0  0  0  0  0  0  0  0
   10.7288   -3.8197   19.9525 C   0  0  0  0  0  0  0  0  0  0  0  0
   10.1189   -5.0054   19.6987 C   0  0  0  0  0  0  0  0  0  0  0  0
  1  3  4  0
  1  7  4  0
  2 21  4  0
  2 27  4  0
  3  9  4  0
  3 10  4  0
  4  8  4  0
  4 18  4  0
  4 25  1  0
  5  9  4  0
  5 12  4  0
  6 13  1  0
  6 27  1  0
  7 28  4  0
  8 11  4  0
  9 29  4  0
 10 12  4  0
 11 24  1  0
 11 26  4  0
 12 25  1  0
 13 28  1  0
 14 20  4  0
 14 23  4  0
 15 17  4  0
 15 21  4  0
 16 19  4  0
 16 23  4  0
 17 22  4  0
 18 26  4  0
 19 24  4  0
 20 24  4  0
 22 27  4  0
 28 29  4  0
M  END
$$$$

 Created by Python create_sdf_string function

 29 33  0  0  0  0  0  0  0  0999 V2000
   10.7215   -3.3326   17.6437 C   0  0  0  0  0  0  0  0  0  0  0  0
    9.9489   -3.4675   24.6487 N   0  0  0  0  0  0  0  0  0  0  0  0
   10.0172   -4.4740   17.4101 C   0  0  0  0  0  0  0  0  0  0  0  0
    6.9051   -7.9575   16.4222 C   0  0  0  0  0  0  0  0  0  0  0  0
    8.9969   -6.3552   17.9668 N   0  0  0  0  0  0  0  0  0  0  0  0
   10.6702   -3.9051   22.4070 C   0  0  0  0  0  0  0  0  0  0  0  0
   11.0625   -3.0028   18.8894 C   0  0  0  0  0  0  0  0  0  0  0  0
    5.6180   -7.9194   16.1754 O   0  0  0  0  0  0  0  0  0  0  0  0
    9.7259   -5.3080   18.4485 C   0  0  0  0  0  0  0  0  0  0  0  0
    9.4578   -5.0200   16.3036 N   0  0  0  0  0  0  0  0  0  0  0  0
    5.0287   -8.9365   16.8223 C   0  0  0  0  0  0  0  0  0  0  0  0
    8.7742   -6.1498   16.6764 C   0  0  0  0  0  0  0  0  0  0  0  0
   10.9418   -3.4032   21.2053 O   0  0  0  0  0  0  0  0  0  0  0  0
    1.4797   -8.6258   16.2950 C   0  0  0  0  0  0  0  0  0  0  0  0
    9.2861   -1.2743   25.3585 C   0  0  0  0  0  0  0  0  0  0  0  0
    1.8892  -10.3985   17.7511 N   0  0  0  0  0  0  0  0  0  0  0  0
    9.6210   -0.6952   24.0976 C   0  0  0  0  0  0  0  0  0  0  0  0
    7.0792   -9.0217   17.1429 C   0  0  0  0  0  0  0  0  0  0  0  0
    3.1713  -10.1816   17.6634 C   0  0  0  0  0  0  0  0  0  0  0  0
    2.7878   -8.3822   16.2137 C   0  0  0  0  0  0  0  0  0  0  0  0
    9.4601   -2.6590   25.6528 C   0  0  0  0  0  0  0  0  0  0  0  0
   10.1182   -1.5672   23.1165 C   0  0  0  0  0  0  0  0  0  0  0  0
    1.0552   -9.6360   17.0650 C   0  0  0  0  0  0  0  0  0  0  0  0
    3.6519   -9.1783   16.9039 C   0  0  0  0  0  0  0  0  0  0  0  0
    7.8675   -7.0096   15.9415 C   0  0  0  0  0  0  0  0  0  0  0  0
    5.9733   -9.6553   17.3832 N   0  0  0  0  0  0  0  0  0  0  0  0
   10.2411   -2.9363   23.4301 C   0  0  0  0  0  0  0  0  0  0  0  0
   10.7288   -3.8197   19.9525 C   0  0  0  0  0  0  0  0  0  0  0  0
   10.1189   -5.0054   19.6987 C   0  0  0  0  0  0  0  0  0  0  0  0
  1  3  4  0
  1  7  4  0
  2 21  4  0
  2 27  4  0
  3  9  4  0
  3 10  4  0
  4  8  4  0
  4 18  4  0
  4 25  1  0
  5  9  4  0
  5 12  4  0
  6 13  1  0
  6 27  1  0
  7 28  4  0
  8 11  4  0
  9 29  4  0
 10 12  4  0
 11 24  1  0
 11 26  4  0
 12 25  1  0
 13 28  1  0
 14 20  4  0
 14 23  4  0
 15 17  4  0
 15 21  4  0
 16 19  4  0
 16 23  4  0
 17 22  4  0
 18 26  4  0
 19 24  4  0
 20 24  4  0
 22 27  4  0
 28 29  4  0
M  END
$$$$

 Created by Python create_sdf_string function

 29 33  0  0  0  0  0  0  0  0999 V2000
   10.7215   -3.3326   17.6437 C   0  0  0  0  0  0  0  0  0  0  0  0
    9.9489   -3.4675   24.6487 N   0  0  0  0  0  0  0  0  0  0  0  0
   10.0172   -4.4740   17.4101 C   0  0  0  0  0  0  0  0  0  0  0  0
    6.9051   -7.9575   16.4222 C   0  0  0  0  0  0  0  0  0  0  0  0
    8.9969   -6.3552   17.9668 N   0  0  0  0  0  0  0  0  0  0  0  0
   10.6702   -3.9051   22.4070 C   0  0  0  0  0  0  0  0  0  0  0  0
   11.0625   -3.0028   18.8894 C   0  0  0  0  0  0  0  0  0  0  0  0
    5.6180   -7.9194   16.1754 O   0  0  0  0  0  0  0  0  0  0  0  0
    9.7259   -5.3080   18.4485 C   0  0  0  0  0  0  0  0  0  0  0  0
    9.4578   -5.0200   16.3036 N   0  0  0  0  0  0  0  0  0  0  0  0
    5.0287   -8.9365   16.8223 C   0  0  0  0  0  0  0  0  0  0  0  0
    8.7742   -6.1498   16.6764 C   0  0  0  0  0  0  0  0  0  0  0  0
   10.9418   -3.4032   21.2053 O   0  0  0  0  0  0  0  0  0  0  0  0
    1.4797   -8.6258   16.2950 C   0  0  0  0  0  0  0  0  0  0  0  0
    9.2861   -1.2743   25.3585 C   0  0  0  0  0  0  0  0  0  0  0  0
    1.8892  -10.3985   17.7511 N   0  0  0  0  0  0  0  0  0  0  0  0
    9.6210   -0.6952   24.0976 C   0  0  0  0  0  0  0  0  0  0  0  0
    7.0792   -9.0217   17.1429 C   0  0  0  0  0  0  0  0  0  0  0  0
    3.1713  -10.1816   17.6634 C   0  0  0  0  0  0  0  0  0  0  0  0
    2.7878   -8.3822   16.2137 C   0  0  0  0  0  0  0  0  0  0  0  0
    9.4601   -2.6590   25.6528 C   0  0  0  0  0  0  0  0  0  0  0  0
   10.1182   -1.5672   23.1165 C   0  0  0  0  0  0  0  0  0  0  0  0
    1.0552   -9.6360   17.0650 C   0  0  0  0  0  0  0  0  0  0  0  0
    3.6519   -9.1783   16.9039 C   0  0  0  0  0  0  0  0  0  0  0  0
    7.8675   -7.0096   15.9415 C   0  0  0  0  0  0  0  0  0  0  0  0
    5.9733   -9.6553   17.3832 N   0  0  0  0  0  0  0  0  0  0  0  0
   10.2411   -2.9363   23.4301 C   0  0  0  0  0  0  0  0  0  0  0  0
   10.7288   -3.8197   19.9525 C   0  0  0  0  0  0  0  0  0  0  0  0
   10.1189   -5.0054   19.6987 C   0  0  0  0  0  0  0  0  0  0  0  0
  1  3  4  0
  1  7  4  0
  2 21  4  0
  2 27  4  0
  3  9  4  0
  3 10  4  0
  4  8  4  0
  4 18  4  0
  4 25  1  0
  5  9  4  0
  5 12  4  0
  6 13  1  0
  6 27  1  0
  7 28  4  0
  8 11  4  0
  9 29  4  0
 10 12  4  0
 11 24  1  0
 11 26  4  0
 12 25  1  0
 13 28  1  0
 14 20  4  0
 14 23  4  0
 15 17  4  0
 15 21  4  0
 16 19  4  0
 16 23  4  0
 17 22  4  0
 18 26  4  0
 19 24  4  0
 20 24  4  0
 22 27  4  0
 28 29  4  0
M  END
$$$$

 Created by Python create_sdf_string function

 29 33  0  0  0  0  0  0  0  0999 V2000
   10.7215   -3.3326   17.6437 C   0  0  0  0  0  0  0  0  0  0  0  0
    9.9489   -3.4675   24.6487 N   0  0  0  0  0  0  0  0  0  0  0  0
   10.0172   -4.4740   17.4101 C   0  0  0  0  0  0  0  0  0  0  0  0
    6.9051   -7.9575   16.4222 C   0  0  0  0  0  0  0  0  0  0  0  0
    8.9969   -6.3552   17.9668 N   0  0  0  0  0  0  0  0  0  0  0  0
   10.6702   -3.9051   22.4070 C   0  0  0  0  0  0  0  0  0  0  0  0
   11.0625   -3.0028   18.8894 C   0  0  0  0  0  0  0  0  0  0  0  0
    5.6180   -7.9194   16.1754 O   0  0  0  0  0  0  0  0  0  0  0  0
    9.7259   -5.3080   18.4485 C   0  0  0  0  0  0  0  0  0  0  0  0
    9.4578   -5.0200   16.3036 N   0  0  0  0  0  0  0  0  0  0  0  0
    5.0287   -8.9365   16.8223 C   0  0  0  0  0  0  0  0  0  0  0  0
    8.7742   -6.1498   16.6764 C   0  0  0  0  0  0  0  0  0  0  0  0
   10.9418   -3.4032   21.2053 O   0  0  0  0  0  0  0  0  0  0  0  0
    1.4797   -8.6258   16.2950 C   0  0  0  0  0  0  0  0  0  0  0  0
    9.2861   -1.2743   25.3585 C   0  0  0  0  0  0  0  0  0  0  0  0
    1.8892  -10.3985   17.7511 N   0  0  0  0  0  0  0  0  0  0  0  0
    9.6210   -0.6952   24.0976 C   0  0  0  0  0  0  0  0  0  0  0  0
    7.0792   -9.0217   17.1429 C   0  0  0  0  0  0  0  0  0  0  0  0
    3.1713  -10.1816   17.6634 C   0  0  0  0  0  0  0  0  0  0  0  0
    2.7878   -8.3822   16.2137 C   0  0  0  0  0  0  0  0  0  0  0  0
    9.4601   -2.6590   25.6528 C   0  0  0  0  0  0  0  0  0  0  0  0
   10.1182   -1.5672   23.1165 C   0  0  0  0  0  0  0  0  0  0  0  0
    1.0552   -9.6360   17.0650 C   0  0  0  0  0  0  0  0  0  0  0  0
    3.6519   -9.1783   16.9039 C   0  0  0  0  0  0  0  0  0  0  0  0
    7.8675   -7.0096   15.9415 C   0  0  0  0  0  0  0  0  0  0  0  0
    5.9733   -9.6553   17.3832 N   0  0  0  0  0  0  0  0  0  0  0  0
   10.2411   -2.9363   23.4301 C   0  0  0  0  0  0  0  0  0  0  0  0
   10.7288   -3.8197   19.9525 C   0  0  0  0  0  0  0  0  0  0  0  0
   10.1189   -5.0054   19.6987 C   0  0  0  0  0  0  0  0  0  0  0  0
  1  3  4  0
  1  7  4  0
  2 21  4  0
  2 27  4  0
  3  9  4  0
  3 10  4  0
  4  8  4  0
  4 18  4  0
  4 25  1  0
  5  9  4  0
  5 12  4  0
  6 13  1  0
  6 27  1  0
  7 28  4  0
  8 11  4  0
  9 29  4  0
 10 12  4  0
 11 24  1  0
 11 26  4  0
 12 25  1  0
 13 28  1  0
 14 20  4  0
 14 23  4  0
 15 17  4  0
 15 21  4  0
 16 19  4  0
 16 23  4  0
 17 22  4  0
 18 26  4  0
 19 24  4  0
 20 24  4  0
 22 27  4  0
 28 29  4  0
M  END
$$$$

 Created by Python create_sdf_string function

 29 33  0  0  0  0  0  0  0  0999 V2000
   10.7215   -3.3326   17.6437 C   0  0  0  0  0  0  0  0  0  0  0  0
    9.9489   -3.4675   24.6487 N   0  0  0  0  0  0  0  0  0  0  0  0
   10.0172   -4.4740   17.4101 C   0  0  0  0  0  0  0  0  0  0  0  0
    6.9051   -7.9575   16.4222 C   0  0  0  0  0  0  0  0  0  0  0  0
    8.9969   -6.3552   17.9668 N   0  0  0  0  0  0  0  0  0  0  0  0
   10.6702   -3.9051   22.4070 C   0  0  0  0  0  0  0  0  0  0  0  0
   11.0625   -3.0028   18.8894 C   0  0  0  0  0  0  0  0  0  0  0  0
    5.6180   -7.9194   16.1754 O   0  0  0  0  0  0  0  0  0  0  0  0
    9.7259   -5.3080   18.4485 C   0  0  0  0  0  0  0  0  0  0  0  0
    9.4578   -5.0200   16.3036 N   0  0  0  0  0  0  0  0  0  0  0  0
    5.0287   -8.9365   16.8223 C   0  0  0  0  0  0  0  0  0  0  0  0
    8.7742   -6.1498   16.6764 C   0  0  0  0  0  0  0  0  0  0  0  0
   10.9418   -3.4032   21.2053 O   0  0  0  0  0  0  0  0  0  0  0  0
    1.4797   -8.6258   16.2950 C   0  0  0  0  0  0  0  0  0  0  0  0
    9.2861   -1.2743   25.3585 C   0  0  0  0  0  0  0  0  0  0  0  0
    1.8892  -10.3985   17.7511 N   0  0  0  0  0  0  0  0  0  0  0  0
    9.6210   -0.6952   24.0976 C   0  0  0  0  0  0  0  0  0  0  0  0
    7.0792   -9.0217   17.1429 C   0  0  0  0  0  0  0  0  0  0  0  0
    3.1713  -10.1816   17.6634 C   0  0  0  0  0  0  0  0  0  0  0  0
    2.7878   -8.3822   16.2137 C   0  0  0  0  0  0  0  0  0  0  0  0
    9.4601   -2.6590   25.6528 C   0  0  0  0  0  0  0  0  0  0  0  0
   10.1182   -1.5672   23.1165 C   0  0  0  0  0  0  0  0  0  0  0  0
    1.0552   -9.6360   17.0650 C   0  0  0  0  0  0  0  0  0  0  0  0
    3.6519   -9.1783   16.9039 C   0  0  0  0  0  0  0  0  0  0  0  0
    7.8675   -7.0096   15.9415 C   0  0  0  0  0  0  0  0  0  0  0  0
    5.9733   -9.6553   17.3832 N   0  0  0  0  0  0  0  0  0  0  0  0
   10.2411   -2.9363   23.4301 C   0  0  0  0  0  0  0  0  0  0  0  0
   10.7288   -3.8197   19.9525 C   0  0  0  0  0  0  0  0  0  0  0  0
   10.1189   -5.0054   19.6987 C   0  0  0  0  0  0  0  0  0  0  0  0
  1  3  4  0
  1  7  4  0
  2 21  4  0
  2 27  4  0
  3  9  4  0
  3 10  4  0
  4  8  4  0
  4 18  4  0
  4 25  1  0
  5  9  4  0
  5 12  4  0
  6 13  1  0
  6 27  1  0
  7 28  4  0
  8 11  4  0
  9 29  4  0
 10 12  4  0
 11 24  1  0
 11 26  4  0
 12 25  1  0
 13 28  1  0
 14 20  4  0
 14 23  4  0
 15 17  4  0
 15 21  4  0
 16 19  4  0
 16 23  4  0
 17 22  4  0
 18 26  4  0
 19 24  4  0
 20 24  4  0
 22 27  4  0
 28 29  4  0
M  END
$$$$

 Created by Python create_sdf_string function

 29 33  0  0  0  0  0  0  0  0999 V2000
   10.7215   -3.3326   17.6437 C   0  0  0  0  0  0  0  0  0  0  0  0
    9.9489   -3.4675   24.6487 N   0  0  0  0  0  0  0  0  0  0  0  0
   10.0172   -4.4740   17.4101 C   0  0  0  0  0  0  0  0  0  0  0  0
    6.9051   -7.9575   16.4222 C   0  0  0  0  0  0  0  0  0  0  0  0
    8.9969   -6.3552   17.9668 N   0  0  0  0  0  0  0  0  0  0  0  0
   10.6702   -3.9051   22.4070 C   0  0  0  0  0  0  0  0  0  0  0  0
   11.0625   -3.0028   18.8894 C   0  0  0  0  0  0  0  0  0  0  0  0
    5.6180   -7.9194   16.1754 O   0  0  0  0  0  0  0  0  0  0  0  0
    9.7259   -5.3080   18.4485 C   0  0  0  0  0  0  0  0  0  0  0  0
    9.4578   -5.0200   16.3036 N   0  0  0  0  0  0  0  0  0  0  0  0
    5.0287   -8.9365   16.8223 C   0  0  0  0  0  0  0  0  0  0  0  0
    8.7742   -6.1498   16.6764 C   0  0  0  0  0  0  0  0  0  0  0  0
   10.9418   -3.4032   21.2053 O   0  0  0  0  0  0  0  0  0  0  0  0
    1.4797   -8.6258   16.2950 C   0  0  0  0  0  0  0  0  0  0  0  0
    9.2861   -1.2743   25.3585 C   0  0  0  0  0  0  0  0  0  0  0  0
    1.8892  -10.3985   17.7511 N   0  0  0  0  0  0  0  0  0  0  0  0
    9.6210   -0.6952   24.0976 C   0  0  0  0  0  0  0  0  0  0  0  0
    7.0792   -9.0217   17.1429 C   0  0  0  0  0  0  0  0  0  0  0  0
    3.1713  -10.1816   17.6634 C   0  0  0  0  0  0  0  0  0  0  0  0
    2.7878   -8.3822   16.2137 C   0  0  0  0  0  0  0  0  0  0  0  0
    9.4601   -2.6590   25.6528 C   0  0  0  0  0  0  0  0  0  0  0  0
   10.1182   -1.5672   23.1165 C   0  0  0  0  0  0  0  0  0  0  0  0
    1.0552   -9.6360   17.0650 C   0  0  0  0  0  0  0  0  0  0  0  0
    3.6519   -9.1783   16.9039 C   0  0  0  0  0  0  0  0  0  0  0  0
    7.8675   -7.0096   15.9415 C   0  0  0  0  0  0  0  0  0  0  0  0
    5.9733   -9.6553   17.3832 N   0  0  0  0  0  0  0  0  0  0  0  0
   10.2411   -2.9363   23.4301 C   0  0  0  0  0  0  0  0  0  0  0  0
   10.7288   -3.8197   19.9525 C   0  0  0  0  0  0  0  0  0  0  0  0
   10.1189   -5.0054   19.6987 C   0  0  0  0  0  0  0  0  0  0  0  0
  1  3  4  0
  1  7  4  0
  2 21  4  0
  2 27  4  0
  3  9  4  0
  3 10  4  0
  4  8  4  0
  4 18  4  0
  4 25  1  0
  5  9  4  0
  5 12  4  0
  6 13  1  0
  6 27  1  0
  7 28  4  0
  8 11  4  0
  9 29  4  0
 10 12  4  0
 11 24  1  0
 11 26  4  0
 12 25  1  0
 13 28  1  0
 14 20  4  0
 14 23  4  0
 15 17  4  0
 15 21  4  0
 16 19  4  0
 16 23  4  0
 17 22  4  0
 18 26  4  0
 19 24  4  0
 20 24  4  0
 22 27  4  0
 28 29  4  0
M  END
$$$$

 Created by Python create_sdf_string function

 29 33  0  0  0  0  0  0  0  0999 V2000
   10.7215   -3.3326   17.6437 C   0  0  0  0  0  0  0  0  0  0  0  0
    9.9489   -3.4675   24.6487 N   0  0  0  0  0  0  0  0  0  0  0  0
   10.0172   -4.4740   17.4101 C   0  0  0  0  0  0  0  0  0  0  0  0
    6.9051   -7.9575   16.4222 C   0  0  0  0  0  0  0  0  0  0  0  0
    8.9969   -6.3552   17.9668 N   0  0  0  0  0  0  0  0  0  0  0  0
   10.6702   -3.9051   22.4070 C   0  0  0  0  0  0  0  0  0  0  0  0
   11.0625   -3.0028   18.8894 C   0  0  0  0  0  0  0  0  0  0  0  0
    5.6180   -7.9194   16.1754 O   0  0  0  0  0  0  0  0  0  0  0  0
    9.7259   -5.3080   18.4485 C   0  0  0  0  0  0  0  0  0  0  0  0
    9.4578   -5.0200   16.3036 N   0  0  0  0  0  0  0  0  0  0  0  0
    5.0287   -8.9365   16.8223 C   0  0  0  0  0  0  0  0  0  0  0  0
    8.7742   -6.1498   16.6764 C   0  0  0  0  0  0  0  0  0  0  0  0
   10.9418   -3.4032   21.2053 O   0  0  0  0  0  0  0  0  0  0  0  0
    1.4797   -8.6258   16.2950 C   0  0  0  0  0  0  0  0  0  0  0  0
    9.2861   -1.2743   25.3585 C   0  0  0  0  0  0  0  0  0  0  0  0
    1.8892  -10.3985   17.7511 N   0  0  0  0  0  0  0  0  0  0  0  0
    9.6210   -0.6952   24.0976 C   0  0  0  0  0  0  0  0  0  0  0  0
    7.0792   -9.0217   17.1429 C   0  0  0  0  0  0  0  0  0  0  0  0
    3.1713  -10.1816   17.6634 C   0  0  0  0  0  0  0  0  0  0  0  0
    2.7878   -8.3822   16.2137 C   0  0  0  0  0  0  0  0  0  0  0  0
    9.4601   -2.6590   25.6528 C   0  0  0  0  0  0  0  0  0  0  0  0
   10.1182   -1.5672   23.1165 C   0  0  0  0  0  0  0  0  0  0  0  0
    1.0552   -9.6360   17.0650 C   0  0  0  0  0  0  0  0  0  0  0  0
    3.6519   -9.1783   16.9039 C   0  0  0  0  0  0  0  0  0  0  0  0
    7.8675   -7.0096   15.9415 C   0  0  0  0  0  0  0  0  0  0  0  0
    5.9733   -9.6553   17.3832 N   0  0  0  0  0  0  0  0  0  0  0  0
   10.2411   -2.9363   23.4301 C   0  0  0  0  0  0  0  0  0  0  0  0
   10.7288   -3.8197   19.9525 C   0  0  0  0  0  0  0  0  0  0  0  0
   10.1189   -5.0054   19.6987 C   0  0  0  0  0  0  0  0  0  0  0  0
  1  3  4  0
  1  7  4  0
  2 21  4  0
  2 27  4  0
  3  9  4  0
  3 10  4  0
  4  8  4  0
  4 18  4  0
  4 25  1  0
  5  9  4  0
  5 12  4  0
  6 13  1  0
  6 27  1  0
  7 28  4  0
  8 11  4  0
  9 29  4  0
 10 12  4  0
 11 24  1  0
 11 26  4  0
 12 25  1  0
 13 28  1  0
 14 20  4  0
 14 23  4  0
 15 17  4  0
 15 21  4  0
 16 19  4  0
 16 23  4  0
 17 22  4  0
 18 26  4  0
 19 24  4  0
 20 24  4  0
 22 27  4  0
 28 29  4  0
M  END
$$$$

 Created by Python create_sdf_string function

 29 33  0  0  0  0  0  0  0  0999 V2000
   10.7215   -3.3326   17.6437 C   0  0  0  0  0  0  0  0  0  0  0  0
    9.9489   -3.4675   24.6487 N   0  0  0  0  0  0  0  0  0  0  0  0
   10.0172   -4.4740   17.4101 C   0  0  0  0  0  0  0  0  0  0  0  0
    6.9051   -7.9575   16.4222 C   0  0  0  0  0  0  0  0  0  0  0  0
    8.9969   -6.3552   17.9668 N   0  0  0  0  0  0  0  0  0  0  0  0
   10.6702   -3.9051   22.4070 C   0  0  0  0  0  0  0  0  0  0  0  0
   11.0625   -3.0028   18.8894 C   0  0  0  0  0  0  0  0  0  0  0  0
    5.6180   -7.9194   16.1754 O   0  0  0  0  0  0  0  0  0  0  0  0
    9.7259   -5.3080   18.4485 C   0  0  0  0  0  0  0  0  0  0  0  0
    9.4578   -5.0200   16.3036 N   0  0  0  0  0  0  0  0  0  0  0  0
    5.0287   -8.9365   16.8223 C   0  0  0  0  0  0  0  0  0  0  0  0
    8.7742   -6.1498   16.6764 C   0  0  0  0  0  0  0  0  0  0  0  0
   10.9418   -3.4032   21.2053 O   0  0  0  0  0  0  0  0  0  0  0  0
    1.4797   -8.6258   16.2950 C   0  0  0  0  0  0  0  0  0  0  0  0
    9.2861   -1.2743   25.3585 C   0  0  0  0  0  0  0  0  0  0  0  0
    1.8892  -10.3985   17.7511 N   0  0  0  0  0  0  0  0  0  0  0  0
    9.6210   -0.6952   24.0976 C   0  0  0  0  0  0  0  0  0  0  0  0
    7.0792   -9.0217   17.1429 C   0  0  0  0  0  0  0  0  0  0  0  0
    3.1713  -10.1816   17.6634 C   0  0  0  0  0  0  0  0  0  0  0  0
    2.7878   -8.3822   16.2137 C   0  0  0  0  0  0  0  0  0  0  0  0
    9.4601   -2.6590   25.6528 C   0  0  0  0  0  0  0  0  0  0  0  0
   10.1182   -1.5672   23.1165 C   0  0  0  0  0  0  0  0  0  0  0  0
    1.0552   -9.6360   17.0650 C   0  0  0  0  0  0  0  0  0  0  0  0
    3.6519   -9.1783   16.9039 C   0  0  0  0  0  0  0  0  0  0  0  0
    7.8675   -7.0096   15.9415 C   0  0  0  0  0  0  0  0  0  0  0  0
    5.9733   -9.6553   17.3832 N   0  0  0  0  0  0  0  0  0  0  0  0
   10.2411   -2.9363   23.4301 C   0  0  0  0  0  0  0  0  0  0  0  0
   10.7288   -3.8197   19.9525 C   0  0  0  0  0  0  0  0  0  0  0  0
   10.1189   -5.0054   19.6987 C   0  0  0  0  0  0  0  0  0  0  0  0
  1  3  4  0
  1  7  4  0
  2 21  4  0
  2 27  4  0
  3  9  4  0
  3 10  4  0
  4  8  4  0
  4 18  4  0
  4 25  1  0
  5  9  4  0
  5 12  4  0
  6 13  1  0
  6 27  1  0
  7 28  4  0
  8 11  4  0
  9 29  4  0
 10 12  4  0
 11 24  1  0
 11 26  4  0
 12 25  1  0
 13 28  1  0
 14 20  4  0
 14 23  4  0
 15 17  4  0
 15 21  4  0
 16 19  4  0
 16 23  4  0
 17 22  4  0
 18 26  4  0
 19 24  4  0
 20 24  4  0
 22 27  4  0
 28 29  4  0
M  END
$$$$

 Created by Python create_sdf_string function

 29 33  0  0  0  0  0  0  0  0999 V2000
   10.7215   -3.3326   17.6437 C   0  0  0  0  0  0  0  0  0  0  0  0
    9.9489   -3.4675   24.6487 N   0  0  0  0  0  0  0  0  0  0  0  0
   10.0172   -4.4740   17.4101 C   0  0  0  0  0  0  0  0  0  0  0  0
    6.9051   -7.9575   16.4222 C   0  0  0  0  0  0  0  0  0  0  0  0
    8.9969   -6.3552   17.9668 N   0  0  0  0  0  0  0  0  0  0  0  0
   10.6702   -3.9051   22.4070 C   0  0  0  0  0  0  0  0  0  0  0  0
   11.0625   -3.0028   18.8894 C   0  0  0  0  0  0  0  0  0  0  0  0
    5.6180   -7.9194   16.1754 O   0  0  0  0  0  0  0  0  0  0  0  0
    9.7259   -5.3080   18.4485 C   0  0  0  0  0  0  0  0  0  0  0  0
    9.4578   -5.0200   16.3036 N   0  0  0  0  0  0  0  0  0  0  0  0
    5.0287   -8.9365   16.8223 C   0  0  0  0  0  0  0  0  0  0  0  0
    8.7742   -6.1498   16.6764 C   0  0  0  0  0  0  0  0  0  0  0  0
   10.9418   -3.4032   21.2053 O   0  0  0  0  0  0  0  0  0  0  0  0
    1.4797   -8.6258   16.2950 C   0  0  0  0  0  0  0  0  0  0  0  0
    9.2861   -1.2743   25.3585 C   0  0  0  0  0  0  0  0  0  0  0  0
    1.8892  -10.3985   17.7511 N   0  0  0  0  0  0  0  0  0  0  0  0
    9.6210   -0.6952   24.0976 C   0  0  0  0  0  0  0  0  0  0  0  0
    7.0792   -9.0217   17.1429 C   0  0  0  0  0  0  0  0  0  0  0  0
    3.1713  -10.1816   17.6634 C   0  0  0  0  0  0  0  0  0  0  0  0
    2.7878   -8.3822   16.2137 C   0  0  0  0  0  0  0  0  0  0  0  0
    9.4601   -2.6590   25.6528 C   0  0  0  0  0  0  0  0  0  0  0  0
   10.1182   -1.5672   23.1165 C   0  0  0  0  0  0  0  0  0  0  0  0
    1.0552   -9.6360   17.0650 C   0  0  0  0  0  0  0  0  0  0  0  0
    3.6519   -9.1783   16.9039 C   0  0  0  0  0  0  0  0  0  0  0  0
    7.8675   -7.0096   15.9415 C   0  0  0  0  0  0  0  0  0  0  0  0
    5.9733   -9.6553   17.3832 N   0  0  0  0  0  0  0  0  0  0  0  0
   10.2411   -2.9363   23.4301 C   0  0  0  0  0  0  0  0  0  0  0  0
   10.7288   -3.8197   19.9525 C   0  0  0  0  0  0  0  0  0  0  0  0
   10.1189   -5.0054   19.6987 C   0  0  0  0  0  0  0  0  0  0  0  0
  1  3  4  0
  1  7  4  0
  2 21  4  0
  2 27  4  0
  3  9  4  0
  3 10  4  0
  4  8  4  0
  4 18  4  0
  4 25  1  0
  5  9  4  0
  5 12  4  0
  6 13  1  0
  6 27  1  0
  7 28  4  0
  8 11  4  0
  9 29  4  0
 10 12  4  0
 11 24  1  0
 11 26  4  0
 12 25  1  0
 13 28  1  0
 14 20  4  0
 14 23  4  0
 15 17  4  0
 15 21  4  0
 16 19  4  0
 16 23  4  0
 17 22  4  0
 18 26  4  0
 19 24  4  0
 20 24  4  0
 22 27  4  0
 28 29  4  0
M  END
$$$$

 Created by Python create_sdf_string function

 29 33  0  0  0  0  0  0  0  0999 V2000
   10.7215   -3.3326   17.6437 C   0  0  0  0  0  0  0  0  0  0  0  0
    9.9489   -3.4675   24.6487 N   0  0  0  0  0  0  0  0  0  0  0  0
   10.0172   -4.4740   17.4101 C   0  0  0  0  0  0  0  0  0  0  0  0
    6.9051   -7.9575   16.4222 C   0  0  0  0  0  0  0  0  0  0  0  0
    8.9969   -6.3552   17.9668 N   0  0  0  0  0  0  0  0  0  0  0  0
   10.6702   -3.9051   22.4070 C   0  0  0  0  0  0  0  0  0  0  0  0
   11.0625   -3.0028   18.8894 C   0  0  0  0  0  0  0  0  0  0  0  0
    5.6180   -7.9194   16.1754 O   0  0  0  0  0  0  0  0  0  0  0  0
    9.7259   -5.3080   18.4485 C   0  0  0  0  0  0  0  0  0  0  0  0
    9.4578   -5.0200   16.3036 N   0  0  0  0  0  0  0  0  0  0  0  0
    5.0287   -8.9365   16.8223 C   0  0  0  0  0  0  0  0  0  0  0  0
    8.7742   -6.1498   16.6764 C   0  0  0  0  0  0  0  0  0  0  0  0
   10.9418   -3.4032   21.2053 O   0  0  0  0  0  0  0  0  0  0  0  0
    1.4797   -8.6258   16.2950 C   0  0  0  0  0  0  0  0  0  0  0  0
    9.2861   -1.2743   25.3585 C   0  0  0  0  0  0  0  0  0  0  0  0
    1.8892  -10.3985   17.7511 N   0  0  0  0  0  0  0  0  0  0  0  0
    9.6210   -0.6952   24.0976 C   0  0  0  0  0  0  0  0  0  0  0  0
    7.0792   -9.0217   17.1429 C   0  0  0  0  0  0  0  0  0  0  0  0
    3.1713  -10.1816   17.6634 C   0  0  0  0  0  0  0  0  0  0  0  0
    2.7878   -8.3822   16.2137 C   0  0  0  0  0  0  0  0  0  0  0  0
    9.4601   -2.6590   25.6528 C   0  0  0  0  0  0  0  0  0  0  0  0
   10.1182   -1.5672   23.1165 C   0  0  0  0  0  0  0  0  0  0  0  0
    1.0552   -9.6360   17.0650 C   0  0  0  0  0  0  0  0  0  0  0  0
    3.6519   -9.1783   16.9039 C   0  0  0  0  0  0  0  0  0  0  0  0
    7.8675   -7.0096   15.9415 C   0  0  0  0  0  0  0  0  0  0  0  0
    5.9733   -9.6553   17.3832 N   0  0  0  0  0  0  0  0  0  0  0  0
   10.2411   -2.9363   23.4301 C   0  0  0  0  0  0  0  0  0  0  0  0
   10.7288   -3.8197   19.9525 C   0  0  0  0  0  0  0  0  0  0  0  0
   10.1189   -5.0054   19.6987 C   0  0  0  0  0  0  0  0  0  0  0  0
  1  3  4  0
  1  7  4  0
  2 21  4  0
  2 27  4  0
  3  9  4  0
  3 10  4  0
  4  8  4  0
  4 18  4  0
  4 25  1  0
  5  9  4  0
  5 12  4  0
  6 13  1  0
  6 27  1  0
  7 28  4  0
  8 11  4  0
  9 29  4  0
 10 12  4  0
 11 24  1  0
 11 26  4  0
 12 25  1  0
 13 28  1  0
 14 20  4  0
 14 23  4  0
 15 17  4  0
 15 21  4  0
 16 19  4  0
 16 23  4  0
 17 22  4  0
 18 26  4  0
 19 24  4  0
 20 24  4  0
 22 27  4  0
 28 29  4  0
M  END
$$$$

 Created by Python create_sdf_string function

 29 33  0  0  0  0  0  0  0  0999 V2000
   10.7215   -3.3326   17.6437 C   0  0  0  0  0  0  0  0  0  0  0  0
    9.9489   -3.4675   24.6487 N   0  0  0  0  0  0  0  0  0  0  0  0
   10.0172   -4.4740   17.4101 C   0  0  0  0  0  0  0  0  0  0  0  0
    6.9051   -7.9575   16.4222 C   0  0  0  0  0  0  0  0  0  0  0  0
    8.9969   -6.3552   17.9668 N   0  0  0  0  0  0  0  0  0  0  0  0
   10.6702   -3.9051   22.4070 C   0  0  0  0  0  0  0  0  0  0  0  0
   11.0625   -3.0028   18.8894 C   0  0  0  0  0  0  0  0  0  0  0  0
    5.6180   -7.9194   16.1754 O   0  0  0  0  0  0  0  0  0  0  0  0
    9.7259   -5.3080   18.4485 C   0  0  0  0  0  0  0  0  0  0  0  0
    9.4578   -5.0200   16.3036 N   0  0  0  0  0  0  0  0  0  0  0  0
    5.0287   -8.9365   16.8223 C   0  0  0  0  0  0  0  0  0  0  0  0
    8.7742   -6.1498   16.6764 C   0  0  0  0  0  0  0  0  0  0  0  0
   10.9418   -3.4032   21.2053 O   0  0  0  0  0  0  0  0  0  0  0  0
    1.4797   -8.6258   16.2950 C   0  0  0  0  0  0  0  0  0  0  0  0
    9.2861   -1.2743   25.3585 C   0  0  0  0  0  0  0  0  0  0  0  0
    1.8892  -10.3985   17.7511 N   0  0  0  0  0  0  0  0  0  0  0  0
    9.6210   -0.6952   24.0976 C   0  0  0  0  0  0  0  0  0  0  0  0
    7.0792   -9.0217   17.1429 C   0  0  0  0  0  0  0  0  0  0  0  0
    3.1713  -10.1816   17.6634 C   0  0  0  0  0  0  0  0  0  0  0  0
    2.7878   -8.3822   16.2137 C   0  0  0  0  0  0  0  0  0  0  0  0
    9.4601   -2.6590   25.6528 C   0  0  0  0  0  0  0  0  0  0  0  0
   10.1182   -1.5672   23.1165 C   0  0  0  0  0  0  0  0  0  0  0  0
    1.0552   -9.6360   17.0650 C   0  0  0  0  0  0  0  0  0  0  0  0
    3.6519   -9.1783   16.9039 C   0  0  0  0  0  0  0  0  0  0  0  0
    7.8675   -7.0096   15.9415 C   0  0  0  0  0  0  0  0  0  0  0  0
    5.9733   -9.6553   17.3832 N   0  0  0  0  0  0  0  0  0  0  0  0
   10.2411   -2.9363   23.4301 C   0  0  0  0  0  0  0  0  0  0  0  0
   10.7288   -3.8197   19.9525 C   0  0  0  0  0  0  0  0  0  0  0  0
   10.1189   -5.0054   19.6987 C   0  0  0  0  0  0  0  0  0  0  0  0
  1  3  4  0
  1  7  4  0
  2 21  4  0
  2 27  4  0
  3  9  4  0
  3 10  4  0
  4  8  4  0
  4 18  4  0
  4 25  1  0
  5  9  4  0
  5 12  4  0
  6 13  1  0
  6 27  1  0
  7 28  4  0
  8 11  4  0
  9 29  4  0
 10 12  4  0
 11 24  1  0
 11 26  4  0
 12 25  1  0
 13 28  1  0
 14 20  4  0
 14 23  4  0
 15 17  4  0
 15 21  4  0
 16 19  4  0
 16 23  4  0
 17 22  4  0
 18 26  4  0
 19 24  4  0
 20 24  4  0
 22 27  4  0
 28 29  4  0
M  END
$$$$

 Created by Python create_sdf_string function

 29 33  0  0  0  0  0  0  0  0999 V2000
   10.7215   -3.3326   17.6437 C   0  0  0  0  0  0  0  0  0  0  0  0
    9.9489   -3.4675   24.6487 N   0  0  0  0  0  0  0  0  0  0  0  0
   10.0172   -4.4740   17.4101 C   0  0  0  0  0  0  0  0  0  0  0  0
    6.9051   -7.9575   16.4222 C   0  0  0  0  0  0  0  0  0  0  0  0
    8.9969   -6.3552   17.9668 N   0  0  0  0  0  0  0  0  0  0  0  0
   10.6702   -3.9051   22.4070 C   0  0  0  0  0  0  0  0  0  0  0  0
   11.0625   -3.0028   18.8894 C   0  0  0  0  0  0  0  0  0  0  0  0
    5.6180   -7.9194   16.1754 O   0  0  0  0  0  0  0  0  0  0  0  0
    9.7259   -5.3080   18.4485 C   0  0  0  0  0  0  0  0  0  0  0  0
    9.4578   -5.0200   16.3036 N   0  0  0  0  0  0  0  0  0  0  0  0
    5.0287   -8.9365   16.8223 C   0  0  0  0  0  0  0  0  0  0  0  0
    8.7742   -6.1498   16.6764 C   0  0  0  0  0  0  0  0  0  0  0  0
   10.9418   -3.4032   21.2053 O   0  0  0  0  0  0  0  0  0  0  0  0
    1.4797   -8.6258   16.2950 C   0  0  0  0  0  0  0  0  0  0  0  0
    9.2861   -1.2743   25.3585 C   0  0  0  0  0  0  0  0  0  0  0  0
    1.8892  -10.3985   17.7511 N   0  0  0  0  0  0  0  0  0  0  0  0
    9.6210   -0.6952   24.0976 C   0  0  0  0  0  0  0  0  0  0  0  0
    7.0792   -9.0217   17.1429 C   0  0  0  0  0  0  0  0  0  0  0  0
    3.1713  -10.1816   17.6634 C   0  0  0  0  0  0  0  0  0  0  0  0
    2.7878   -8.3822   16.2137 C   0  0  0  0  0  0  0  0  0  0  0  0
    9.4601   -2.6590   25.6528 C   0  0  0  0  0  0  0  0  0  0  0  0
   10.1182   -1.5672   23.1165 C   0  0  0  0  0  0  0  0  0  0  0  0
    1.0552   -9.6360   17.0650 C   0  0  0  0  0  0  0  0  0  0  0  0
    3.6519   -9.1783   16.9039 C   0  0  0  0  0  0  0  0  0  0  0  0
    7.8675   -7.0096   15.9415 C   0  0  0  0  0  0  0  0  0  0  0  0
    5.9733   -9.6553   17.3832 N   0  0  0  0  0  0  0  0  0  0  0  0
   10.2411   -2.9363   23.4301 C   0  0  0  0  0  0  0  0  0  0  0  0
   10.7288   -3.8197   19.9525 C   0  0  0  0  0  0  0  0  0  0  0  0
   10.1189   -5.0054   19.6987 C   0  0  0  0  0  0  0  0  0  0  0  0
  1  3  4  0
  1  7  4  0
  2 21  4  0
  2 27  4  0
  3  9  4  0
  3 10  4  0
  4  8  4  0
  4 18  4  0
  4 25  1  0
  5  9  4  0
  5 12  4  0
  6 13  1  0
  6 27  1  0
  7 28  4  0
  8 11  4  0
  9 29  4  0
 10 12  4  0
 11 24  1  0
 11 26  4  0
 12 25  1  0
 13 28  1  0
 14 20  4  0
 14 23  4  0
 15 17  4  0
 15 21  4  0
 16 19  4  0
 16 23  4  0
 17 22  4  0
 18 26  4  0
 19 24  4  0
 20 24  4  0
 22 27  4  0
 28 29  4  0
M  END
$$$$

 Created by Python create_sdf_string function

 29 33  0  0  0  0  0  0  0  0999 V2000
   10.7215   -3.3326   17.6437 C   0  0  0  0  0  0  0  0  0  0  0  0
    9.9489   -3.4675   24.6487 N   0  0  0  0  0  0  0  0  0  0  0  0
   10.0172   -4.4740   17.4101 C   0  0  0  0  0  0  0  0  0  0  0  0
    6.9051   -7.9575   16.4222 C   0  0  0  0  0  0  0  0  0  0  0  0
    8.9969   -6.3552   17.9668 N   0  0  0  0  0  0  0  0  0  0  0  0
   10.6702   -3.9051   22.4070 C   0  0  0  0  0  0  0  0  0  0  0  0
   11.0625   -3.0028   18.8894 C   0  0  0  0  0  0  0  0  0  0  0  0
    5.6180   -7.9194   16.1754 O   0  0  0  0  0  0  0  0  0  0  0  0
    9.7259   -5.3080   18.4485 C   0  0  0  0  0  0  0  0  0  0  0  0
    9.4578   -5.0200   16.3036 N   0  0  0  0  0  0  0  0  0  0  0  0
    5.0287   -8.9365   16.8223 C   0  0  0  0  0  0  0  0  0  0  0  0
    8.7742   -6.1498   16.6764 C   0  0  0  0  0  0  0  0  0  0  0  0
   10.9418   -3.4032   21.2053 O   0  0  0  0  0  0  0  0  0  0  0  0
    1.4797   -8.6258   16.2950 C   0  0  0  0  0  0  0  0  0  0  0  0
    9.2861   -1.2743   25.3585 C   0  0  0  0  0  0  0  0  0  0  0  0
    1.8892  -10.3985   17.7511 N   0  0  0  0  0  0  0  0  0  0  0  0
    9.6210   -0.6952   24.0976 C   0  0  0  0  0  0  0  0  0  0  0  0
    7.0792   -9.0217   17.1429 C   0  0  0  0  0  0  0  0  0  0  0  0
    3.1713  -10.1816   17.6634 C   0  0  0  0  0  0  0  0  0  0  0  0
    2.7878   -8.3822   16.2137 C   0  0  0  0  0  0  0  0  0  0  0  0
    9.4601   -2.6590   25.6528 C   0  0  0  0  0  0  0  0  0  0  0  0
   10.1182   -1.5672   23.1165 C   0  0  0  0  0  0  0  0  0  0  0  0
    1.0552   -9.6360   17.0650 C   0  0  0  0  0  0  0  0  0  0  0  0
    3.6519   -9.1783   16.9039 C   0  0  0  0  0  0  0  0  0  0  0  0
    7.8675   -7.0096   15.9415 C   0  0  0  0  0  0  0  0  0  0  0  0
    5.9733   -9.6553   17.3832 N   0  0  0  0  0  0  0  0  0  0  0  0
   10.2411   -2.9363   23.4301 C   0  0  0  0  0  0  0  0  0  0  0  0
   10.7288   -3.8197   19.9525 C   0  0  0  0  0  0  0  0  0  0  0  0
   10.1189   -5.0054   19.6987 C   0  0  0  0  0  0  0  0  0  0  0  0
  1  3  4  0
  1  7  4  0
  2 21  4  0
  2 27  4  0
  3  9  4  0
  3 10  4  0
  4  8  4  0
  4 18  4  0
  4 25  1  0
  5  9  4  0
  5 12  4  0
  6 13  1  0
  6 27  1  0
  7 28  4  0
  8 11  4  0
  9 29  4  0
 10 12  4  0
 11 24  1  0
 11 26  4  0
 12 25  1  0
 13 28  1  0
 14 20  4  0
 14 23  4  0
 15 17  4  0
 15 21  4  0
 16 19  4  0
 16 23  4  0
 17 22  4  0
 18 26  4  0
 19 24  4  0
 20 24  4  0
 22 27  4  0
 28 29  4  0
M  END
$$$$

 Created by Python create_sdf_string function

 29 33  0  0  0  0  0  0  0  0999 V2000
   10.7215   -3.3326   17.6437 C   0  0  0  0  0  0  0  0  0  0  0  0
    9.9489   -3.4675   24.6487 N   0  0  0  0  0  0  0  0  0  0  0  0
   10.0172   -4.4740   17.4101 C   0  0  0  0  0  0  0  0  0  0  0  0
    6.9051   -7.9575   16.4222 C   0  0  0  0  0  0  0  0  0  0  0  0
    8.9969   -6.3552   17.9668 N   0  0  0  0  0  0  0  0  0  0  0  0
   10.6702   -3.9051   22.4070 C   0  0  0  0  0  0  0  0  0  0  0  0
   11.0625   -3.0028   18.8894 C   0  0  0  0  0  0  0  0  0  0  0  0
    5.6180   -7.9194   16.1754 O   0  0  0  0  0  0  0  0  0  0  0  0
    9.7259   -5.3080   18.4485 C   0  0  0  0  0  0  0  0  0  0  0  0
    9.4578   -5.0200   16.3036 N   0  0  0  0  0  0  0  0  0  0  0  0
    5.0287   -8.9365   16.8223 C   0  0  0  0  0  0  0  0  0  0  0  0
    8.7742   -6.1498   16.6764 C   0  0  0  0  0  0  0  0  0  0  0  0
   10.9418   -3.4032   21.2053 O   0  0  0  0  0  0  0  0  0  0  0  0
    1.4797   -8.6258   16.2950 C   0  0  0  0  0  0  0  0  0  0  0  0
    9.2861   -1.2743   25.3585 C   0  0  0  0  0  0  0  0  0  0  0  0
    1.8892  -10.3985   17.7511 N   0  0  0  0  0  0  0  0  0  0  0  0
    9.6210   -0.6952   24.0976 C   0  0  0  0  0  0  0  0  0  0  0  0
    7.0792   -9.0217   17.1429 C   0  0  0  0  0  0  0  0  0  0  0  0
    3.1713  -10.1816   17.6634 C   0  0  0  0  0  0  0  0  0  0  0  0
    2.7878   -8.3822   16.2137 C   0  0  0  0  0  0  0  0  0  0  0  0
    9.4601   -2.6590   25.6528 C   0  0  0  0  0  0  0  0  0  0  0  0
   10.1182   -1.5672   23.1165 C   0  0  0  0  0  0  0  0  0  0  0  0
    1.0552   -9.6360   17.0650 C   0  0  0  0  0  0  0  0  0  0  0  0
    3.6519   -9.1783   16.9039 C   0  0  0  0  0  0  0  0  0  0  0  0
    7.8675   -7.0096   15.9415 C   0  0  0  0  0  0  0  0  0  0  0  0
    5.9733   -9.6553   17.3832 N   0  0  0  0  0  0  0  0  0  0  0  0
   10.2411   -2.9363   23.4301 C   0  0  0  0  0  0  0  0  0  0  0  0
   10.7288   -3.8197   19.9525 C   0  0  0  0  0  0  0  0  0  0  0  0
   10.1189   -5.0054   19.6987 C   0  0  0  0  0  0  0  0  0  0  0  0
  1  3  4  0
  1  7  4  0
  2 21  4  0
  2 27  4  0
  3  9  4  0
  3 10  4  0
  4  8  4  0
  4 18  4  0
  4 25  1  0
  5  9  4  0
  5 12  4  0
  6 13  1  0
  6 27  1  0
  7 28  4  0
  8 11  4  0
  9 29  4  0
 10 12  4  0
 11 24  1  0
 11 26  4  0
 12 25  1  0
 13 28  1  0
 14 20  4  0
 14 23  4  0
 15 17  4  0
 15 21  4  0
 16 19  4  0
 16 23  4  0
 17 22  4  0
 18 26  4  0
 19 24  4  0
 20 24  4  0
 22 27  4  0
 28 29  4  0
M  END
$$$$

 Created by Python create_sdf_string function

 29 33  0  0  0  0  0  0  0  0999 V2000
   10.7215   -3.3326   17.6437 C   0  0  0  0  0  0  0  0  0  0  0  0
    9.9489   -3.4675   24.6487 N   0  0  0  0  0  0  0  0  0  0  0  0
   10.0172   -4.4740   17.4101 C   0  0  0  0  0  0  0  0  0  0  0  0
    6.9051   -7.9575   16.4222 C   0  0  0  0  0  0  0  0  0  0  0  0
    8.9969   -6.3552   17.9668 N   0  0  0  0  0  0  0  0  0  0  0  0
   10.6702   -3.9051   22.4070 C   0  0  0  0  0  0  0  0  0  0  0  0
   11.0625   -3.0028   18.8894 C   0  0  0  0  0  0  0  0  0  0  0  0
    5.6180   -7.9194   16.1754 O   0  0  0  0  0  0  0  0  0  0  0  0
    9.7259   -5.3080   18.4485 C   0  0  0  0  0  0  0  0  0  0  0  0
    9.4578   -5.0200   16.3036 N   0  0  0  0  0  0  0  0  0  0  0  0
    5.0287   -8.9365   16.8223 C   0  0  0  0  0  0  0  0  0  0  0  0
    8.7742   -6.1498   16.6764 C   0  0  0  0  0  0  0  0  0  0  0  0
   10.9418   -3.4032   21.2053 O   0  0  0  0  0  0  0  0  0  0  0  0
    1.4797   -8.6258   16.2950 C   0  0  0  0  0  0  0  0  0  0  0  0
    9.2861   -1.2743   25.3585 C   0  0  0  0  0  0  0  0  0  0  0  0
    1.8892  -10.3985   17.7511 N   0  0  0  0  0  0  0  0  0  0  0  0
    9.6210   -0.6952   24.0976 C   0  0  0  0  0  0  0  0  0  0  0  0
    7.0792   -9.0217   17.1429 C   0  0  0  0  0  0  0  0  0  0  0  0
    3.1713  -10.1816   17.6634 C   0  0  0  0  0  0  0  0  0  0  0  0
    2.7878   -8.3822   16.2137 C   0  0  0  0  0  0  0  0  0  0  0  0
    9.4601   -2.6590   25.6528 C   0  0  0  0  0  0  0  0  0  0  0  0
   10.1182   -1.5672   23.1165 C   0  0  0  0  0  0  0  0  0  0  0  0
    1.0552   -9.6360   17.0650 C   0  0  0  0  0  0  0  0  0  0  0  0
    3.6519   -9.1783   16.9039 C   0  0  0  0  0  0  0  0  0  0  0  0
    7.8675   -7.0096   15.9415 C   0  0  0  0  0  0  0  0  0  0  0  0
    5.9733   -9.6553   17.3832 N   0  0  0  0  0  0  0  0  0  0  0  0
   10.2411   -2.9363   23.4301 C   0  0  0  0  0  0  0  0  0  0  0  0
   10.7288   -3.8197   19.9525 C   0  0  0  0  0  0  0  0  0  0  0  0
   10.1189   -5.0054   19.6987 C   0  0  0  0  0  0  0  0  0  0  0  0
  1  3  4  0
  1  7  4  0
  2 21  4  0
  2 27  4  0
  3  9  4  0
  3 10  4  0
  4  8  4  0
  4 18  4  0
  4 25  1  0
  5  9  4  0
  5 12  4  0
  6 13  1  0
  6 27  1  0
  7 28  4  0
  8 11  4  0
  9 29  4  0
 10 12  4  0
 11 24  1  0
 11 26  4  0
 12 25  1  0
 13 28  1  0
 14 20  4  0
 14 23  4  0
 15 17  4  0
 15 21  4  0
 16 19  4  0
 16 23  4  0
 17 22  4  0
 18 26  4  0
 19 24  4  0
 20 24  4  0
 22 27  4  0
 28 29  4  0
M  END
$$$$

 Created by Python create_sdf_string function

 29 33  0  0  0  0  0  0  0  0999 V2000
   10.7215   -3.3326   17.6437 C   0  0  0  0  0  0  0  0  0  0  0  0
    9.9489   -3.4675   24.6487 N   0  0  0  0  0  0  0  0  0  0  0  0
   10.0172   -4.4740   17.4101 C   0  0  0  0  0  0  0  0  0  0  0  0
    6.9051   -7.9575   16.4222 C   0  0  0  0  0  0  0  0  0  0  0  0
    8.9969   -6.3552   17.9668 N   0  0  0  0  0  0  0  0  0  0  0  0
   10.6702   -3.9051   22.4070 C   0  0  0  0  0  0  0  0  0  0  0  0
   11.0625   -3.0028   18.8894 C   0  0  0  0  0  0  0  0  0  0  0  0
    5.6180   -7.9194   16.1754 O   0  0  0  0  0  0  0  0  0  0  0  0
    9.7259   -5.3080   18.4485 C   0  0  0  0  0  0  0  0  0  0  0  0
    9.4578   -5.0200   16.3036 N   0  0  0  0  0  0  0  0  0  0  0  0
    5.0287   -8.9365   16.8223 C   0  0  0  0  0  0  0  0  0  0  0  0
    8.7742   -6.1498   16.6764 C   0  0  0  0  0  0  0  0  0  0  0  0
   10.9418   -3.4032   21.2053 O   0  0  0  0  0  0  0  0  0  0  0  0
    1.4797   -8.6258   16.2950 C   0  0  0  0  0  0  0  0  0  0  0  0
    9.2861   -1.2743   25.3585 C   0  0  0  0  0  0  0  0  0  0  0  0
    1.8892  -10.3985   17.7511 N   0  0  0  0  0  0  0  0  0  0  0  0
    9.6210   -0.6952   24.0976 C   0  0  0  0  0  0  0  0  0  0  0  0
    7.0792   -9.0217   17.1429 C   0  0  0  0  0  0  0  0  0  0  0  0
    3.1713  -10.1816   17.6634 C   0  0  0  0  0  0  0  0  0  0  0  0
    2.7878   -8.3822   16.2137 C   0  0  0  0  0  0  0  0  0  0  0  0
    9.4601   -2.6590   25.6528 C   0  0  0  0  0  0  0  0  0  0  0  0
   10.1182   -1.5672   23.1165 C   0  0  0  0  0  0  0  0  0  0  0  0
    1.0552   -9.6360   17.0650 C   0  0  0  0  0  0  0  0  0  0  0  0
    3.6519   -9.1783   16.9039 C   0  0  0  0  0  0  0  0  0  0  0  0
    7.8675   -7.0096   15.9415 C   0  0  0  0  0  0  0  0  0  0  0  0
    5.9733   -9.6553   17.3832 N   0  0  0  0  0  0  0  0  0  0  0  0
   10.2411   -2.9363   23.4301 C   0  0  0  0  0  0  0  0  0  0  0  0
   10.7288   -3.8197   19.9525 C   0  0  0  0  0  0  0  0  0  0  0  0
   10.1189   -5.0054   19.6987 C   0  0  0  0  0  0  0  0  0  0  0  0
  1  3  4  0
  1  7  4  0
  2 21  4  0
  2 27  4  0
  3  9  4  0
  3 10  4  0
  4  8  4  0
  4 18  4  0
  4 25  1  0
  5  9  4  0
  5 12  4  0
  6 13  1  0
  6 27  1  0
  7 28  4  0
  8 11  4  0
  9 29  4  0
 10 12  4  0
 11 24  1  0
 11 26  4  0
 12 25  1  0
 13 28  1  0
 14 20  4  0
 14 23  4  0
 15 17  4  0
 15 21  4  0
 16 19  4  0
 16 23  4  0
 17 22  4  0
 18 26  4  0
 19 24  4  0
 20 24  4  0
 22 27  4  0
 28 29  4  0
M  END
$$$$

 Created by Python create_sdf_string function

 29 33  0  0  0  0  0  0  0  0999 V2000
   10.7215   -3.3326   17.6437 C   0  0  0  0  0  0  0  0  0  0  0  0
    9.9489   -3.4675   24.6487 N   0  0  0  0  0  0  0  0  0  0  0  0
   10.0172   -4.4740   17.4101 C   0  0  0  0  0  0  0  0  0  0  0  0
    6.9051   -7.9575   16.4222 C   0  0  0  0  0  0  0  0  0  0  0  0
    8.9969   -6.3552   17.9668 N   0  0  0  0  0  0  0  0  0  0  0  0
   10.6702   -3.9051   22.4070 C   0  0  0  0  0  0  0  0  0  0  0  0
   11.0625   -3.0028   18.8894 C   0  0  0  0  0  0  0  0  0  0  0  0
    5.6180   -7.9194   16.1754 O   0  0  0  0  0  0  0  0  0  0  0  0
    9.7259   -5.3080   18.4485 C   0  0  0  0  0  0  0  0  0  0  0  0
    9.4578   -5.0200   16.3036 N   0  0  0  0  0  0  0  0  0  0  0  0
    5.0287   -8.9365   16.8223 C   0  0  0  0  0  0  0  0  0  0  0  0
    8.7742   -6.1498   16.6764 C   0  0  0  0  0  0  0  0  0  0  0  0
   10.9418   -3.4032   21.2053 O   0  0  0  0  0  0  0  0  0  0  0  0
    1.4797   -8.6258   16.2950 C   0  0  0  0  0  0  0  0  0  0  0  0
    9.2861   -1.2743   25.3585 C   0  0  0  0  0  0  0  0  0  0  0  0
    1.8892  -10.3985   17.7511 N   0  0  0  0  0  0  0  0  0  0  0  0
    9.6210   -0.6952   24.0976 C   0  0  0  0  0  0  0  0  0  0  0  0
    7.0792   -9.0217   17.1429 C   0  0  0  0  0  0  0  0  0  0  0  0
    3.1713  -10.1816   17.6634 C   0  0  0  0  0  0  0  0  0  0  0  0
    2.7878   -8.3822   16.2137 C   0  0  0  0  0  0  0  0  0  0  0  0
    9.4601   -2.6590   25.6528 C   0  0  0  0  0  0  0  0  0  0  0  0
   10.1182   -1.5672   23.1165 C   0  0  0  0  0  0  0  0  0  0  0  0
    1.0552   -9.6360   17.0650 C   0  0  0  0  0  0  0  0  0  0  0  0
    3.6519   -9.1783   16.9039 C   0  0  0  0  0  0  0  0  0  0  0  0
    7.8675   -7.0096   15.9415 C   0  0  0  0  0  0  0  0  0  0  0  0
    5.9733   -9.6553   17.3832 N   0  0  0  0  0  0  0  0  0  0  0  0
   10.2411   -2.9363   23.4301 C   0  0  0  0  0  0  0  0  0  0  0  0
   10.7288   -3.8197   19.9525 C   0  0  0  0  0  0  0  0  0  0  0  0
   10.1189   -5.0054   19.6987 C   0  0  0  0  0  0  0  0  0  0  0  0
  1  3  4  0
  1  7  4  0
  2 21  4  0
  2 27  4  0
  3  9  4  0
  3 10  4  0
  4  8  4  0
  4 18  4  0
  4 25  1  0
  5  9  4  0
  5 12  4  0
  6 13  1  0
  6 27  1  0
  7 28  4  0
  8 11  4  0
  9 29  4  0
 10 12  4  0
 11 24  1  0
 11 26  4  0
 12 25  1  0
 13 28  1  0
 14 20  4  0
 14 23  4  0
 15 17  4  0
 15 21  4  0
 16 19  4  0
 16 23  4  0
 17 22  4  0
 18 26  4  0
 19 24  4  0
 20 24  4  0
 22 27  4  0
 28 29  4  0
M  END
$$$$

 Created by Python create_sdf_string function

 29 33  0  0  0  0  0  0  0  0999 V2000
   10.7215   -3.3326   17.6437 C   0  0  0  0  0  0  0  0  0  0  0  0
    9.9489   -3.4675   24.6487 N   0  0  0  0  0  0  0  0  0  0  0  0
   10.0172   -4.4740   17.4101 C   0  0  0  0  0  0  0  0  0  0  0  0
    6.9051   -7.9575   16.4222 C   0  0  0  0  0  0  0  0  0  0  0  0
    8.9969   -6.3552   17.9668 N   0  0  0  0  0  0  0  0  0  0  0  0
   10.6702   -3.9051   22.4070 C   0  0  0  0  0  0  0  0  0  0  0  0
   11.0625   -3.0028   18.8894 C   0  0  0  0  0  0  0  0  0  0  0  0
    5.6180   -7.9194   16.1754 O   0  0  0  0  0  0  0  0  0  0  0  0
    9.7259   -5.3080   18.4485 C   0  0  0  0  0  0  0  0  0  0  0  0
    9.4578   -5.0200   16.3036 N   0  0  0  0  0  0  0  0  0  0  0  0
    5.0287   -8.9365   16.8223 C   0  0  0  0  0  0  0  0  0  0  0  0
    8.7742   -6.1498   16.6764 C   0  0  0  0  0  0  0  0  0  0  0  0
   10.9418   -3.4032   21.2053 O   0  0  0  0  0  0  0  0  0  0  0  0
    1.4797   -8.6258   16.2950 C   0  0  0  0  0  0  0  0  0  0  0  0
    9.2861   -1.2743   25.3585 C   0  0  0  0  0  0  0  0  0  0  0  0
    1.8892  -10.3985   17.7511 N   0  0  0  0  0  0  0  0  0  0  0  0
    9.6210   -0.6952   24.0976 C   0  0  0  0  0  0  0  0  0  0  0  0
    7.0792   -9.0217   17.1429 C   0  0  0  0  0  0  0  0  0  0  0  0
    3.1713  -10.1816   17.6634 C   0  0  0  0  0  0  0  0  0  0  0  0
    2.7878   -8.3822   16.2137 C   0  0  0  0  0  0  0  0  0  0  0  0
    9.4601   -2.6590   25.6528 C   0  0  0  0  0  0  0  0  0  0  0  0
   10.1182   -1.5672   23.1165 C   0  0  0  0  0  0  0  0  0  0  0  0
    1.0552   -9.6360   17.0650 C   0  0  0  0  0  0  0  0  0  0  0  0
    3.6519   -9.1783   16.9039 C   0  0  0  0  0  0  0  0  0  0  0  0
    7.8675   -7.0096   15.9415 C   0  0  0  0  0  0  0  0  0  0  0  0
    5.9733   -9.6553   17.3832 N   0  0  0  0  0  0  0  0  0  0  0  0
   10.2411   -2.9363   23.4301 C   0  0  0  0  0  0  0  0  0  0  0  0
   10.7288   -3.8197   19.9525 C   0  0  0  0  0  0  0  0  0  0  0  0
   10.1189   -5.0054   19.6987 C   0  0  0  0  0  0  0  0  0  0  0  0
  1  3  4  0
  1  7  4  0
  2 21  4  0
  2 27  4  0
  3  9  4  0
  3 10  4  0
  4  8  4  0
  4 18  4  0
  4 25  1  0
  5  9  4  0
  5 12  4  0
  6 13  1  0
  6 27  1  0
  7 28  4  0
  8 11  4  0
  9 29  4  0
 10 12  4  0
 11 24  1  0
 11 26  4  0
 12 25  1  0
 13 28  1  0
 14 20  4  0
 14 23  4  0
 15 17  4  0
 15 21  4  0
 16 19  4  0
 16 23  4  0
 17 22  4  0
 18 26  4  0
 19 24  4  0
 20 24  4  0
 22 27  4  0
 28 29  4  0
M  END
$$$$

 Created by Python create_sdf_string function

 29 33  0  0  0  0  0  0  0  0999 V2000
   10.7215   -3.3326   17.6437 C   0  0  0  0  0  0  0  0  0  0  0  0
    9.9489   -3.4675   24.6487 N   0  0  0  0  0  0  0  0  0  0  0  0
   10.0172   -4.4740   17.4101 C   0  0  0  0  0  0  0  0  0  0  0  0
    6.9051   -7.9575   16.4222 C   0  0  0  0  0  0  0  0  0  0  0  0
    8.9969   -6.3552   17.9668 N   0  0  0  0  0  0  0  0  0  0  0  0
   10.6702   -3.9051   22.4070 C   0  0  0  0  0  0  0  0  0  0  0  0
   11.0625   -3.0028   18.8894 C   0  0  0  0  0  0  0  0  0  0  0  0
    5.6180   -7.9194   16.1754 O   0  0  0  0  0  0  0  0  0  0  0  0
    9.7259   -5.3080   18.4485 C   0  0  0  0  0  0  0  0  0  0  0  0
    9.4578   -5.0200   16.3036 N   0  0  0  0  0  0  0  0  0  0  0  0
    5.0287   -8.9365   16.8223 C   0  0  0  0  0  0  0  0  0  0  0  0
    8.7742   -6.1498   16.6764 C   0  0  0  0  0  0  0  0  0  0  0  0
   10.9418   -3.4032   21.2053 O   0  0  0  0  0  0  0  0  0  0  0  0
    1.4797   -8.6258   16.2950 C   0  0  0  0  0  0  0  0  0  0  0  0
    9.2861   -1.2743   25.3585 C   0  0  0  0  0  0  0  0  0  0  0  0
    1.8892  -10.3985   17.7511 N   0  0  0  0  0  0  0  0  0  0  0  0
    9.6210   -0.6952   24.0976 C   0  0  0  0  0  0  0  0  0  0  0  0
    7.0792   -9.0217   17.1429 C   0  0  0  0  0  0  0  0  0  0  0  0
    3.1713  -10.1816   17.6634 C   0  0  0  0  0  0  0  0  0  0  0  0
    2.7878   -8.3822   16.2137 C   0  0  0  0  0  0  0  0  0  0  0  0
    9.4601   -2.6590   25.6528 C   0  0  0  0  0  0  0  0  0  0  0  0
   10.1182   -1.5672   23.1165 C   0  0  0  0  0  0  0  0  0  0  0  0
    1.0552   -9.6360   17.0650 C   0  0  0  0  0  0  0  0  0  0  0  0
    3.6519   -9.1783   16.9039 C   0  0  0  0  0  0  0  0  0  0  0  0
    7.8675   -7.0096   15.9415 C   0  0  0  0  0  0  0  0  0  0  0  0
    5.9733   -9.6553   17.3832 N   0  0  0  0  0  0  0  0  0  0  0  0
   10.2411   -2.9363   23.4301 C   0  0  0  0  0  0  0  0  0  0  0  0
   10.7288   -3.8197   19.9525 C   0  0  0  0  0  0  0  0  0  0  0  0
   10.1189   -5.0054   19.6987 C   0  0  0  0  0  0  0  0  0  0  0  0
  1  3  4  0
  1  7  4  0
  2 21  4  0
  2 27  4  0
  3  9  4  0
  3 10  4  0
  4  8  4  0
  4 18  4  0
  4 25  1  0
  5  9  4  0
  5 12  4  0
  6 13  1  0
  6 27  1  0
  7 28  4  0
  8 11  4  0
  9 29  4  0
 10 12  4  0
 11 24  1  0
 11 26  4  0
 12 25  1  0
 13 28  1  0
 14 20  4  0
 14 23  4  0
 15 17  4  0
 15 21  4  0
 16 19  4  0
 16 23  4  0
 17 22  4  0
 18 26  4  0
 19 24  4  0
 20 24  4  0
 22 27  4  0
 28 29  4  0
M  END
$$$$

 Created by Python create_sdf_string function

 29 33  0  0  0  0  0  0  0  0999 V2000
   10.7215   -3.3326   17.6437 C   0  0  0  0  0  0  0  0  0  0  0  0
    9.9489   -3.4675   24.6487 N   0  0  0  0  0  0  0  0  0  0  0  0
   10.0172   -4.4740   17.4101 C   0  0  0  0  0  0  0  0  0  0  0  0
    6.9051   -7.9575   16.4222 C   0  0  0  0  0  0  0  0  0  0  0  0
    8.9969   -6.3552   17.9668 N   0  0  0  0  0  0  0  0  0  0  0  0
   10.6702   -3.9051   22.4070 C   0  0  0  0  0  0  0  0  0  0  0  0
   11.0625   -3.0028   18.8894 C   0  0  0  0  0  0  0  0  0  0  0  0
    5.6180   -7.9194   16.1754 O   0  0  0  0  0  0  0  0  0  0  0  0
    9.7259   -5.3080   18.4485 C   0  0  0  0  0  0  0  0  0  0  0  0
    9.4578   -5.0200   16.3036 N   0  0  0  0  0  0  0  0  0  0  0  0
    5.0287   -8.9365   16.8223 C   0  0  0  0  0  0  0  0  0  0  0  0
    8.7742   -6.1498   16.6764 C   0  0  0  0  0  0  0  0  0  0  0  0
   10.9418   -3.4032   21.2053 O   0  0  0  0  0  0  0  0  0  0  0  0
    1.4797   -8.6258   16.2950 C   0  0  0  0  0  0  0  0  0  0  0  0
    9.2861   -1.2743   25.3585 C   0  0  0  0  0  0  0  0  0  0  0  0
    1.8892  -10.3985   17.7511 N   0  0  0  0  0  0  0  0  0  0  0  0
    9.6210   -0.6952   24.0976 C   0  0  0  0  0  0  0  0  0  0  0  0
    7.0792   -9.0217   17.1429 C   0  0  0  0  0  0  0  0  0  0  0  0
    3.1713  -10.1816   17.6634 C   0  0  0  0  0  0  0  0  0  0  0  0
    2.7878   -8.3822   16.2137 C   0  0  0  0  0  0  0  0  0  0  0  0
    9.4601   -2.6590   25.6528 C   0  0  0  0  0  0  0  0  0  0  0  0
   10.1182   -1.5672   23.1165 C   0  0  0  0  0  0  0  0  0  0  0  0
    1.0552   -9.6360   17.0650 C   0  0  0  0  0  0  0  0  0  0  0  0
    3.6519   -9.1783   16.9039 C   0  0  0  0  0  0  0  0  0  0  0  0
    7.8675   -7.0096   15.9415 C   0  0  0  0  0  0  0  0  0  0  0  0
    5.9733   -9.6553   17.3832 N   0  0  0  0  0  0  0  0  0  0  0  0
   10.2411   -2.9363   23.4301 C   0  0  0  0  0  0  0  0  0  0  0  0
   10.7288   -3.8197   19.9525 C   0  0  0  0  0  0  0  0  0  0  0  0
   10.1189   -5.0054   19.6987 C   0  0  0  0  0  0  0  0  0  0  0  0
  1  3  4  0
  1  7  4  0
  2 21  4  0
  2 27  4  0
  3  9  4  0
  3 10  4  0
  4  8  4  0
  4 18  4  0
  4 25  1  0
  5  9  4  0
  5 12  4  0
  6 13  1  0
  6 27  1  0
  7 28  4  0
  8 11  4  0
  9 29  4  0
 10 12  4  0
 11 24  1  0
 11 26  4  0
 12 25  1  0
 13 28  1  0
 14 20  4  0
 14 23  4  0
 15 17  4  0
 15 21  4  0
 16 19  4  0
 16 23  4  0
 17 22  4  0
 18 26  4  0
 19 24  4  0
 20 24  4  0
 22 27  4  0
 28 29  4  0
M  END
$$$$

 Created by Python create_sdf_string function

 29 33  0  0  0  0  0  0  0  0999 V2000
   10.7215   -3.3326   17.6437 C   0  0  0  0  0  0  0  0  0  0  0  0
    9.9489   -3.4675   24.6487 N   0  0  0  0  0  0  0  0  0  0  0  0
   10.0172   -4.4740   17.4101 C   0  0  0  0  0  0  0  0  0  0  0  0
    6.9051   -7.9575   16.4222 C   0  0  0  0  0  0  0  0  0  0  0  0
    8.9969   -6.3552   17.9668 N   0  0  0  0  0  0  0  0  0  0  0  0
   10.6702   -3.9051   22.4070 C   0  0  0  0  0  0  0  0  0  0  0  0
   11.0625   -3.0028   18.8894 C   0  0  0  0  0  0  0  0  0  0  0  0
    5.6180   -7.9194   16.1754 O   0  0  0  0  0  0  0  0  0  0  0  0
    9.7259   -5.3080   18.4485 C   0  0  0  0  0  0  0  0  0  0  0  0
    9.4578   -5.0200   16.3036 N   0  0  0  0  0  0  0  0  0  0  0  0
    5.0287   -8.9365   16.8223 C   0  0  0  0  0  0  0  0  0  0  0  0
    8.7742   -6.1498   16.6764 C   0  0  0  0  0  0  0  0  0  0  0  0
   10.9418   -3.4032   21.2053 O   0  0  0  0  0  0  0  0  0  0  0  0
    1.4797   -8.6258   16.2950 C   0  0  0  0  0  0  0  0  0  0  0  0
    9.2861   -1.2743   25.3585 C   0  0  0  0  0  0  0  0  0  0  0  0
    1.8892  -10.3985   17.7511 N   0  0  0  0  0  0  0  0  0  0  0  0
    9.6210   -0.6952   24.0976 C   0  0  0  0  0  0  0  0  0  0  0  0
    7.0792   -9.0217   17.1429 C   0  0  0  0  0  0  0  0  0  0  0  0
    3.1713  -10.1816   17.6634 C   0  0  0  0  0  0  0  0  0  0  0  0
    2.7878   -8.3822   16.2137 C   0  0  0  0  0  0  0  0  0  0  0  0
    9.4601   -2.6590   25.6528 C   0  0  0  0  0  0  0  0  0  0  0  0
   10.1182   -1.5672   23.1165 C   0  0  0  0  0  0  0  0  0  0  0  0
    1.0552   -9.6360   17.0650 C   0  0  0  0  0  0  0  0  0  0  0  0
    3.6519   -9.1783   16.9039 C   0  0  0  0  0  0  0  0  0  0  0  0
    7.8675   -7.0096   15.9415 C   0  0  0  0  0  0  0  0  0  0  0  0
    5.9733   -9.6553   17.3832 N   0  0  0  0  0  0  0  0  0  0  0  0
   10.2411   -2.9363   23.4301 C   0  0  0  0  0  0  0  0  0  0  0  0
   10.7288   -3.8197   19.9525 C   0  0  0  0  0  0  0  0  0  0  0  0
   10.1189   -5.0054   19.6987 C   0  0  0  0  0  0  0  0  0  0  0  0
  1  3  4  0
  1  7  4  0
  2 21  4  0
  2 27  4  0
  3  9  4  0
  3 10  4  0
  4  8  4  0
  4 18  4  0
  4 25  1  0
  5  9  4  0
  5 12  4  0
  6 13  1  0
  6 27  1  0
  7 28  4  0
  8 11  4  0
  9 29  4  0
 10 12  4  0
 11 24  1  0
 11 26  4  0
 12 25  1  0
 13 28  1  0
 14 20  4  0
 14 23  4  0
 15 17  4  0
 15 21  4  0
 16 19  4  0
 16 23  4  0
 17 22  4  0
 18 26  4  0
 19 24  4  0
 20 24  4  0
 22 27  4  0
 28 29  4  0
M  END
$$$$

 Created by Python create_sdf_string function

 29 33  0  0  0  0  0  0  0  0999 V2000
   10.7215   -3.3326   17.6437 C   0  0  0  0  0  0  0  0  0  0  0  0
    9.9489   -3.4675   24.6487 N   0  0  0  0  0  0  0  0  0  0  0  0
   10.0172   -4.4740   17.4101 C   0  0  0  0  0  0  0  0  0  0  0  0
    6.9051   -7.9575   16.4222 C   0  0  0  0  0  0  0  0  0  0  0  0
    8.9969   -6.3552   17.9668 N   0  0  0  0  0  0  0  0  0  0  0  0
   10.6702   -3.9051   22.4070 C   0  0  0  0  0  0  0  0  0  0  0  0
   11.0625   -3.0028   18.8894 C   0  0  0  0  0  0  0  0  0  0  0  0
    5.6180   -7.9194   16.1754 O   0  0  0  0  0  0  0  0  0  0  0  0
    9.7259   -5.3080   18.4485 C   0  0  0  0  0  0  0  0  0  0  0  0
    9.4578   -5.0200   16.3036 N   0  0  0  0  0  0  0  0  0  0  0  0
    5.0287   -8.9365   16.8223 C   0  0  0  0  0  0  0  0  0  0  0  0
    8.7742   -6.1498   16.6764 C   0  0  0  0  0  0  0  0  0  0  0  0
   10.9418   -3.4032   21.2053 O   0  0  0  0  0  0  0  0  0  0  0  0
    1.4797   -8.6258   16.2950 C   0  0  0  0  0  0  0  0  0  0  0  0
    9.2861   -1.2743   25.3585 C   0  0  0  0  0  0  0  0  0  0  0  0
    1.8892  -10.3985   17.7511 N   0  0  0  0  0  0  0  0  0  0  0  0
    9.6210   -0.6952   24.0976 C   0  0  0  0  0  0  0  0  0  0  0  0
    7.0792   -9.0217   17.1429 C   0  0  0  0  0  0  0  0  0  0  0  0
    3.1713  -10.1816   17.6634 C   0  0  0  0  0  0  0  0  0  0  0  0
    2.7878   -8.3822   16.2137 C   0  0  0  0  0  0  0  0  0  0  0  0
    9.4601   -2.6590   25.6528 C   0  0  0  0  0  0  0  0  0  0  0  0
   10.1182   -1.5672   23.1165 C   0  0  0  0  0  0  0  0  0  0  0  0
    1.0552   -9.6360   17.0650 C   0  0  0  0  0  0  0  0  0  0  0  0
    3.6519   -9.1783   16.9039 C   0  0  0  0  0  0  0  0  0  0  0  0
    7.8675   -7.0096   15.9415 C   0  0  0  0  0  0  0  0  0  0  0  0
    5.9733   -9.6553   17.3832 N   0  0  0  0  0  0  0  0  0  0  0  0
   10.2411   -2.9363   23.4301 C   0  0  0  0  0  0  0  0  0  0  0  0
   10.7288   -3.8197   19.9525 C   0  0  0  0  0  0  0  0  0  0  0  0
   10.1189   -5.0054   19.6987 C   0  0  0  0  0  0  0  0  0  0  0  0
  1  3  4  0
  1  7  4  0
  2 21  4  0
  2 27  4  0
  3  9  4  0
  3 10  4  0
  4  8  4  0
  4 18  4  0
  4 25  1  0
  5  9  4  0
  5 12  4  0
  6 13  1  0
  6 27  1  0
  7 28  4  0
  8 11  4  0
  9 29  4  0
 10 12  4  0
 11 24  1  0
 11 26  4  0
 12 25  1  0
 13 28  1  0
 14 20  4  0
 14 23  4  0
 15 17  4  0
 15 21  4  0
 16 19  4  0
 16 23  4  0
 17 22  4  0
 18 26  4  0
 19 24  4  0
 20 24  4  0
 22 27  4  0
 28 29  4  0
M  END
$$$$

 Created by Python create_sdf_string function

 29 33  0  0  0  0  0  0  0  0999 V2000
   10.7215   -3.3326   17.6437 C   0  0  0  0  0  0  0  0  0  0  0  0
    9.9489   -3.4675   24.6487 N   0  0  0  0  0  0  0  0  0  0  0  0
   10.0172   -4.4740   17.4101 C   0  0  0  0  0  0  0  0  0  0  0  0
    6.9051   -7.9575   16.4222 C   0  0  0  0  0  0  0  0  0  0  0  0
    8.9969   -6.3552   17.9668 N   0  0  0  0  0  0  0  0  0  0  0  0
   10.6702   -3.9051   22.4070 C   0  0  0  0  0  0  0  0  0  0  0  0
   11.0625   -3.0028   18.8894 C   0  0  0  0  0  0  0  0  0  0  0  0
    5.6180   -7.9194   16.1754 O   0  0  0  0  0  0  0  0  0  0  0  0
    9.7259   -5.3080   18.4485 C   0  0  0  0  0  0  0  0  0  0  0  0
    9.4578   -5.0200   16.3036 N   0  0  0  0  0  0  0  0  0  0  0  0
    5.0287   -8.9365   16.8223 C   0  0  0  0  0  0  0  0  0  0  0  0
    8.7742   -6.1498   16.6764 C   0  0  0  0  0  0  0  0  0  0  0  0
   10.9418   -3.4032   21.2053 O   0  0  0  0  0  0  0  0  0  0  0  0
    1.4797   -8.6258   16.2950 C   0  0  0  0  0  0  0  0  0  0  0  0
    9.2861   -1.2743   25.3585 C   0  0  0  0  0  0  0  0  0  0  0  0
    1.8892  -10.3985   17.7511 N   0  0  0  0  0  0  0  0  0  0  0  0
    9.6210   -0.6952   24.0976 C   0  0  0  0  0  0  0  0  0  0  0  0
    7.0792   -9.0217   17.1429 C   0  0  0  0  0  0  0  0  0  0  0  0
    3.1713  -10.1816   17.6634 C   0  0  0  0  0  0  0  0  0  0  0  0
    2.7878   -8.3822   16.2137 C   0  0  0  0  0  0  0  0  0  0  0  0
    9.4601   -2.6590   25.6528 C   0  0  0  0  0  0  0  0  0  0  0  0
   10.1182   -1.5672   23.1165 C   0  0  0  0  0  0  0  0  0  0  0  0
    1.0552   -9.6360   17.0650 C   0  0  0  0  0  0  0  0  0  0  0  0
    3.6519   -9.1783   16.9039 C   0  0  0  0  0  0  0  0  0  0  0  0
    7.8675   -7.0096   15.9415 C   0  0  0  0  0  0  0  0  0  0  0  0
    5.9733   -9.6553   17.3832 N   0  0  0  0  0  0  0  0  0  0  0  0
   10.2411   -2.9363   23.4301 C   0  0  0  0  0  0  0  0  0  0  0  0
   10.7288   -3.8197   19.9525 C   0  0  0  0  0  0  0  0  0  0  0  0
   10.1189   -5.0054   19.6987 C   0  0  0  0  0  0  0  0  0  0  0  0
  1  3  4  0
  1  7  4  0
  2 21  4  0
  2 27  4  0
  3  9  4  0
  3 10  4  0
  4  8  4  0
  4 18  4  0
  4 25  1  0
  5  9  4  0
  5 12  4  0
  6 13  1  0
  6 27  1  0
  7 28  4  0
  8 11  4  0
  9 29  4  0
 10 12  4  0
 11 24  1  0
 11 26  4  0
 12 25  1  0
 13 28  1  0
 14 20  4  0
 14 23  4  0
 15 17  4  0
 15 21  4  0
 16 19  4  0
 16 23  4  0
 17 22  4  0
 18 26  4  0
 19 24  4  0
 20 24  4  0
 22 27  4  0
 28 29  4  0
M  END
$$$$

 Created by Python create_sdf_string function

 29 33  0  0  0  0  0  0  0  0999 V2000
   10.7215   -3.3326   17.6437 C   0  0  0  0  0  0  0  0  0  0  0  0
    9.9489   -3.4675   24.6487 N   0  0  0  0  0  0  0  0  0  0  0  0
   10.0172   -4.4740   17.4101 C   0  0  0  0  0  0  0  0  0  0  0  0
    6.9051   -7.9575   16.4222 C   0  0  0  0  0  0  0  0  0  0  0  0
    8.9969   -6.3552   17.9668 N   0  0  0  0  0  0  0  0  0  0  0  0
   10.6702   -3.9051   22.4070 C   0  0  0  0  0  0  0  0  0  0  0  0
   11.0625   -3.0028   18.8894 C   0  0  0  0  0  0  0  0  0  0  0  0
    5.6180   -7.9194   16.1754 O   0  0  0  0  0  0  0  0  0  0  0  0
    9.7259   -5.3080   18.4485 C   0  0  0  0  0  0  0  0  0  0  0  0
    9.4578   -5.0200   16.3036 N   0  0  0  0  0  0  0  0  0  0  0  0
    5.0287   -8.9365   16.8223 C   0  0  0  0  0  0  0  0  0  0  0  0
    8.7742   -6.1498   16.6764 C   0  0  0  0  0  0  0  0  0  0  0  0
   10.9418   -3.4032   21.2053 O   0  0  0  0  0  0  0  0  0  0  0  0
    1.4797   -8.6258   16.2950 C   0  0  0  0  0  0  0  0  0  0  0  0
    9.2861   -1.2743   25.3585 C   0  0  0  0  0  0  0  0  0  0  0  0
    1.8892  -10.3985   17.7511 N   0  0  0  0  0  0  0  0  0  0  0  0
    9.6210   -0.6952   24.0976 C   0  0  0  0  0  0  0  0  0  0  0  0
    7.0792   -9.0217   17.1429 C   0  0  0  0  0  0  0  0  0  0  0  0
    3.1713  -10.1816   17.6634 C   0  0  0  0  0  0  0  0  0  0  0  0
    2.7878   -8.3822   16.2137 C   0  0  0  0  0  0  0  0  0  0  0  0
    9.4601   -2.6590   25.6528 C   0  0  0  0  0  0  0  0  0  0  0  0
   10.1182   -1.5672   23.1165 C   0  0  0  0  0  0  0  0  0  0  0  0
    1.0552   -9.6360   17.0650 C   0  0  0  0  0  0  0  0  0  0  0  0
    3.6519   -9.1783   16.9039 C   0  0  0  0  0  0  0  0  0  0  0  0
    7.8675   -7.0096   15.9415 C   0  0  0  0  0  0  0  0  0  0  0  0
    5.9733   -9.6553   17.3832 N   0  0  0  0  0  0  0  0  0  0  0  0
   10.2411   -2.9363   23.4301 C   0  0  0  0  0  0  0  0  0  0  0  0
   10.7288   -3.8197   19.9525 C   0  0  0  0  0  0  0  0  0  0  0  0
   10.1189   -5.0054   19.6987 C   0  0  0  0  0  0  0  0  0  0  0  0
  1  3  4  0
  1  7  4  0
  2 21  4  0
  2 27  4  0
  3  9  4  0
  3 10  4  0
  4  8  4  0
  4 18  4  0
  4 25  1  0
  5  9  4  0
  5 12  4  0
  6 13  1  0
  6 27  1  0
  7 28  4  0
  8 11  4  0
  9 29  4  0
 10 12  4  0
 11 24  1  0
 11 26  4  0
 12 25  1  0
 13 28  1  0
 14 20  4  0
 14 23  4  0
 15 17  4  0
 15 21  4  0
 16 19  4  0
 16 23  4  0
 17 22  4  0
 18 26  4  0
 19 24  4  0
 20 24  4  0
 22 27  4  0
 28 29  4  0
M  END
$$$$

 Created by Python create_sdf_string function

 29 33  0  0  0  0  0  0  0  0999 V2000
   10.7215   -3.3326   17.6437 C   0  0  0  0  0  0  0  0  0  0  0  0
    9.9489   -3.4675   24.6487 N   0  0  0  0  0  0  0  0  0  0  0  0
   10.0172   -4.4740   17.4101 C   0  0  0  0  0  0  0  0  0  0  0  0
    6.9051   -7.9575   16.4222 C   0  0  0  0  0  0  0  0  0  0  0  0
    8.9969   -6.3552   17.9668 N   0  0  0  0  0  0  0  0  0  0  0  0
   10.6702   -3.9051   22.4070 C   0  0  0  0  0  0  0  0  0  0  0  0
   11.0625   -3.0028   18.8894 C   0  0  0  0  0  0  0  0  0  0  0  0
    5.6180   -7.9194   16.1754 O   0  0  0  0  0  0  0  0  0  0  0  0
    9.7259   -5.3080   18.4485 C   0  0  0  0  0  0  0  0  0  0  0  0
    9.4578   -5.0200   16.3036 N   0  0  0  0  0  0  0  0  0  0  0  0
    5.0287   -8.9365   16.8223 C   0  0  0  0  0  0  0  0  0  0  0  0
    8.7742   -6.1498   16.6764 C   0  0  0  0  0  0  0  0  0  0  0  0
   10.9418   -3.4032   21.2053 O   0  0  0  0  0  0  0  0  0  0  0  0
    1.4797   -8.6258   16.2950 C   0  0  0  0  0  0  0  0  0  0  0  0
    9.2861   -1.2743   25.3585 C   0  0  0  0  0  0  0  0  0  0  0  0
    1.8892  -10.3985   17.7511 N   0  0  0  0  0  0  0  0  0  0  0  0
    9.6210   -0.6952   24.0976 C   0  0  0  0  0  0  0  0  0  0  0  0
    7.0792   -9.0217   17.1429 C   0  0  0  0  0  0  0  0  0  0  0  0
    3.1713  -10.1816   17.6634 C   0  0  0  0  0  0  0  0  0  0  0  0
    2.7878   -8.3822   16.2137 C   0  0  0  0  0  0  0  0  0  0  0  0
    9.4601   -2.6590   25.6528 C   0  0  0  0  0  0  0  0  0  0  0  0
   10.1182   -1.5672   23.1165 C   0  0  0  0  0  0  0  0  0  0  0  0
    1.0552   -9.6360   17.0650 C   0  0  0  0  0  0  0  0  0  0  0  0
    3.6519   -9.1783   16.9039 C   0  0  0  0  0  0  0  0  0  0  0  0
    7.8675   -7.0096   15.9415 C   0  0  0  0  0  0  0  0  0  0  0  0
    5.9733   -9.6553   17.3832 N   0  0  0  0  0  0  0  0  0  0  0  0
   10.2411   -2.9363   23.4301 C   0  0  0  0  0  0  0  0  0  0  0  0
   10.7288   -3.8197   19.9525 C   0  0  0  0  0  0  0  0  0  0  0  0
   10.1189   -5.0054   19.6987 C   0  0  0  0  0  0  0  0  0  0  0  0
  1  3  4  0
  1  7  4  0
  2 21  4  0
  2 27  4  0
  3  9  4  0
  3 10  4  0
  4  8  4  0
  4 18  4  0
  4 25  1  0
  5  9  4  0
  5 12  4  0
  6 13  1  0
  6 27  1  0
  7 28  4  0
  8 11  4  0
  9 29  4  0
 10 12  4  0
 11 24  1  0
 11 26  4  0
 12 25  1  0
 13 28  1  0
 14 20  4  0
 14 23  4  0
 15 17  4  0
 15 21  4  0
 16 19  4  0
 16 23  4  0
 17 22  4  0
 18 26  4  0
 19 24  4  0
 20 24  4  0
 22 27  4  0
 28 29  4  0
M  END
$$$$

 Created by Python create_sdf_string function

 29 33  0  0  0  0  0  0  0  0999 V2000
   10.7215   -3.3326   17.6437 C   0  0  0  0  0  0  0  0  0  0  0  0
    9.9489   -3.4675   24.6487 N   0  0  0  0  0  0  0  0  0  0  0  0
   10.0172   -4.4740   17.4101 C   0  0  0  0  0  0  0  0  0  0  0  0
    6.9051   -7.9575   16.4222 C   0  0  0  0  0  0  0  0  0  0  0  0
    8.9969   -6.3552   17.9668 N   0  0  0  0  0  0  0  0  0  0  0  0
   10.6702   -3.9051   22.4070 C   0  0  0  0  0  0  0  0  0  0  0  0
   11.0625   -3.0028   18.8894 C   0  0  0  0  0  0  0  0  0  0  0  0
    5.6180   -7.9194   16.1754 O   0  0  0  0  0  0  0  0  0  0  0  0
    9.7259   -5.3080   18.4485 C   0  0  0  0  0  0  0  0  0  0  0  0
    9.4578   -5.0200   16.3036 N   0  0  0  0  0  0  0  0  0  0  0  0
    5.0287   -8.9365   16.8223 C   0  0  0  0  0  0  0  0  0  0  0  0
    8.7742   -6.1498   16.6764 C   0  0  0  0  0  0  0  0  0  0  0  0
   10.9418   -3.4032   21.2053 O   0  0  0  0  0  0  0  0  0  0  0  0
    1.4797   -8.6258   16.2950 C   0  0  0  0  0  0  0  0  0  0  0  0
    9.2861   -1.2743   25.3585 C   0  0  0  0  0  0  0  0  0  0  0  0
    1.8892  -10.3985   17.7511 N   0  0  0  0  0  0  0  0  0  0  0  0
    9.6210   -0.6952   24.0976 C   0  0  0  0  0  0  0  0  0  0  0  0
    7.0792   -9.0217   17.1429 C   0  0  0  0  0  0  0  0  0  0  0  0
    3.1713  -10.1816   17.6634 C   0  0  0  0  0  0  0  0  0  0  0  0
    2.7878   -8.3822   16.2137 C   0  0  0  0  0  0  0  0  0  0  0  0
    9.4601   -2.6590   25.6528 C   0  0  0  0  0  0  0  0  0  0  0  0
   10.1182   -1.5672   23.1165 C   0  0  0  0  0  0  0  0  0  0  0  0
    1.0552   -9.6360   17.0650 C   0  0  0  0  0  0  0  0  0  0  0  0
    3.6519   -9.1783   16.9039 C   0  0  0  0  0  0  0  0  0  0  0  0
    7.8675   -7.0096   15.9415 C   0  0  0  0  0  0  0  0  0  0  0  0
    5.9733   -9.6553   17.3832 N   0  0  0  0  0  0  0  0  0  0  0  0
   10.2411   -2.9363   23.4301 C   0  0  0  0  0  0  0  0  0  0  0  0
   10.7288   -3.8197   19.9525 C   0  0  0  0  0  0  0  0  0  0  0  0
   10.1189   -5.0054   19.6987 C   0  0  0  0  0  0  0  0  0  0  0  0
  1  3  4  0
  1  7  4  0
  2 21  4  0
  2 27  4  0
  3  9  4  0
  3 10  4  0
  4  8  4  0
  4 18  4  0
  4 25  1  0
  5  9  4  0
  5 12  4  0
  6 13  1  0
  6 27  1  0
  7 28  4  0
  8 11  4  0
  9 29  4  0
 10 12  4  0
 11 24  1  0
 11 26  4  0
 12 25  1  0
 13 28  1  0
 14 20  4  0
 14 23  4  0
 15 17  4  0
 15 21  4  0
 16 19  4  0
 16 23  4  0
 17 22  4  0
 18 26  4  0
 19 24  4  0
 20 24  4  0
 22 27  4  0
 28 29  4  0
M  END
$$$$

 Created by Python create_sdf_string function

 29 33  0  0  0  0  0  0  0  0999 V2000
   10.7215   -3.3326   17.6437 C   0  0  0  0  0  0  0  0  0  0  0  0
    9.9489   -3.4675   24.6487 N   0  0  0  0  0  0  0  0  0  0  0  0
   10.0172   -4.4740   17.4101 C   0  0  0  0  0  0  0  0  0  0  0  0
    6.9051   -7.9575   16.4222 C   0  0  0  0  0  0  0  0  0  0  0  0
    8.9969   -6.3552   17.9668 N   0  0  0  0  0  0  0  0  0  0  0  0
   10.6702   -3.9051   22.4070 C   0  0  0  0  0  0  0  0  0  0  0  0
   11.0625   -3.0028   18.8894 C   0  0  0  0  0  0  0  0  0  0  0  0
    5.6180   -7.9194   16.1754 O   0  0  0  0  0  0  0  0  0  0  0  0
    9.7259   -5.3080   18.4485 C   0  0  0  0  0  0  0  0  0  0  0  0
    9.4578   -5.0200   16.3036 N   0  0  0  0  0  0  0  0  0  0  0  0
    5.0287   -8.9365   16.8223 C   0  0  0  0  0  0  0  0  0  0  0  0
    8.7742   -6.1498   16.6764 C   0  0  0  0  0  0  0  0  0  0  0  0
   10.9418   -3.4032   21.2053 O   0  0  0  0  0  0  0  0  0  0  0  0
    1.4797   -8.6258   16.2950 C   0  0  0  0  0  0  0  0  0  0  0  0
    9.2861   -1.2743   25.3585 C   0  0  0  0  0  0  0  0  0  0  0  0
    1.8892  -10.3985   17.7511 N   0  0  0  0  0  0  0  0  0  0  0  0
    9.6210   -0.6952   24.0976 C   0  0  0  0  0  0  0  0  0  0  0  0
    7.0792   -9.0217   17.1429 C   0  0  0  0  0  0  0  0  0  0  0  0
    3.1713  -10.1816   17.6634 C   0  0  0  0  0  0  0  0  0  0  0  0
    2.7878   -8.3822   16.2137 C   0  0  0  0  0  0  0  0  0  0  0  0
    9.4601   -2.6590   25.6528 C   0  0  0  0  0  0  0  0  0  0  0  0
   10.1182   -1.5672   23.1165 C   0  0  0  0  0  0  0  0  0  0  0  0
    1.0552   -9.6360   17.0650 C   0  0  0  0  0  0  0  0  0  0  0  0
    3.6519   -9.1783   16.9039 C   0  0  0  0  0  0  0  0  0  0  0  0
    7.8675   -7.0096   15.9415 C   0  0  0  0  0  0  0  0  0  0  0  0
    5.9733   -9.6553   17.3832 N   0  0  0  0  0  0  0  0  0  0  0  0
   10.2411   -2.9363   23.4301 C   0  0  0  0  0  0  0  0  0  0  0  0
   10.7288   -3.8197   19.9525 C   0  0  0  0  0  0  0  0  0  0  0  0
   10.1189   -5.0054   19.6987 C   0  0  0  0  0  0  0  0  0  0  0  0
  1  3  4  0
  1  7  4  0
  2 21  4  0
  2 27  4  0
  3  9  4  0
  3 10  4  0
  4  8  4  0
  4 18  4  0
  4 25  1  0
  5  9  4  0
  5 12  4  0
  6 13  1  0
  6 27  1  0
  7 28  4  0
  8 11  4  0
  9 29  4  0
 10 12  4  0
 11 24  1  0
 11 26  4  0
 12 25  1  0
 13 28  1  0
 14 20  4  0
 14 23  4  0
 15 17  4  0
 15 21  4  0
 16 19  4  0
 16 23  4  0
 17 22  4  0
 18 26  4  0
 19 24  4  0
 20 24  4  0
 22 27  4  0
 28 29  4  0
M  END
$$$$

 Created by Python create_sdf_string function

 29 33  0  0  0  0  0  0  0  0999 V2000
   10.7215   -3.3326   17.6437 C   0  0  0  0  0  0  0  0  0  0  0  0
    9.9489   -3.4675   24.6487 N   0  0  0  0  0  0  0  0  0  0  0  0
   10.0172   -4.4740   17.4101 C   0  0  0  0  0  0  0  0  0  0  0  0
    6.9051   -7.9575   16.4222 C   0  0  0  0  0  0  0  0  0  0  0  0
    8.9969   -6.3552   17.9668 N   0  0  0  0  0  0  0  0  0  0  0  0
   10.6702   -3.9051   22.4070 C   0  0  0  0  0  0  0  0  0  0  0  0
   11.0625   -3.0028   18.8894 C   0  0  0  0  0  0  0  0  0  0  0  0
    5.6180   -7.9194   16.1754 O   0  0  0  0  0  0  0  0  0  0  0  0
    9.7259   -5.3080   18.4485 C   0  0  0  0  0  0  0  0  0  0  0  0
    9.4578   -5.0200   16.3036 N   0  0  0  0  0  0  0  0  0  0  0  0
    5.0287   -8.9365   16.8223 C   0  0  0  0  0  0  0  0  0  0  0  0
    8.7742   -6.1498   16.6764 C   0  0  0  0  0  0  0  0  0  0  0  0
   10.9418   -3.4032   21.2053 O   0  0  0  0  0  0  0  0  0  0  0  0
    1.4797   -8.6258   16.2950 C   0  0  0  0  0  0  0  0  0  0  0  0
    9.2861   -1.2743   25.3585 C   0  0  0  0  0  0  0  0  0  0  0  0
    1.8892  -10.3985   17.7511 N   0  0  0  0  0  0  0  0  0  0  0  0
    9.6210   -0.6952   24.0976 C   0  0  0  0  0  0  0  0  0  0  0  0
    7.0792   -9.0217   17.1429 C   0  0  0  0  0  0  0  0  0  0  0  0
    3.1713  -10.1816   17.6634 C   0  0  0  0  0  0  0  0  0  0  0  0
    2.7878   -8.3822   16.2137 C   0  0  0  0  0  0  0  0  0  0  0  0
    9.4601   -2.6590   25.6528 C   0  0  0  0  0  0  0  0  0  0  0  0
   10.1182   -1.5672   23.1165 C   0  0  0  0  0  0  0  0  0  0  0  0
    1.0552   -9.6360   17.0650 C   0  0  0  0  0  0  0  0  0  0  0  0
    3.6519   -9.1783   16.9039 C   0  0  0  0  0  0  0  0  0  0  0  0
    7.8675   -7.0096   15.9415 C   0  0  0  0  0  0  0  0  0  0  0  0
    5.9733   -9.6553   17.3832 N   0  0  0  0  0  0  0  0  0  0  0  0
   10.2411   -2.9363   23.4301 C   0  0  0  0  0  0  0  0  0  0  0  0
   10.7288   -3.8197   19.9525 C   0  0  0  0  0  0  0  0  0  0  0  0
   10.1189   -5.0054   19.6987 C   0  0  0  0  0  0  0  0  0  0  0  0
  1  3  4  0
  1  7  4  0
  2 21  4  0
  2 27  4  0
  3  9  4  0
  3 10  4  0
  4  8  4  0
  4 18  4  0
  4 25  1  0
  5  9  4  0
  5 12  4  0
  6 13  1  0
  6 27  1  0
  7 28  4  0
  8 11  4  0
  9 29  4  0
 10 12  4  0
 11 24  1  0
 11 26  4  0
 12 25  1  0
 13 28  1  0
 14 20  4  0
 14 23  4  0
 15 17  4  0
 15 21  4  0
 16 19  4  0
 16 23  4  0
 17 22  4  0
 18 26  4  0
 19 24  4  0
 20 24  4  0
 22 27  4  0
 28 29  4  0
M  END
$$$$

 Created by Python create_sdf_string function

 29 33  0  0  0  0  0  0  0  0999 V2000
   10.7215   -3.3326   17.6437 C   0  0  0  0  0  0  0  0  0  0  0  0
    9.9489   -3.4675   24.6487 N   0  0  0  0  0  0  0  0  0  0  0  0
   10.0172   -4.4740   17.4101 C   0  0  0  0  0  0  0  0  0  0  0  0
    6.9051   -7.9575   16.4222 C   0  0  0  0  0  0  0  0  0  0  0  0
    8.9969   -6.3552   17.9668 N   0  0  0  0  0  0  0  0  0  0  0  0
   10.6702   -3.9051   22.4070 C   0  0  0  0  0  0  0  0  0  0  0  0
   11.0625   -3.0028   18.8894 C   0  0  0  0  0  0  0  0  0  0  0  0
    5.6180   -7.9194   16.1754 O   0  0  0  0  0  0  0  0  0  0  0  0
    9.7259   -5.3080   18.4485 C   0  0  0  0  0  0  0  0  0  0  0  0
    9.4578   -5.0200   16.3036 N   0  0  0  0  0  0  0  0  0  0  0  0
    5.0287   -8.9365   16.8223 C   0  0  0  0  0  0  0  0  0  0  0  0
    8.7742   -6.1498   16.6764 C   0  0  0  0  0  0  0  0  0  0  0  0
   10.9418   -3.4032   21.2053 O   0  0  0  0  0  0  0  0  0  0  0  0
    1.4797   -8.6258   16.2950 C   0  0  0  0  0  0  0  0  0  0  0  0
    9.2861   -1.2743   25.3585 C   0  0  0  0  0  0  0  0  0  0  0  0
    1.8892  -10.3985   17.7511 N   0  0  0  0  0  0  0  0  0  0  0  0
    9.6210   -0.6952   24.0976 C   0  0  0  0  0  0  0  0  0  0  0  0
    7.0792   -9.0217   17.1429 C   0  0  0  0  0  0  0  0  0  0  0  0
    3.1713  -10.1816   17.6634 C   0  0  0  0  0  0  0  0  0  0  0  0
    2.7878   -8.3822   16.2137 C   0  0  0  0  0  0  0  0  0  0  0  0
    9.4601   -2.6590   25.6528 C   0  0  0  0  0  0  0  0  0  0  0  0
   10.1182   -1.5672   23.1165 C   0  0  0  0  0  0  0  0  0  0  0  0
    1.0552   -9.6360   17.0650 C   0  0  0  0  0  0  0  0  0  0  0  0
    3.6519   -9.1783   16.9039 C   0  0  0  0  0  0  0  0  0  0  0  0
    7.8675   -7.0096   15.9415 C   0  0  0  0  0  0  0  0  0  0  0  0
    5.9733   -9.6553   17.3832 N   0  0  0  0  0  0  0  0  0  0  0  0
   10.2411   -2.9363   23.4301 C   0  0  0  0  0  0  0  0  0  0  0  0
   10.7288   -3.8197   19.9525 C   0  0  0  0  0  0  0  0  0  0  0  0
   10.1189   -5.0054   19.6987 C   0  0  0  0  0  0  0  0  0  0  0  0
  1  3  4  0
  1  7  4  0
  2 21  4  0
  2 27  4  0
  3  9  4  0
  3 10  4  0
  4  8  4  0
  4 18  4  0
  4 25  1  0
  5  9  4  0
  5 12  4  0
  6 13  1  0
  6 27  1  0
  7 28  4  0
  8 11  4  0
  9 29  4  0
 10 12  4  0
 11 24  1  0
 11 26  4  0
 12 25  1  0
 13 28  1  0
 14 20  4  0
 14 23  4  0
 15 17  4  0
 15 21  4  0
 16 19  4  0
 16 23  4  0
 17 22  4  0
 18 26  4  0
 19 24  4  0
 20 24  4  0
 22 27  4  0
 28 29  4  0
M  END
$$$$

 Created by Python create_sdf_string function

 29 33  0  0  0  0  0  0  0  0999 V2000
   10.7215   -3.3326   17.6437 C   0  0  0  0  0  0  0  0  0  0  0  0
    9.9489   -3.4675   24.6487 N   0  0  0  0  0  0  0  0  0  0  0  0
   10.0172   -4.4740   17.4101 C   0  0  0  0  0  0  0  0  0  0  0  0
    6.9051   -7.9575   16.4222 C   0  0  0  0  0  0  0  0  0  0  0  0
    8.9969   -6.3552   17.9668 N   0  0  0  0  0  0  0  0  0  0  0  0
   10.6702   -3.9051   22.4070 C   0  0  0  0  0  0  0  0  0  0  0  0
   11.0625   -3.0028   18.8894 C   0  0  0  0  0  0  0  0  0  0  0  0
    5.6180   -7.9194   16.1754 O   0  0  0  0  0  0  0  0  0  0  0  0
    9.7259   -5.3080   18.4485 C   0  0  0  0  0  0  0  0  0  0  0  0
    9.4578   -5.0200   16.3036 N   0  0  0  0  0  0  0  0  0  0  0  0
    5.0287   -8.9365   16.8223 C   0  0  0  0  0  0  0  0  0  0  0  0
    8.7742   -6.1498   16.6764 C   0  0  0  0  0  0  0  0  0  0  0  0
   10.9418   -3.4032   21.2053 O   0  0  0  0  0  0  0  0  0  0  0  0
    1.4797   -8.6258   16.2950 C   0  0  0  0  0  0  0  0  0  0  0  0
    9.2861   -1.2743   25.3585 C   0  0  0  0  0  0  0  0  0  0  0  0
    1.8892  -10.3985   17.7511 N   0  0  0  0  0  0  0  0  0  0  0  0
    9.6210   -0.6952   24.0976 C   0  0  0  0  0  0  0  0  0  0  0  0
    7.0792   -9.0217   17.1429 C   0  0  0  0  0  0  0  0  0  0  0  0
    3.1713  -10.1816   17.6634 C   0  0  0  0  0  0  0  0  0  0  0  0
    2.7878   -8.3822   16.2137 C   0  0  0  0  0  0  0  0  0  0  0  0
    9.4601   -2.6590   25.6528 C   0  0  0  0  0  0  0  0  0  0  0  0
   10.1182   -1.5672   23.1165 C   0  0  0  0  0  0  0  0  0  0  0  0
    1.0552   -9.6360   17.0650 C   0  0  0  0  0  0  0  0  0  0  0  0
    3.6519   -9.1783   16.9039 C   0  0  0  0  0  0  0  0  0  0  0  0
    7.8675   -7.0096   15.9415 C   0  0  0  0  0  0  0  0  0  0  0  0
    5.9733   -9.6553   17.3832 N   0  0  0  0  0  0  0  0  0  0  0  0
   10.2411   -2.9363   23.4301 C   0  0  0  0  0  0  0  0  0  0  0  0
   10.7288   -3.8197   19.9525 C   0  0  0  0  0  0  0  0  0  0  0  0
   10.1189   -5.0054   19.6987 C   0  0  0  0  0  0  0  0  0  0  0  0
  1  3  4  0
  1  7  4  0
  2 21  4  0
  2 27  4  0
  3  9  4  0
  3 10  4  0
  4  8  4  0
  4 18  4  0
  4 25  1  0
  5  9  4  0
  5 12  4  0
  6 13  1  0
  6 27  1  0
  7 28  4  0
  8 11  4  0
  9 29  4  0
 10 12  4  0
 11 24  1  0
 11 26  4  0
 12 25  1  0
 13 28  1  0
 14 20  4  0
 14 23  4  0
 15 17  4  0
 15 21  4  0
 16 19  4  0
 16 23  4  0
 17 22  4  0
 18 26  4  0
 19 24  4  0
 20 24  4  0
 22 27  4  0
 28 29  4  0
M  END
$$$$

 Created by Python create_sdf_string function

 29 33  0  0  0  0  0  0  0  0999 V2000
   10.7215   -3.3326   17.6437 C   0  0  0  0  0  0  0  0  0  0  0  0
    9.9489   -3.4675   24.6487 N   0  0  0  0  0  0  0  0  0  0  0  0
   10.0172   -4.4740   17.4101 C   0  0  0  0  0  0  0  0  0  0  0  0
    6.9051   -7.9575   16.4222 C   0  0  0  0  0  0  0  0  0  0  0  0
    8.9969   -6.3552   17.9668 N   0  0  0  0  0  0  0  0  0  0  0  0
   10.6702   -3.9051   22.4070 C   0  0  0  0  0  0  0  0  0  0  0  0
   11.0625   -3.0028   18.8894 C   0  0  0  0  0  0  0  0  0  0  0  0
    5.6180   -7.9194   16.1754 O   0  0  0  0  0  0  0  0  0  0  0  0
    9.7259   -5.3080   18.4485 C   0  0  0  0  0  0  0  0  0  0  0  0
    9.4578   -5.0200   16.3036 N   0  0  0  0  0  0  0  0  0  0  0  0
    5.0287   -8.9365   16.8223 C   0  0  0  0  0  0  0  0  0  0  0  0
    8.7742   -6.1498   16.6764 C   0  0  0  0  0  0  0  0  0  0  0  0
   10.9418   -3.4032   21.2053 O   0  0  0  0  0  0  0  0  0  0  0  0
    1.4797   -8.6258   16.2950 C   0  0  0  0  0  0  0  0  0  0  0  0
    9.2861   -1.2743   25.3585 C   0  0  0  0  0  0  0  0  0  0  0  0
    1.8892  -10.3985   17.7511 N   0  0  0  0  0  0  0  0  0  0  0  0
    9.6210   -0.6952   24.0976 C   0  0  0  0  0  0  0  0  0  0  0  0
    7.0792   -9.0217   17.1429 C   0  0  0  0  0  0  0  0  0  0  0  0
    3.1713  -10.1816   17.6634 C   0  0  0  0  0  0  0  0  0  0  0  0
    2.7878   -8.3822   16.2137 C   0  0  0  0  0  0  0  0  0  0  0  0
    9.4601   -2.6590   25.6528 C   0  0  0  0  0  0  0  0  0  0  0  0
   10.1182   -1.5672   23.1165 C   0  0  0  0  0  0  0  0  0  0  0  0
    1.0552   -9.6360   17.0650 C   0  0  0  0  0  0  0  0  0  0  0  0
    3.6519   -9.1783   16.9039 C   0  0  0  0  0  0  0  0  0  0  0  0
    7.8675   -7.0096   15.9415 C   0  0  0  0  0  0  0  0  0  0  0  0
    5.9733   -9.6553   17.3832 N   0  0  0  0  0  0  0  0  0  0  0  0
   10.2411   -2.9363   23.4301 C   0  0  0  0  0  0  0  0  0  0  0  0
   10.7288   -3.8197   19.9525 C   0  0  0  0  0  0  0  0  0  0  0  0
   10.1189   -5.0054   19.6987 C   0  0  0  0  0  0  0  0  0  0  0  0
  1  3  4  0
  1  7  4  0
  2 21  4  0
  2 27  4  0
  3  9  4  0
  3 10  4  0
  4  8  4  0
  4 18  4  0
  4 25  1  0
  5  9  4  0
  5 12  4  0
  6 13  1  0
  6 27  1  0
  7 28  4  0
  8 11  4  0
  9 29  4  0
 10 12  4  0
 11 24  1  0
 11 26  4  0
 12 25  1  0
 13 28  1  0
 14 20  4  0
 14 23  4  0
 15 17  4  0
 15 21  4  0
 16 19  4  0
 16 23  4  0
 17 22  4  0
 18 26  4  0
 19 24  4  0
 20 24  4  0
 22 27  4  0
 28 29  4  0
M  END
$$$$

 Created by Python create_sdf_string function

 29 33  0  0  0  0  0  0  0  0999 V2000
   10.7215   -3.3326   17.6437 C   0  0  0  0  0  0  0  0  0  0  0  0
    9.9489   -3.4675   24.6487 N   0  0  0  0  0  0  0  0  0  0  0  0
   10.0172   -4.4740   17.4101 C   0  0  0  0  0  0  0  0  0  0  0  0
    6.9051   -7.9575   16.4222 C   0  0  0  0  0  0  0  0  0  0  0  0
    8.9969   -6.3552   17.9668 N   0  0  0  0  0  0  0  0  0  0  0  0
   10.6702   -3.9051   22.4070 C   0  0  0  0  0  0  0  0  0  0  0  0
   11.0625   -3.0028   18.8894 C   0  0  0  0  0  0  0  0  0  0  0  0
    5.6180   -7.9194   16.1754 O   0  0  0  0  0  0  0  0  0  0  0  0
    9.7259   -5.3080   18.4485 C   0  0  0  0  0  0  0  0  0  0  0  0
    9.4578   -5.0200   16.3036 N   0  0  0  0  0  0  0  0  0  0  0  0
    5.0287   -8.9365   16.8223 C   0  0  0  0  0  0  0  0  0  0  0  0
    8.7742   -6.1498   16.6764 C   0  0  0  0  0  0  0  0  0  0  0  0
   10.9418   -3.4032   21.2053 O   0  0  0  0  0  0  0  0  0  0  0  0
    1.4797   -8.6258   16.2950 C   0  0  0  0  0  0  0  0  0  0  0  0
    9.2861   -1.2743   25.3585 C   0  0  0  0  0  0  0  0  0  0  0  0
    1.8892  -10.3985   17.7511 N   0  0  0  0  0  0  0  0  0  0  0  0
    9.6210   -0.6952   24.0976 C   0  0  0  0  0  0  0  0  0  0  0  0
    7.0792   -9.0217   17.1429 C   0  0  0  0  0  0  0  0  0  0  0  0
    3.1713  -10.1816   17.6634 C   0  0  0  0  0  0  0  0  0  0  0  0
    2.7878   -8.3822   16.2137 C   0  0  0  0  0  0  0  0  0  0  0  0
    9.4601   -2.6590   25.6528 C   0  0  0  0  0  0  0  0  0  0  0  0
   10.1182   -1.5672   23.1165 C   0  0  0  0  0  0  0  0  0  0  0  0
    1.0552   -9.6360   17.0650 C   0  0  0  0  0  0  0  0  0  0  0  0
    3.6519   -9.1783   16.9039 C   0  0  0  0  0  0  0  0  0  0  0  0
    7.8675   -7.0096   15.9415 C   0  0  0  0  0  0  0  0  0  0  0  0
    5.9733   -9.6553   17.3832 N   0  0  0  0  0  0  0  0  0  0  0  0
   10.2411   -2.9363   23.4301 C   0  0  0  0  0  0  0  0  0  0  0  0
   10.7288   -3.8197   19.9525 C   0  0  0  0  0  0  0  0  0  0  0  0
   10.1189   -5.0054   19.6987 C   0  0  0  0  0  0  0  0  0  0  0  0
  1  3  4  0
  1  7  4  0
  2 21  4  0
  2 27  4  0
  3  9  4  0
  3 10  4  0
  4  8  4  0
  4 18  4  0
  4 25  1  0
  5  9  4  0
  5 12  4  0
  6 13  1  0
  6 27  1  0
  7 28  4  0
  8 11  4  0
  9 29  4  0
 10 12  4  0
 11 24  1  0
 11 26  4  0
 12 25  1  0
 13 28  1  0
 14 20  4  0
 14 23  4  0
 15 17  4  0
 15 21  4  0
 16 19  4  0
 16 23  4  0
 17 22  4  0
 18 26  4  0
 19 24  4  0
 20 24  4  0
 22 27  4  0
 28 29  4  0
M  END
$$$$

 Created by Python create_sdf_string function

 29 33  0  0  0  0  0  0  0  0999 V2000
   10.7215   -3.3326   17.6437 C   0  0  0  0  0  0  0  0  0  0  0  0
    9.9489   -3.4675   24.6487 N   0  0  0  0  0  0  0  0  0  0  0  0
   10.0172   -4.4740   17.4101 C   0  0  0  0  0  0  0  0  0  0  0  0
    6.9051   -7.9575   16.4222 C   0  0  0  0  0  0  0  0  0  0  0  0
    8.9969   -6.3552   17.9668 N   0  0  0  0  0  0  0  0  0  0  0  0
   10.6702   -3.9051   22.4070 C   0  0  0  0  0  0  0  0  0  0  0  0
   11.0625   -3.0028   18.8894 C   0  0  0  0  0  0  0  0  0  0  0  0
    5.6180   -7.9194   16.1754 O   0  0  0  0  0  0  0  0  0  0  0  0
    9.7259   -5.3080   18.4485 C   0  0  0  0  0  0  0  0  0  0  0  0
    9.4578   -5.0200   16.3036 N   0  0  0  0  0  0  0  0  0  0  0  0
    5.0287   -8.9365   16.8223 C   0  0  0  0  0  0  0  0  0  0  0  0
    8.7742   -6.1498   16.6764 C   0  0  0  0  0  0  0  0  0  0  0  0
   10.9418   -3.4032   21.2053 O   0  0  0  0  0  0  0  0  0  0  0  0
    1.4797   -8.6258   16.2950 C   0  0  0  0  0  0  0  0  0  0  0  0
    9.2861   -1.2743   25.3585 C   0  0  0  0  0  0  0  0  0  0  0  0
    1.8892  -10.3985   17.7511 N   0  0  0  0  0  0  0  0  0  0  0  0
    9.6210   -0.6952   24.0976 C   0  0  0  0  0  0  0  0  0  0  0  0
    7.0792   -9.0217   17.1429 C   0  0  0  0  0  0  0  0  0  0  0  0
    3.1713  -10.1816   17.6634 C   0  0  0  0  0  0  0  0  0  0  0  0
    2.7878   -8.3822   16.2137 C   0  0  0  0  0  0  0  0  0  0  0  0
    9.4601   -2.6590   25.6528 C   0  0  0  0  0  0  0  0  0  0  0  0
   10.1182   -1.5672   23.1165 C   0  0  0  0  0  0  0  0  0  0  0  0
    1.0552   -9.6360   17.0650 C   0  0  0  0  0  0  0  0  0  0  0  0
    3.6519   -9.1783   16.9039 C   0  0  0  0  0  0  0  0  0  0  0  0
    7.8675   -7.0096   15.9415 C   0  0  0  0  0  0  0  0  0  0  0  0
    5.9733   -9.6553   17.3832 N   0  0  0  0  0  0  0  0  0  0  0  0
   10.2411   -2.9363   23.4301 C   0  0  0  0  0  0  0  0  0  0  0  0
   10.7288   -3.8197   19.9525 C   0  0  0  0  0  0  0  0  0  0  0  0
   10.1189   -5.0054   19.6987 C   0  0  0  0  0  0  0  0  0  0  0  0
  1  3  4  0
  1  7  4  0
  2 21  4  0
  2 27  4  0
  3  9  4  0
  3 10  4  0
  4  8  4  0
  4 18  4  0
  4 25  1  0
  5  9  4  0
  5 12  4  0
  6 13  1  0
  6 27  1  0
  7 28  4  0
  8 11  4  0
  9 29  4  0
 10 12  4  0
 11 24  1  0
 11 26  4  0
 12 25  1  0
 13 28  1  0
 14 20  4  0
 14 23  4  0
 15 17  4  0
 15 21  4  0
 16 19  4  0
 16 23  4  0
 17 22  4  0
 18 26  4  0
 19 24  4  0
 20 24  4  0
 22 27  4  0
 28 29  4  0
M  END
$$$$

 Created by Python create_sdf_string function

 29 33  0  0  0  0  0  0  0  0999 V2000
   10.7215   -3.3326   17.6437 C   0  0  0  0  0  0  0  0  0  0  0  0
    9.9489   -3.4675   24.6487 N   0  0  0  0  0  0  0  0  0  0  0  0
   10.0172   -4.4740   17.4101 C   0  0  0  0  0  0  0  0  0  0  0  0
    6.9051   -7.9575   16.4222 C   0  0  0  0  0  0  0  0  0  0  0  0
    8.9969   -6.3552   17.9668 N   0  0  0  0  0  0  0  0  0  0  0  0
   10.6702   -3.9051   22.4070 C   0  0  0  0  0  0  0  0  0  0  0  0
   11.0625   -3.0028   18.8894 C   0  0  0  0  0  0  0  0  0  0  0  0
    5.6180   -7.9194   16.1754 O   0  0  0  0  0  0  0  0  0  0  0  0
    9.7259   -5.3080   18.4485 C   0  0  0  0  0  0  0  0  0  0  0  0
    9.4578   -5.0200   16.3036 N   0  0  0  0  0  0  0  0  0  0  0  0
    5.0287   -8.9365   16.8223 C   0  0  0  0  0  0  0  0  0  0  0  0
    8.7742   -6.1498   16.6764 C   0  0  0  0  0  0  0  0  0  0  0  0
   10.9418   -3.4032   21.2053 O   0  0  0  0  0  0  0  0  0  0  0  0
    1.4797   -8.6258   16.2950 C   0  0  0  0  0  0  0  0  0  0  0  0
    9.2861   -1.2743   25.3585 C   0  0  0  0  0  0  0  0  0  0  0  0
    1.8892  -10.3985   17.7511 N   0  0  0  0  0  0  0  0  0  0  0  0
    9.6210   -0.6952   24.0976 C   0  0  0  0  0  0  0  0  0  0  0  0
    7.0792   -9.0217   17.1429 C   0  0  0  0  0  0  0  0  0  0  0  0
    3.1713  -10.1816   17.6634 C   0  0  0  0  0  0  0  0  0  0  0  0
    2.7878   -8.3822   16.2137 C   0  0  0  0  0  0  0  0  0  0  0  0
    9.4601   -2.6590   25.6528 C   0  0  0  0  0  0  0  0  0  0  0  0
   10.1182   -1.5672   23.1165 C   0  0  0  0  0  0  0  0  0  0  0  0
    1.0552   -9.6360   17.0650 C   0  0  0  0  0  0  0  0  0  0  0  0
    3.6519   -9.1783   16.9039 C   0  0  0  0  0  0  0  0  0  0  0  0
    7.8675   -7.0096   15.9415 C   0  0  0  0  0  0  0  0  0  0  0  0
    5.9733   -9.6553   17.3832 N   0  0  0  0  0  0  0  0  0  0  0  0
   10.2411   -2.9363   23.4301 C   0  0  0  0  0  0  0  0  0  0  0  0
   10.7288   -3.8197   19.9525 C   0  0  0  0  0  0  0  0  0  0  0  0
   10.1189   -5.0054   19.6987 C   0  0  0  0  0  0  0  0  0  0  0  0
  1  3  4  0
  1  7  4  0
  2 21  4  0
  2 27  4  0
  3  9  4  0
  3 10  4  0
  4  8  4  0
  4 18  4  0
  4 25  1  0
  5  9  4  0
  5 12  4  0
  6 13  1  0
  6 27  1  0
  7 28  4  0
  8 11  4  0
  9 29  4  0
 10 12  4  0
 11 24  1  0
 11 26  4  0
 12 25  1  0
 13 28  1  0
 14 20  4  0
 14 23  4  0
 15 17  4  0
 15 21  4  0
 16 19  4  0
 16 23  4  0
 17 22  4  0
 18 26  4  0
 19 24  4  0
 20 24  4  0
 22 27  4  0
 28 29  4  0
M  END
$$$$

 Created by Python create_sdf_string function

 29 33  0  0  0  0  0  0  0  0999 V2000
   10.7215   -3.3326   17.6437 C   0  0  0  0  0  0  0  0  0  0  0  0
    9.9489   -3.4675   24.6487 N   0  0  0  0  0  0  0  0  0  0  0  0
   10.0172   -4.4740   17.4101 C   0  0  0  0  0  0  0  0  0  0  0  0
    6.9051   -7.9575   16.4222 C   0  0  0  0  0  0  0  0  0  0  0  0
    8.9969   -6.3552   17.9668 N   0  0  0  0  0  0  0  0  0  0  0  0
   10.6702   -3.9051   22.4070 C   0  0  0  0  0  0  0  0  0  0  0  0
   11.0625   -3.0028   18.8894 C   0  0  0  0  0  0  0  0  0  0  0  0
    5.6180   -7.9194   16.1754 O   0  0  0  0  0  0  0  0  0  0  0  0
    9.7259   -5.3080   18.4485 C   0  0  0  0  0  0  0  0  0  0  0  0
    9.4578   -5.0200   16.3036 N   0  0  0  0  0  0  0  0  0  0  0  0
    5.0287   -8.9365   16.8223 C   0  0  0  0  0  0  0  0  0  0  0  0
    8.7742   -6.1498   16.6764 C   0  0  0  0  0  0  0  0  0  0  0  0
   10.9418   -3.4032   21.2053 O   0  0  0  0  0  0  0  0  0  0  0  0
    1.4797   -8.6258   16.2950 C   0  0  0  0  0  0  0  0  0  0  0  0
    9.2861   -1.2743   25.3585 C   0  0  0  0  0  0  0  0  0  0  0  0
    1.8892  -10.3985   17.7511 N   0  0  0  0  0  0  0  0  0  0  0  0
    9.6210   -0.6952   24.0976 C   0  0  0  0  0  0  0  0  0  0  0  0
    7.0792   -9.0217   17.1429 C   0  0  0  0  0  0  0  0  0  0  0  0
    3.1713  -10.1816   17.6634 C   0  0  0  0  0  0  0  0  0  0  0  0
    2.7878   -8.3822   16.2137 C   0  0  0  0  0  0  0  0  0  0  0  0
    9.4601   -2.6590   25.6528 C   0  0  0  0  0  0  0  0  0  0  0  0
   10.1182   -1.5672   23.1165 C   0  0  0  0  0  0  0  0  0  0  0  0
    1.0552   -9.6360   17.0650 C   0  0  0  0  0  0  0  0  0  0  0  0
    3.6519   -9.1783   16.9039 C   0  0  0  0  0  0  0  0  0  0  0  0
    7.8675   -7.0096   15.9415 C   0  0  0  0  0  0  0  0  0  0  0  0
    5.9733   -9.6553   17.3832 N   0  0  0  0  0  0  0  0  0  0  0  0
   10.2411   -2.9363   23.4301 C   0  0  0  0  0  0  0  0  0  0  0  0
   10.7288   -3.8197   19.9525 C   0  0  0  0  0  0  0  0  0  0  0  0
   10.1189   -5.0054   19.6987 C   0  0  0  0  0  0  0  0  0  0  0  0
  1  3  4  0
  1  7  4  0
  2 21  4  0
  2 27  4  0
  3  9  4  0
  3 10  4  0
  4  8  4  0
  4 18  4  0
  4 25  1  0
  5  9  4  0
  5 12  4  0
  6 13  1  0
  6 27  1  0
  7 28  4  0
  8 11  4  0
  9 29  4  0
 10 12  4  0
 11 24  1  0
 11 26  4  0
 12 25  1  0
 13 28  1  0
 14 20  4  0
 14 23  4  0
 15 17  4  0
 15 21  4  0
 16 19  4  0
 16 23  4  0
 17 22  4  0
 18 26  4  0
 19 24  4  0
 20 24  4  0
 22 27  4  0
 28 29  4  0
M  END
$$$$

 Created by Python create_sdf_string function

 29 33  0  0  0  0  0  0  0  0999 V2000
   10.7215   -3.3326   17.6437 C   0  0  0  0  0  0  0  0  0  0  0  0
    9.9489   -3.4675   24.6487 N   0  0  0  0  0  0  0  0  0  0  0  0
   10.0172   -4.4740   17.4101 C   0  0  0  0  0  0  0  0  0  0  0  0
    6.9051   -7.9575   16.4222 C   0  0  0  0  0  0  0  0  0  0  0  0
    8.9969   -6.3552   17.9668 N   0  0  0  0  0  0  0  0  0  0  0  0
   10.6702   -3.9051   22.4070 C   0  0  0  0  0  0  0  0  0  0  0  0
   11.0625   -3.0028   18.8894 C   0  0  0  0  0  0  0  0  0  0  0  0
    5.6180   -7.9194   16.1754 O   0  0  0  0  0  0  0  0  0  0  0  0
    9.7259   -5.3080   18.4485 C   0  0  0  0  0  0  0  0  0  0  0  0
    9.4578   -5.0200   16.3036 N   0  0  0  0  0  0  0  0  0  0  0  0
    5.0287   -8.9365   16.8223 C   0  0  0  0  0  0  0  0  0  0  0  0
    8.7742   -6.1498   16.6764 C   0  0  0  0  0  0  0  0  0  0  0  0
   10.9418   -3.4032   21.2053 O   0  0  0  0  0  0  0  0  0  0  0  0
    1.4797   -8.6258   16.2950 C   0  0  0  0  0  0  0  0  0  0  0  0
    9.2861   -1.2743   25.3585 C   0  0  0  0  0  0  0  0  0  0  0  0
    1.8892  -10.3985   17.7511 N   0  0  0  0  0  0  0  0  0  0  0  0
    9.6210   -0.6952   24.0976 C   0  0  0  0  0  0  0  0  0  0  0  0
    7.0792   -9.0217   17.1429 C   0  0  0  0  0  0  0  0  0  0  0  0
    3.1713  -10.1816   17.6634 C   0  0  0  0  0  0  0  0  0  0  0  0
    2.7878   -8.3822   16.2137 C   0  0  0  0  0  0  0  0  0  0  0  0
    9.4601   -2.6590   25.6528 C   0  0  0  0  0  0  0  0  0  0  0  0
   10.1182   -1.5672   23.1165 C   0  0  0  0  0  0  0  0  0  0  0  0
    1.0552   -9.6360   17.0650 C   0  0  0  0  0  0  0  0  0  0  0  0
    3.6519   -9.1783   16.9039 C   0  0  0  0  0  0  0  0  0  0  0  0
    7.8675   -7.0096   15.9415 C   0  0  0  0  0  0  0  0  0  0  0  0
    5.9733   -9.6553   17.3832 N   0  0  0  0  0  0  0  0  0  0  0  0
   10.2411   -2.9363   23.4301 C   0  0  0  0  0  0  0  0  0  0  0  0
   10.7288   -3.8197   19.9525 C   0  0  0  0  0  0  0  0  0  0  0  0
   10.1189   -5.0054   19.6987 C   0  0  0  0  0  0  0  0  0  0  0  0
  1  3  4  0
  1  7  4  0
  2 21  4  0
  2 27  4  0
  3  9  4  0
  3 10  4  0
  4  8  4  0
  4 18  4  0
  4 25  1  0
  5  9  4  0
  5 12  4  0
  6 13  1  0
  6 27  1  0
  7 28  4  0
  8 11  4  0
  9 29  4  0
 10 12  4  0
 11 24  1  0
 11 26  4  0
 12 25  1  0
 13 28  1  0
 14 20  4  0
 14 23  4  0
 15 17  4  0
 15 21  4  0
 16 19  4  0
 16 23  4  0
 17 22  4  0
 18 26  4  0
 19 24  4  0
 20 24  4  0
 22 27  4  0
 28 29  4  0
M  END
$$$$

 Created by Python create_sdf_string function

 29 33  0  0  0  0  0  0  0  0999 V2000
   10.7215   -3.3326   17.6437 C   0  0  0  0  0  0  0  0  0  0  0  0
    9.9489   -3.4675   24.6487 N   0  0  0  0  0  0  0  0  0  0  0  0
   10.0172   -4.4740   17.4101 C   0  0  0  0  0  0  0  0  0  0  0  0
    6.9051   -7.9575   16.4222 C   0  0  0  0  0  0  0  0  0  0  0  0
    8.9969   -6.3552   17.9668 N   0  0  0  0  0  0  0  0  0  0  0  0
   10.6702   -3.9051   22.4070 C   0  0  0  0  0  0  0  0  0  0  0  0
   11.0625   -3.0028   18.8894 C   0  0  0  0  0  0  0  0  0  0  0  0
    5.6180   -7.9194   16.1754 O   0  0  0  0  0  0  0  0  0  0  0  0
    9.7259   -5.3080   18.4485 C   0  0  0  0  0  0  0  0  0  0  0  0
    9.4578   -5.0200   16.3036 N   0  0  0  0  0  0  0  0  0  0  0  0
    5.0287   -8.9365   16.8223 C   0  0  0  0  0  0  0  0  0  0  0  0
    8.7742   -6.1498   16.6764 C   0  0  0  0  0  0  0  0  0  0  0  0
   10.9418   -3.4032   21.2053 O   0  0  0  0  0  0  0  0  0  0  0  0
    1.4797   -8.6258   16.2950 C   0  0  0  0  0  0  0  0  0  0  0  0
    9.2861   -1.2743   25.3585 C   0  0  0  0  0  0  0  0  0  0  0  0
    1.8892  -10.3985   17.7511 N   0  0  0  0  0  0  0  0  0  0  0  0
    9.6210   -0.6952   24.0976 C   0  0  0  0  0  0  0  0  0  0  0  0
    7.0792   -9.0217   17.1429 C   0  0  0  0  0  0  0  0  0  0  0  0
    3.1713  -10.1816   17.6634 C   0  0  0  0  0  0  0  0  0  0  0  0
    2.7878   -8.3822   16.2137 C   0  0  0  0  0  0  0  0  0  0  0  0
    9.4601   -2.6590   25.6528 C   0  0  0  0  0  0  0  0  0  0  0  0
   10.1182   -1.5672   23.1165 C   0  0  0  0  0  0  0  0  0  0  0  0
    1.0552   -9.6360   17.0650 C   0  0  0  0  0  0  0  0  0  0  0  0
    3.6519   -9.1783   16.9039 C   0  0  0  0  0  0  0  0  0  0  0  0
    7.8675   -7.0096   15.9415 C   0  0  0  0  0  0  0  0  0  0  0  0
    5.9733   -9.6553   17.3832 N   0  0  0  0  0  0  0  0  0  0  0  0
   10.2411   -2.9363   23.4301 C   0  0  0  0  0  0  0  0  0  0  0  0
   10.7288   -3.8197   19.9525 C   0  0  0  0  0  0  0  0  0  0  0  0
   10.1189   -5.0054   19.6987 C   0  0  0  0  0  0  0  0  0  0  0  0
  1  3  4  0
  1  7  4  0
  2 21  4  0
  2 27  4  0
  3  9  4  0
  3 10  4  0
  4  8  4  0
  4 18  4  0
  4 25  1  0
  5  9  4  0
  5 12  4  0
  6 13  1  0
  6 27  1  0
  7 28  4  0
  8 11  4  0
  9 29  4  0
 10 12  4  0
 11 24  1  0
 11 26  4  0
 12 25  1  0
 13 28  1  0
 14 20  4  0
 14 23  4  0
 15 17  4  0
 15 21  4  0
 16 19  4  0
 16 23  4  0
 17 22  4  0
 18 26  4  0
 19 24  4  0
 20 24  4  0
 22 27  4  0
 28 29  4  0
M  END
$$$$

 Created by Python create_sdf_string function

 29 33  0  0  0  0  0  0  0  0999 V2000
   10.7215   -3.3326   17.6437 C   0  0  0  0  0  0  0  0  0  0  0  0
    9.9489   -3.4675   24.6487 N   0  0  0  0  0  0  0  0  0  0  0  0
   10.0172   -4.4740   17.4101 C   0  0  0  0  0  0  0  0  0  0  0  0
    6.9051   -7.9575   16.4222 C   0  0  0  0  0  0  0  0  0  0  0  0
    8.9969   -6.3552   17.9668 N   0  0  0  0  0  0  0  0  0  0  0  0
   10.6702   -3.9051   22.4070 C   0  0  0  0  0  0  0  0  0  0  0  0
   11.0625   -3.0028   18.8894 C   0  0  0  0  0  0  0  0  0  0  0  0
    5.6180   -7.9194   16.1754 O   0  0  0  0  0  0  0  0  0  0  0  0
    9.7259   -5.3080   18.4485 C   0  0  0  0  0  0  0  0  0  0  0  0
    9.4578   -5.0200   16.3036 N   0  0  0  0  0  0  0  0  0  0  0  0
    5.0287   -8.9365   16.8223 C   0  0  0  0  0  0  0  0  0  0  0  0
    8.7742   -6.1498   16.6764 C   0  0  0  0  0  0  0  0  0  0  0  0
   10.9418   -3.4032   21.2053 O   0  0  0  0  0  0  0  0  0  0  0  0
    1.4797   -8.6258   16.2950 C   0  0  0  0  0  0  0  0  0  0  0  0
    9.2861   -1.2743   25.3585 C   0  0  0  0  0  0  0  0  0  0  0  0
    1.8892  -10.3985   17.7511 N   0  0  0  0  0  0  0  0  0  0  0  0
    9.6210   -0.6952   24.0976 C   0  0  0  0  0  0  0  0  0  0  0  0
    7.0792   -9.0217   17.1429 C   0  0  0  0  0  0  0  0  0  0  0  0
    3.1713  -10.1816   17.6634 C   0  0  0  0  0  0  0  0  0  0  0  0
    2.7878   -8.3822   16.2137 C   0  0  0  0  0  0  0  0  0  0  0  0
    9.4601   -2.6590   25.6528 C   0  0  0  0  0  0  0  0  0  0  0  0
   10.1182   -1.5672   23.1165 C   0  0  0  0  0  0  0  0  0  0  0  0
    1.0552   -9.6360   17.0650 C   0  0  0  0  0  0  0  0  0  0  0  0
    3.6519   -9.1783   16.9039 C   0  0  0  0  0  0  0  0  0  0  0  0
    7.8675   -7.0096   15.9415 C   0  0  0  0  0  0  0  0  0  0  0  0
    5.9733   -9.6553   17.3832 N   0  0  0  0  0  0  0  0  0  0  0  0
   10.2411   -2.9363   23.4301 C   0  0  0  0  0  0  0  0  0  0  0  0
   10.7288   -3.8197   19.9525 C   0  0  0  0  0  0  0  0  0  0  0  0
   10.1189   -5.0054   19.6987 C   0  0  0  0  0  0  0  0  0  0  0  0
  1  3  4  0
  1  7  4  0
  2 21  4  0
  2 27  4  0
  3  9  4  0
  3 10  4  0
  4  8  4  0
  4 18  4  0
  4 25  1  0
  5  9  4  0
  5 12  4  0
  6 13  1  0
  6 27  1  0
  7 28  4  0
  8 11  4  0
  9 29  4  0
 10 12  4  0
 11 24  1  0
 11 26  4  0
 12 25  1  0
 13 28  1  0
 14 20  4  0
 14 23  4  0
 15 17  4  0
 15 21  4  0
 16 19  4  0
 16 23  4  0
 17 22  4  0
 18 26  4  0
 19 24  4  0
 20 24  4  0
 22 27  4  0
 28 29  4  0
M  END
$$$$

 Created by Python create_sdf_string function

 29 33  0  0  0  0  0  0  0  0999 V2000
   10.7215   -3.3326   17.6437 C   0  0  0  0  0  0  0  0  0  0  0  0
    9.9489   -3.4675   24.6487 N   0  0  0  0  0  0  0  0  0  0  0  0
   10.0172   -4.4740   17.4101 C   0  0  0  0  0  0  0  0  0  0  0  0
    6.9051   -7.9575   16.4222 C   0  0  0  0  0  0  0  0  0  0  0  0
    8.9969   -6.3552   17.9668 N   0  0  0  0  0  0  0  0  0  0  0  0
   10.6702   -3.9051   22.4070 C   0  0  0  0  0  0  0  0  0  0  0  0
   11.0625   -3.0028   18.8894 C   0  0  0  0  0  0  0  0  0  0  0  0
    5.6180   -7.9194   16.1754 O   0  0  0  0  0  0  0  0  0  0  0  0
    9.7259   -5.3080   18.4485 C   0  0  0  0  0  0  0  0  0  0  0  0
    9.4578   -5.0200   16.3036 N   0  0  0  0  0  0  0  0  0  0  0  0
    5.0287   -8.9365   16.8223 C   0  0  0  0  0  0  0  0  0  0  0  0
    8.7742   -6.1498   16.6764 C   0  0  0  0  0  0  0  0  0  0  0  0
   10.9418   -3.4032   21.2053 O   0  0  0  0  0  0  0  0  0  0  0  0
    1.4797   -8.6258   16.2950 C   0  0  0  0  0  0  0  0  0  0  0  0
    9.2861   -1.2743   25.3585 C   0  0  0  0  0  0  0  0  0  0  0  0
    1.8892  -10.3985   17.7511 N   0  0  0  0  0  0  0  0  0  0  0  0
    9.6210   -0.6952   24.0976 C   0  0  0  0  0  0  0  0  0  0  0  0
    7.0792   -9.0217   17.1429 C   0  0  0  0  0  0  0  0  0  0  0  0
    3.1713  -10.1816   17.6634 C   0  0  0  0  0  0  0  0  0  0  0  0
    2.7878   -8.3822   16.2137 C   0  0  0  0  0  0  0  0  0  0  0  0
    9.4601   -2.6590   25.6528 C   0  0  0  0  0  0  0  0  0  0  0  0
   10.1182   -1.5672   23.1165 C   0  0  0  0  0  0  0  0  0  0  0  0
    1.0552   -9.6360   17.0650 C   0  0  0  0  0  0  0  0  0  0  0  0
    3.6519   -9.1783   16.9039 C   0  0  0  0  0  0  0  0  0  0  0  0
    7.8675   -7.0096   15.9415 C   0  0  0  0  0  0  0  0  0  0  0  0
    5.9733   -9.6553   17.3832 N   0  0  0  0  0  0  0  0  0  0  0  0
   10.2411   -2.9363   23.4301 C   0  0  0  0  0  0  0  0  0  0  0  0
   10.7288   -3.8197   19.9525 C   0  0  0  0  0  0  0  0  0  0  0  0
   10.1189   -5.0054   19.6987 C   0  0  0  0  0  0  0  0  0  0  0  0
  1  3  4  0
  1  7  4  0
  2 21  4  0
  2 27  4  0
  3  9  4  0
  3 10  4  0
  4  8  4  0
  4 18  4  0
  4 25  1  0
  5  9  4  0
  5 12  4  0
  6 13  1  0
  6 27  1  0
  7 28  4  0
  8 11  4  0
  9 29  4  0
 10 12  4  0
 11 24  1  0
 11 26  4  0
 12 25  1  0
 13 28  1  0
 14 20  4  0
 14 23  4  0
 15 17  4  0
 15 21  4  0
 16 19  4  0
 16 23  4  0
 17 22  4  0
 18 26  4  0
 19 24  4  0
 20 24  4  0
 22 27  4  0
 28 29  4  0
M  END
$$$$

 Created by Python create_sdf_string function

 29 33  0  0  0  0  0  0  0  0999 V2000
   10.7215   -3.3326   17.6437 C   0  0  0  0  0  0  0  0  0  0  0  0
    9.9489   -3.4675   24.6487 N   0  0  0  0  0  0  0  0  0  0  0  0
   10.0172   -4.4740   17.4101 C   0  0  0  0  0  0  0  0  0  0  0  0
    6.9051   -7.9575   16.4222 C   0  0  0  0  0  0  0  0  0  0  0  0
    8.9969   -6.3552   17.9668 N   0  0  0  0  0  0  0  0  0  0  0  0
   10.6702   -3.9051   22.4070 C   0  0  0  0  0  0  0  0  0  0  0  0
   11.0625   -3.0028   18.8894 C   0  0  0  0  0  0  0  0  0  0  0  0
    5.6180   -7.9194   16.1754 O   0  0  0  0  0  0  0  0  0  0  0  0
    9.7259   -5.3080   18.4485 C   0  0  0  0  0  0  0  0  0  0  0  0
    9.4578   -5.0200   16.3036 N   0  0  0  0  0  0  0  0  0  0  0  0
    5.0287   -8.9365   16.8223 C   0  0  0  0  0  0  0  0  0  0  0  0
    8.7742   -6.1498   16.6764 C   0  0  0  0  0  0  0  0  0  0  0  0
   10.9418   -3.4032   21.2053 O   0  0  0  0  0  0  0  0  0  0  0  0
    1.4797   -8.6258   16.2950 C   0  0  0  0  0  0  0  0  0  0  0  0
    9.2861   -1.2743   25.3585 C   0  0  0  0  0  0  0  0  0  0  0  0
    1.8892  -10.3985   17.7511 N   0  0  0  0  0  0  0  0  0  0  0  0
    9.6210   -0.6952   24.0976 C   0  0  0  0  0  0  0  0  0  0  0  0
    7.0792   -9.0217   17.1429 C   0  0  0  0  0  0  0  0  0  0  0  0
    3.1713  -10.1816   17.6634 C   0  0  0  0  0  0  0  0  0  0  0  0
    2.7878   -8.3822   16.2137 C   0  0  0  0  0  0  0  0  0  0  0  0
    9.4601   -2.6590   25.6528 C   0  0  0  0  0  0  0  0  0  0  0  0
   10.1182   -1.5672   23.1165 C   0  0  0  0  0  0  0  0  0  0  0  0
    1.0552   -9.6360   17.0650 C   0  0  0  0  0  0  0  0  0  0  0  0
    3.6519   -9.1783   16.9039 C   0  0  0  0  0  0  0  0  0  0  0  0
    7.8675   -7.0096   15.9415 C   0  0  0  0  0  0  0  0  0  0  0  0
    5.9733   -9.6553   17.3832 N   0  0  0  0  0  0  0  0  0  0  0  0
   10.2411   -2.9363   23.4301 C   0  0  0  0  0  0  0  0  0  0  0  0
   10.7288   -3.8197   19.9525 C   0  0  0  0  0  0  0  0  0  0  0  0
   10.1189   -5.0054   19.6987 C   0  0  0  0  0  0  0  0  0  0  0  0
  1  3  4  0
  1  7  4  0
  2 21  4  0
  2 27  4  0
  3  9  4  0
  3 10  4  0
  4  8  4  0
  4 18  4  0
  4 25  1  0
  5  9  4  0
  5 12  4  0
  6 13  1  0
  6 27  1  0
  7 28  4  0
  8 11  4  0
  9 29  4  0
 10 12  4  0
 11 24  1  0
 11 26  4  0
 12 25  1  0
 13 28  1  0
 14 20  4  0
 14 23  4  0
 15 17  4  0
 15 21  4  0
 16 19  4  0
 16 23  4  0
 17 22  4  0
 18 26  4  0
 19 24  4  0
 20 24  4  0
 22 27  4  0
 28 29  4  0
M  END
$$$$

 Created by Python create_sdf_string function

 29 33  0  0  0  0  0  0  0  0999 V2000
   10.7215   -3.3326   17.6437 C   0  0  0  0  0  0  0  0  0  0  0  0
    9.9489   -3.4675   24.6487 N   0  0  0  0  0  0  0  0  0  0  0  0
   10.0172   -4.4740   17.4101 C   0  0  0  0  0  0  0  0  0  0  0  0
    6.9051   -7.9575   16.4222 C   0  0  0  0  0  0  0  0  0  0  0  0
    8.9969   -6.3552   17.9668 N   0  0  0  0  0  0  0  0  0  0  0  0
   10.6702   -3.9051   22.4070 C   0  0  0  0  0  0  0  0  0  0  0  0
   11.0625   -3.0028   18.8894 C   0  0  0  0  0  0  0  0  0  0  0  0
    5.6180   -7.9194   16.1754 O   0  0  0  0  0  0  0  0  0  0  0  0
    9.7259   -5.3080   18.4485 C   0  0  0  0  0  0  0  0  0  0  0  0
    9.4578   -5.0200   16.3036 N   0  0  0  0  0  0  0  0  0  0  0  0
    5.0287   -8.9365   16.8223 C   0  0  0  0  0  0  0  0  0  0  0  0
    8.7742   -6.1498   16.6764 C   0  0  0  0  0  0  0  0  0  0  0  0
   10.9418   -3.4032   21.2053 O   0  0  0  0  0  0  0  0  0  0  0  0
    1.4797   -8.6258   16.2950 C   0  0  0  0  0  0  0  0  0  0  0  0
    9.2861   -1.2743   25.3585 C   0  0  0  0  0  0  0  0  0  0  0  0
    1.8892  -10.3985   17.7511 N   0  0  0  0  0  0  0  0  0  0  0  0
    9.6210   -0.6952   24.0976 C   0  0  0  0  0  0  0  0  0  0  0  0
    7.0792   -9.0217   17.1429 C   0  0  0  0  0  0  0  0  0  0  0  0
    3.1713  -10.1816   17.6634 C   0  0  0  0  0  0  0  0  0  0  0  0
    2.7878   -8.3822   16.2137 C   0  0  0  0  0  0  0  0  0  0  0  0
    9.4601   -2.6590   25.6528 C   0  0  0  0  0  0  0  0  0  0  0  0
   10.1182   -1.5672   23.1165 C   0  0  0  0  0  0  0  0  0  0  0  0
    1.0552   -9.6360   17.0650 C   0  0  0  0  0  0  0  0  0  0  0  0
    3.6519   -9.1783   16.9039 C   0  0  0  0  0  0  0  0  0  0  0  0
    7.8675   -7.0096   15.9415 C   0  0  0  0  0  0  0  0  0  0  0  0
    5.9733   -9.6553   17.3832 N   0  0  0  0  0  0  0  0  0  0  0  0
   10.2411   -2.9363   23.4301 C   0  0  0  0  0  0  0  0  0  0  0  0
   10.7288   -3.8197   19.9525 C   0  0  0  0  0  0  0  0  0  0  0  0
   10.1189   -5.0054   19.6987 C   0  0  0  0  0  0  0  0  0  0  0  0
  1  3  4  0
  1  7  4  0
  2 21  4  0
  2 27  4  0
  3  9  4  0
  3 10  4  0
  4  8  4  0
  4 18  4  0
  4 25  1  0
  5  9  4  0
  5 12  4  0
  6 13  1  0
  6 27  1  0
  7 28  4  0
  8 11  4  0
  9 29  4  0
 10 12  4  0
 11 24  1  0
 11 26  4  0
 12 25  1  0
 13 28  1  0
 14 20  4  0
 14 23  4  0
 15 17  4  0
 15 21  4  0
 16 19  4  0
 16 23  4  0
 17 22  4  0
 18 26  4  0
 19 24  4  0
 20 24  4  0
 22 27  4  0
 28 29  4  0
M  END
$$$$

 Created by Python create_sdf_string function

 29 33  0  0  0  0  0  0  0  0999 V2000
   10.7215   -3.3326   17.6437 C   0  0  0  0  0  0  0  0  0  0  0  0
    9.9489   -3.4675   24.6487 N   0  0  0  0  0  0  0  0  0  0  0  0
   10.0172   -4.4740   17.4101 C   0  0  0  0  0  0  0  0  0  0  0  0
    6.9051   -7.9575   16.4222 C   0  0  0  0  0  0  0  0  0  0  0  0
    8.9969   -6.3552   17.9668 N   0  0  0  0  0  0  0  0  0  0  0  0
   10.6702   -3.9051   22.4070 C   0  0  0  0  0  0  0  0  0  0  0  0
   11.0625   -3.0028   18.8894 C   0  0  0  0  0  0  0  0  0  0  0  0
    5.6180   -7.9194   16.1754 O   0  0  0  0  0  0  0  0  0  0  0  0
    9.7259   -5.3080   18.4485 C   0  0  0  0  0  0  0  0  0  0  0  0
    9.4578   -5.0200   16.3036 N   0  0  0  0  0  0  0  0  0  0  0  0
    5.0287   -8.9365   16.8223 C   0  0  0  0  0  0  0  0  0  0  0  0
    8.7742   -6.1498   16.6764 C   0  0  0  0  0  0  0  0  0  0  0  0
   10.9418   -3.4032   21.2053 O   0  0  0  0  0  0  0  0  0  0  0  0
    1.4797   -8.6258   16.2950 C   0  0  0  0  0  0  0  0  0  0  0  0
    9.2861   -1.2743   25.3585 C   0  0  0  0  0  0  0  0  0  0  0  0
    1.8892  -10.3985   17.7511 N   0  0  0  0  0  0  0  0  0  0  0  0
    9.6210   -0.6952   24.0976 C   0  0  0  0  0  0  0  0  0  0  0  0
    7.0792   -9.0217   17.1429 C   0  0  0  0  0  0  0  0  0  0  0  0
    3.1713  -10.1816   17.6634 C   0  0  0  0  0  0  0  0  0  0  0  0
    2.7878   -8.3822   16.2137 C   0  0  0  0  0  0  0  0  0  0  0  0
    9.4601   -2.6590   25.6528 C   0  0  0  0  0  0  0  0  0  0  0  0
   10.1182   -1.5672   23.1165 C   0  0  0  0  0  0  0  0  0  0  0  0
    1.0552   -9.6360   17.0650 C   0  0  0  0  0  0  0  0  0  0  0  0
    3.6519   -9.1783   16.9039 C   0  0  0  0  0  0  0  0  0  0  0  0
    7.8675   -7.0096   15.9415 C   0  0  0  0  0  0  0  0  0  0  0  0
    5.9733   -9.6553   17.3832 N   0  0  0  0  0  0  0  0  0  0  0  0
   10.2411   -2.9363   23.4301 C   0  0  0  0  0  0  0  0  0  0  0  0
   10.7288   -3.8197   19.9525 C   0  0  0  0  0  0  0  0  0  0  0  0
   10.1189   -5.0054   19.6987 C   0  0  0  0  0  0  0  0  0  0  0  0
  1  3  4  0
  1  7  4  0
  2 21  4  0
  2 27  4  0
  3  9  4  0
  3 10  4  0
  4  8  4  0
  4 18  4  0
  4 25  1  0
  5  9  4  0
  5 12  4  0
  6 13  1  0
  6 27  1  0
  7 28  4  0
  8 11  4  0
  9 29  4  0
 10 12  4  0
 11 24  1  0
 11 26  4  0
 12 25  1  0
 13 28  1  0
 14 20  4  0
 14 23  4  0
 15 17  4  0
 15 21  4  0
 16 19  4  0
 16 23  4  0
 17 22  4  0
 18 26  4  0
 19 24  4  0
 20 24  4  0
 22 27  4  0
 28 29  4  0
M  END
$$$$

 Created by Python create_sdf_string function

 29 33  0  0  0  0  0  0  0  0999 V2000
   10.7215   -3.3326   17.6437 C   0  0  0  0  0  0  0  0  0  0  0  0
    9.9489   -3.4675   24.6487 N   0  0  0  0  0  0  0  0  0  0  0  0
   10.0172   -4.4740   17.4101 C   0  0  0  0  0  0  0  0  0  0  0  0
    6.9051   -7.9575   16.4222 C   0  0  0  0  0  0  0  0  0  0  0  0
    8.9969   -6.3552   17.9668 N   0  0  0  0  0  0  0  0  0  0  0  0
   10.6702   -3.9051   22.4070 C   0  0  0  0  0  0  0  0  0  0  0  0
   11.0625   -3.0028   18.8894 C   0  0  0  0  0  0  0  0  0  0  0  0
    5.6180   -7.9194   16.1754 O   0  0  0  0  0  0  0  0  0  0  0  0
    9.7259   -5.3080   18.4485 C   0  0  0  0  0  0  0  0  0  0  0  0
    9.4578   -5.0200   16.3036 N   0  0  0  0  0  0  0  0  0  0  0  0
    5.0287   -8.9365   16.8223 C   0  0  0  0  0  0  0  0  0  0  0  0
    8.7742   -6.1498   16.6764 C   0  0  0  0  0  0  0  0  0  0  0  0
   10.9418   -3.4032   21.2053 O   0  0  0  0  0  0  0  0  0  0  0  0
    1.4797   -8.6258   16.2950 C   0  0  0  0  0  0  0  0  0  0  0  0
    9.2861   -1.2743   25.3585 C   0  0  0  0  0  0  0  0  0  0  0  0
    1.8892  -10.3985   17.7511 N   0  0  0  0  0  0  0  0  0  0  0  0
    9.6210   -0.6952   24.0976 C   0  0  0  0  0  0  0  0  0  0  0  0
    7.0792   -9.0217   17.1429 C   0  0  0  0  0  0  0  0  0  0  0  0
    3.1713  -10.1816   17.6634 C   0  0  0  0  0  0  0  0  0  0  0  0
    2.7878   -8.3822   16.2137 C   0  0  0  0  0  0  0  0  0  0  0  0
    9.4601   -2.6590   25.6528 C   0  0  0  0  0  0  0  0  0  0  0  0
   10.1182   -1.5672   23.1165 C   0  0  0  0  0  0  0  0  0  0  0  0
    1.0552   -9.6360   17.0650 C   0  0  0  0  0  0  0  0  0  0  0  0
    3.6519   -9.1783   16.9039 C   0  0  0  0  0  0  0  0  0  0  0  0
    7.8675   -7.0096   15.9415 C   0  0  0  0  0  0  0  0  0  0  0  0
    5.9733   -9.6553   17.3832 N   0  0  0  0  0  0  0  0  0  0  0  0
   10.2411   -2.9363   23.4301 C   0  0  0  0  0  0  0  0  0  0  0  0
   10.7288   -3.8197   19.9525 C   0  0  0  0  0  0  0  0  0  0  0  0
   10.1189   -5.0054   19.6987 C   0  0  0  0  0  0  0  0  0  0  0  0
  1  3  4  0
  1  7  4  0
  2 21  4  0
  2 27  4  0
  3  9  4  0
  3 10  4  0
  4  8  4  0
  4 18  4  0
  4 25  1  0
  5  9  4  0
  5 12  4  0
  6 13  1  0
  6 27  1  0
  7 28  4  0
  8 11  4  0
  9 29  4  0
 10 12  4  0
 11 24  1  0
 11 26  4  0
 12 25  1  0
 13 28  1  0
 14 20  4  0
 14 23  4  0
 15 17  4  0
 15 21  4  0
 16 19  4  0
 16 23  4  0
 17 22  4  0
 18 26  4  0
 19 24  4  0
 20 24  4  0
 22 27  4  0
 28 29  4  0
M  END
$$$$

 Created by Python create_sdf_string function

 29 33  0  0  0  0  0  0  0  0999 V2000
   10.7215   -3.3326   17.6437 C   0  0  0  0  0  0  0  0  0  0  0  0
    9.9489   -3.4675   24.6487 N   0  0  0  0  0  0  0  0  0  0  0  0
   10.0172   -4.4740   17.4101 C   0  0  0  0  0  0  0  0  0  0  0  0
    6.9051   -7.9575   16.4222 C   0  0  0  0  0  0  0  0  0  0  0  0
    8.9969   -6.3552   17.9668 N   0  0  0  0  0  0  0  0  0  0  0  0
   10.6702   -3.9051   22.4070 C   0  0  0  0  0  0  0  0  0  0  0  0
   11.0625   -3.0028   18.8894 C   0  0  0  0  0  0  0  0  0  0  0  0
    5.6180   -7.9194   16.1754 O   0  0  0  0  0  0  0  0  0  0  0  0
    9.7259   -5.3080   18.4485 C   0  0  0  0  0  0  0  0  0  0  0  0
    9.4578   -5.0200   16.3036 N   0  0  0  0  0  0  0  0  0  0  0  0
    5.0287   -8.9365   16.8223 C   0  0  0  0  0  0  0  0  0  0  0  0
    8.7742   -6.1498   16.6764 C   0  0  0  0  0  0  0  0  0  0  0  0
   10.9418   -3.4032   21.2053 O   0  0  0  0  0  0  0  0  0  0  0  0
    1.4797   -8.6258   16.2950 C   0  0  0  0  0  0  0  0  0  0  0  0
    9.2861   -1.2743   25.3585 C   0  0  0  0  0  0  0  0  0  0  0  0
    1.8892  -10.3985   17.7511 N   0  0  0  0  0  0  0  0  0  0  0  0
    9.6210   -0.6952   24.0976 C   0  0  0  0  0  0  0  0  0  0  0  0
    7.0792   -9.0217   17.1429 C   0  0  0  0  0  0  0  0  0  0  0  0
    3.1713  -10.1816   17.6634 C   0  0  0  0  0  0  0  0  0  0  0  0
    2.7878   -8.3822   16.2137 C   0  0  0  0  0  0  0  0  0  0  0  0
    9.4601   -2.6590   25.6528 C   0  0  0  0  0  0  0  0  0  0  0  0
   10.1182   -1.5672   23.1165 C   0  0  0  0  0  0  0  0  0  0  0  0
    1.0552   -9.6360   17.0650 C   0  0  0  0  0  0  0  0  0  0  0  0
    3.6519   -9.1783   16.9039 C   0  0  0  0  0  0  0  0  0  0  0  0
    7.8675   -7.0096   15.9415 C   0  0  0  0  0  0  0  0  0  0  0  0
    5.9733   -9.6553   17.3832 N   0  0  0  0  0  0  0  0  0  0  0  0
   10.2411   -2.9363   23.4301 C   0  0  0  0  0  0  0  0  0  0  0  0
   10.7288   -3.8197   19.9525 C   0  0  0  0  0  0  0  0  0  0  0  0
   10.1189   -5.0054   19.6987 C   0  0  0  0  0  0  0  0  0  0  0  0
  1  3  4  0
  1  7  4  0
  2 21  4  0
  2 27  4  0
  3  9  4  0
  3 10  4  0
  4  8  4  0
  4 18  4  0
  4 25  1  0
  5  9  4  0
  5 12  4  0
  6 13  1  0
  6 27  1  0
  7 28  4  0
  8 11  4  0
  9 29  4  0
 10 12  4  0
 11 24  1  0
 11 26  4  0
 12 25  1  0
 13 28  1  0
 14 20  4  0
 14 23  4  0
 15 17  4  0
 15 21  4  0
 16 19  4  0
 16 23  4  0
 17 22  4  0
 18 26  4  0
 19 24  4  0
 20 24  4  0
 22 27  4  0
 28 29  4  0
M  END
$$$$

 Created by Python create_sdf_string function

 29 33  0  0  0  0  0  0  0  0999 V2000
   10.7215   -3.3326   17.6437 C   0  0  0  0  0  0  0  0  0  0  0  0
    9.9489   -3.4675   24.6487 N   0  0  0  0  0  0  0  0  0  0  0  0
   10.0172   -4.4740   17.4101 C   0  0  0  0  0  0  0  0  0  0  0  0
    6.9051   -7.9575   16.4222 C   0  0  0  0  0  0  0  0  0  0  0  0
    8.9969   -6.3552   17.9668 N   0  0  0  0  0  0  0  0  0  0  0  0
   10.6702   -3.9051   22.4070 C   0  0  0  0  0  0  0  0  0  0  0  0
   11.0625   -3.0028   18.8894 C   0  0  0  0  0  0  0  0  0  0  0  0
    5.6180   -7.9194   16.1754 O   0  0  0  0  0  0  0  0  0  0  0  0
    9.7259   -5.3080   18.4485 C   0  0  0  0  0  0  0  0  0  0  0  0
    9.4578   -5.0200   16.3036 N   0  0  0  0  0  0  0  0  0  0  0  0
    5.0287   -8.9365   16.8223 C   0  0  0  0  0  0  0  0  0  0  0  0
    8.7742   -6.1498   16.6764 C   0  0  0  0  0  0  0  0  0  0  0  0
   10.9418   -3.4032   21.2053 O   0  0  0  0  0  0  0  0  0  0  0  0
    1.4797   -8.6258   16.2950 C   0  0  0  0  0  0  0  0  0  0  0  0
    9.2861   -1.2743   25.3585 C   0  0  0  0  0  0  0  0  0  0  0  0
    1.8892  -10.3985   17.7511 N   0  0  0  0  0  0  0  0  0  0  0  0
    9.6210   -0.6952   24.0976 C   0  0  0  0  0  0  0  0  0  0  0  0
    7.0792   -9.0217   17.1429 C   0  0  0  0  0  0  0  0  0  0  0  0
    3.1713  -10.1816   17.6634 C   0  0  0  0  0  0  0  0  0  0  0  0
    2.7878   -8.3822   16.2137 C   0  0  0  0  0  0  0  0  0  0  0  0
    9.4601   -2.6590   25.6528 C   0  0  0  0  0  0  0  0  0  0  0  0
   10.1182   -1.5672   23.1165 C   0  0  0  0  0  0  0  0  0  0  0  0
    1.0552   -9.6360   17.0650 C   0  0  0  0  0  0  0  0  0  0  0  0
    3.6519   -9.1783   16.9039 C   0  0  0  0  0  0  0  0  0  0  0  0
    7.8675   -7.0096   15.9415 C   0  0  0  0  0  0  0  0  0  0  0  0
    5.9733   -9.6553   17.3832 N   0  0  0  0  0  0  0  0  0  0  0  0
   10.2411   -2.9363   23.4301 C   0  0  0  0  0  0  0  0  0  0  0  0
   10.7288   -3.8197   19.9525 C   0  0  0  0  0  0  0  0  0  0  0  0
   10.1189   -5.0054   19.6987 C   0  0  0  0  0  0  0  0  0  0  0  0
  1  3  4  0
  1  7  4  0
  2 21  4  0
  2 27  4  0
  3  9  4  0
  3 10  4  0
  4  8  4  0
  4 18  4  0
  4 25  1  0
  5  9  4  0
  5 12  4  0
  6 13  1  0
  6 27  1  0
  7 28  4  0
  8 11  4  0
  9 29  4  0
 10 12  4  0
 11 24  1  0
 11 26  4  0
 12 25  1  0
 13 28  1  0
 14 20  4  0
 14 23  4  0
 15 17  4  0
 15 21  4  0
 16 19  4  0
 16 23  4  0
 17 22  4  0
 18 26  4  0
 19 24  4  0
 20 24  4  0
 22 27  4  0
 28 29  4  0
M  END
$$$$

 Created by Python create_sdf_string function

 29 33  0  0  0  0  0  0  0  0999 V2000
   10.7215   -3.3326   17.6437 C   0  0  0  0  0  0  0  0  0  0  0  0
    9.9489   -3.4675   24.6487 N   0  0  0  0  0  0  0  0  0  0  0  0
   10.0172   -4.4740   17.4101 C   0  0  0  0  0  0  0  0  0  0  0  0
    6.9051   -7.9575   16.4222 C   0  0  0  0  0  0  0  0  0  0  0  0
    8.9969   -6.3552   17.9668 N   0  0  0  0  0  0  0  0  0  0  0  0
   10.6702   -3.9051   22.4070 C   0  0  0  0  0  0  0  0  0  0  0  0
   11.0625   -3.0028   18.8894 C   0  0  0  0  0  0  0  0  0  0  0  0
    5.6180   -7.9194   16.1754 O   0  0  0  0  0  0  0  0  0  0  0  0
    9.7259   -5.3080   18.4485 C   0  0  0  0  0  0  0  0  0  0  0  0
    9.4578   -5.0200   16.3036 N   0  0  0  0  0  0  0  0  0  0  0  0
    5.0287   -8.9365   16.8223 C   0  0  0  0  0  0  0  0  0  0  0  0
    8.7742   -6.1498   16.6764 C   0  0  0  0  0  0  0  0  0  0  0  0
   10.9418   -3.4032   21.2053 O   0  0  0  0  0  0  0  0  0  0  0  0
    1.4797   -8.6258   16.2950 C   0  0  0  0  0  0  0  0  0  0  0  0
    9.2861   -1.2743   25.3585 C   0  0  0  0  0  0  0  0  0  0  0  0
    1.8892  -10.3985   17.7511 N   0  0  0  0  0  0  0  0  0  0  0  0
    9.6210   -0.6952   24.0976 C   0  0  0  0  0  0  0  0  0  0  0  0
    7.0792   -9.0217   17.1429 C   0  0  0  0  0  0  0  0  0  0  0  0
    3.1713  -10.1816   17.6634 C   0  0  0  0  0  0  0  0  0  0  0  0
    2.7878   -8.3822   16.2137 C   0  0  0  0  0  0  0  0  0  0  0  0
    9.4601   -2.6590   25.6528 C   0  0  0  0  0  0  0  0  0  0  0  0
   10.1182   -1.5672   23.1165 C   0  0  0  0  0  0  0  0  0  0  0  0
    1.0552   -9.6360   17.0650 C   0  0  0  0  0  0  0  0  0  0  0  0
    3.6519   -9.1783   16.9039 C   0  0  0  0  0  0  0  0  0  0  0  0
    7.8675   -7.0096   15.9415 C   0  0  0  0  0  0  0  0  0  0  0  0
    5.9733   -9.6553   17.3832 N   0  0  0  0  0  0  0  0  0  0  0  0
   10.2411   -2.9363   23.4301 C   0  0  0  0  0  0  0  0  0  0  0  0
   10.7288   -3.8197   19.9525 C   0  0  0  0  0  0  0  0  0  0  0  0
   10.1189   -5.0054   19.6987 C   0  0  0  0  0  0  0  0  0  0  0  0
  1  3  4  0
  1  7  4  0
  2 21  4  0
  2 27  4  0
  3  9  4  0
  3 10  4  0
  4  8  4  0
  4 18  4  0
  4 25  1  0
  5  9  4  0
  5 12  4  0
  6 13  1  0
  6 27  1  0
  7 28  4  0
  8 11  4  0
  9 29  4  0
 10 12  4  0
 11 24  1  0
 11 26  4  0
 12 25  1  0
 13 28  1  0
 14 20  4  0
 14 23  4  0
 15 17  4  0
 15 21  4  0
 16 19  4  0
 16 23  4  0
 17 22  4  0
 18 26  4  0
 19 24  4  0
 20 24  4  0
 22 27  4  0
 28 29  4  0
M  END
$$$$

 Created by Python create_sdf_string function

 29 33  0  0  0  0  0  0  0  0999 V2000
   10.7215   -3.3326   17.6437 C   0  0  0  0  0  0  0  0  0  0  0  0
    9.9489   -3.4675   24.6487 N   0  0  0  0  0  0  0  0  0  0  0  0
   10.0172   -4.4740   17.4101 C   0  0  0  0  0  0  0  0  0  0  0  0
    6.9051   -7.9575   16.4222 C   0  0  0  0  0  0  0  0  0  0  0  0
    8.9969   -6.3552   17.9668 N   0  0  0  0  0  0  0  0  0  0  0  0
   10.6702   -3.9051   22.4070 C   0  0  0  0  0  0  0  0  0  0  0  0
   11.0625   -3.0028   18.8894 C   0  0  0  0  0  0  0  0  0  0  0  0
    5.6180   -7.9194   16.1754 O   0  0  0  0  0  0  0  0  0  0  0  0
    9.7259   -5.3080   18.4485 C   0  0  0  0  0  0  0  0  0  0  0  0
    9.4578   -5.0200   16.3036 N   0  0  0  0  0  0  0  0  0  0  0  0
    5.0287   -8.9365   16.8223 C   0  0  0  0  0  0  0  0  0  0  0  0
    8.7742   -6.1498   16.6764 C   0  0  0  0  0  0  0  0  0  0  0  0
   10.9418   -3.4032   21.2053 O   0  0  0  0  0  0  0  0  0  0  0  0
    1.4797   -8.6258   16.2950 C   0  0  0  0  0  0  0  0  0  0  0  0
    9.2861   -1.2743   25.3585 C   0  0  0  0  0  0  0  0  0  0  0  0
    1.8892  -10.3985   17.7511 N   0  0  0  0  0  0  0  0  0  0  0  0
    9.6210   -0.6952   24.0976 C   0  0  0  0  0  0  0  0  0  0  0  0
    7.0792   -9.0217   17.1429 C   0  0  0  0  0  0  0  0  0  0  0  0
    3.1713  -10.1816   17.6634 C   0  0  0  0  0  0  0  0  0  0  0  0
    2.7878   -8.3822   16.2137 C   0  0  0  0  0  0  0  0  0  0  0  0
    9.4601   -2.6590   25.6528 C   0  0  0  0  0  0  0  0  0  0  0  0
   10.1182   -1.5672   23.1165 C   0  0  0  0  0  0  0  0  0  0  0  0
    1.0552   -9.6360   17.0650 C   0  0  0  0  0  0  0  0  0  0  0  0
    3.6519   -9.1783   16.9039 C   0  0  0  0  0  0  0  0  0  0  0  0
    7.8675   -7.0096   15.9415 C   0  0  0  0  0  0  0  0  0  0  0  0
    5.9733   -9.6553   17.3832 N   0  0  0  0  0  0  0  0  0  0  0  0
   10.2411   -2.9363   23.4301 C   0  0  0  0  0  0  0  0  0  0  0  0
   10.7288   -3.8197   19.9525 C   0  0  0  0  0  0  0  0  0  0  0  0
   10.1189   -5.0054   19.6987 C   0  0  0  0  0  0  0  0  0  0  0  0
  1  3  4  0
  1  7  4  0
  2 21  4  0
  2 27  4  0
  3  9  4  0
  3 10  4  0
  4  8  4  0
  4 18  4  0
  4 25  1  0
  5  9  4  0
  5 12  4  0
  6 13  1  0
  6 27  1  0
  7 28  4  0
  8 11  4  0
  9 29  4  0
 10 12  4  0
 11 24  1  0
 11 26  4  0
 12 25  1  0
 13 28  1  0
 14 20  4  0
 14 23  4  0
 15 17  4  0
 15 21  4  0
 16 19  4  0
 16 23  4  0
 17 22  4  0
 18 26  4  0
 19 24  4  0
 20 24  4  0
 22 27  4  0
 28 29  4  0
M  END
$$$$

 Created by Python create_sdf_string function

 29 33  0  0  0  0  0  0  0  0999 V2000
   10.7215   -3.3326   17.6437 C   0  0  0  0  0  0  0  0  0  0  0  0
    9.9489   -3.4675   24.6487 N   0  0  0  0  0  0  0  0  0  0  0  0
   10.0172   -4.4740   17.4101 C   0  0  0  0  0  0  0  0  0  0  0  0
    6.9051   -7.9575   16.4222 C   0  0  0  0  0  0  0  0  0  0  0  0
    8.9969   -6.3552   17.9668 N   0  0  0  0  0  0  0  0  0  0  0  0
   10.6702   -3.9051   22.4070 C   0  0  0  0  0  0  0  0  0  0  0  0
   11.0625   -3.0028   18.8894 C   0  0  0  0  0  0  0  0  0  0  0  0
    5.6180   -7.9194   16.1754 O   0  0  0  0  0  0  0  0  0  0  0  0
    9.7259   -5.3080   18.4485 C   0  0  0  0  0  0  0  0  0  0  0  0
    9.4578   -5.0200   16.3036 N   0  0  0  0  0  0  0  0  0  0  0  0
    5.0287   -8.9365   16.8223 C   0  0  0  0  0  0  0  0  0  0  0  0
    8.7742   -6.1498   16.6764 C   0  0  0  0  0  0  0  0  0  0  0  0
   10.9418   -3.4032   21.2053 O   0  0  0  0  0  0  0  0  0  0  0  0
    1.4797   -8.6258   16.2950 C   0  0  0  0  0  0  0  0  0  0  0  0
    9.2861   -1.2743   25.3585 C   0  0  0  0  0  0  0  0  0  0  0  0
    1.8892  -10.3985   17.7511 N   0  0  0  0  0  0  0  0  0  0  0  0
    9.6210   -0.6952   24.0976 C   0  0  0  0  0  0  0  0  0  0  0  0
    7.0792   -9.0217   17.1429 C   0  0  0  0  0  0  0  0  0  0  0  0
    3.1713  -10.1816   17.6634 C   0  0  0  0  0  0  0  0  0  0  0  0
    2.7878   -8.3822   16.2137 C   0  0  0  0  0  0  0  0  0  0  0  0
    9.4601   -2.6590   25.6528 C   0  0  0  0  0  0  0  0  0  0  0  0
   10.1182   -1.5672   23.1165 C   0  0  0  0  0  0  0  0  0  0  0  0
    1.0552   -9.6360   17.0650 C   0  0  0  0  0  0  0  0  0  0  0  0
    3.6519   -9.1783   16.9039 C   0  0  0  0  0  0  0  0  0  0  0  0
    7.8675   -7.0096   15.9415 C   0  0  0  0  0  0  0  0  0  0  0  0
    5.9733   -9.6553   17.3832 N   0  0  0  0  0  0  0  0  0  0  0  0
   10.2411   -2.9363   23.4301 C   0  0  0  0  0  0  0  0  0  0  0  0
   10.7288   -3.8197   19.9525 C   0  0  0  0  0  0  0  0  0  0  0  0
   10.1189   -5.0054   19.6987 C   0  0  0  0  0  0  0  0  0  0  0  0
  1  3  4  0
  1  7  4  0
  2 21  4  0
  2 27  4  0
  3  9  4  0
  3 10  4  0
  4  8  4  0
  4 18  4  0
  4 25  1  0
  5  9  4  0
  5 12  4  0
  6 13  1  0
  6 27  1  0
  7 28  4  0
  8 11  4  0
  9 29  4  0
 10 12  4  0
 11 24  1  0
 11 26  4  0
 12 25  1  0
 13 28  1  0
 14 20  4  0
 14 23  4  0
 15 17  4  0
 15 21  4  0
 16 19  4  0
 16 23  4  0
 17 22  4  0
 18 26  4  0
 19 24  4  0
 20 24  4  0
 22 27  4  0
 28 29  4  0
M  END
$$$$

 Created by Python create_sdf_string function

 29 33  0  0  0  0  0  0  0  0999 V2000
   10.7215   -3.3326   17.6437 C   0  0  0  0  0  0  0  0  0  0  0  0
    9.9489   -3.4675   24.6487 N   0  0  0  0  0  0  0  0  0  0  0  0
   10.0172   -4.4740   17.4101 C   0  0  0  0  0  0  0  0  0  0  0  0
    6.9051   -7.9575   16.4222 C   0  0  0  0  0  0  0  0  0  0  0  0
    8.9969   -6.3552   17.9668 N   0  0  0  0  0  0  0  0  0  0  0  0
   10.6702   -3.9051   22.4070 C   0  0  0  0  0  0  0  0  0  0  0  0
   11.0625   -3.0028   18.8894 C   0  0  0  0  0  0  0  0  0  0  0  0
    5.6180   -7.9194   16.1754 O   0  0  0  0  0  0  0  0  0  0  0  0
    9.7259   -5.3080   18.4485 C   0  0  0  0  0  0  0  0  0  0  0  0
    9.4578   -5.0200   16.3036 N   0  0  0  0  0  0  0  0  0  0  0  0
    5.0287   -8.9365   16.8223 C   0  0  0  0  0  0  0  0  0  0  0  0
    8.7742   -6.1498   16.6764 C   0  0  0  0  0  0  0  0  0  0  0  0
   10.9418   -3.4032   21.2053 O   0  0  0  0  0  0  0  0  0  0  0  0
    1.4797   -8.6258   16.2950 C   0  0  0  0  0  0  0  0  0  0  0  0
    9.2861   -1.2743   25.3585 C   0  0  0  0  0  0  0  0  0  0  0  0
    1.8892  -10.3985   17.7511 N   0  0  0  0  0  0  0  0  0  0  0  0
    9.6210   -0.6952   24.0976 C   0  0  0  0  0  0  0  0  0  0  0  0
    7.0792   -9.0217   17.1429 C   0  0  0  0  0  0  0  0  0  0  0  0
    3.1713  -10.1816   17.6634 C   0  0  0  0  0  0  0  0  0  0  0  0
    2.7878   -8.3822   16.2137 C   0  0  0  0  0  0  0  0  0  0  0  0
    9.4601   -2.6590   25.6528 C   0  0  0  0  0  0  0  0  0  0  0  0
   10.1182   -1.5672   23.1165 C   0  0  0  0  0  0  0  0  0  0  0  0
    1.0552   -9.6360   17.0650 C   0  0  0  0  0  0  0  0  0  0  0  0
    3.6519   -9.1783   16.9039 C   0  0  0  0  0  0  0  0  0  0  0  0
    7.8675   -7.0096   15.9415 C   0  0  0  0  0  0  0  0  0  0  0  0
    5.9733   -9.6553   17.3832 N   0  0  0  0  0  0  0  0  0  0  0  0
   10.2411   -2.9363   23.4301 C   0  0  0  0  0  0  0  0  0  0  0  0
   10.7288   -3.8197   19.9525 C   0  0  0  0  0  0  0  0  0  0  0  0
   10.1189   -5.0054   19.6987 C   0  0  0  0  0  0  0  0  0  0  0  0
  1  3  4  0
  1  7  4  0
  2 21  4  0
  2 27  4  0
  3  9  4  0
  3 10  4  0
  4  8  4  0
  4 18  4  0
  4 25  1  0
  5  9  4  0
  5 12  4  0
  6 13  1  0
  6 27  1  0
  7 28  4  0
  8 11  4  0
  9 29  4  0
 10 12  4  0
 11 24  1  0
 11 26  4  0
 12 25  1  0
 13 28  1  0
 14 20  4  0
 14 23  4  0
 15 17  4  0
 15 21  4  0
 16 19  4  0
 16 23  4  0
 17 22  4  0
 18 26  4  0
 19 24  4  0
 20 24  4  0
 22 27  4  0
 28 29  4  0
M  END
$$$$

 Created by Python create_sdf_string function

 29 33  0  0  0  0  0  0  0  0999 V2000
   10.7215   -3.3326   17.6437 C   0  0  0  0  0  0  0  0  0  0  0  0
    9.9489   -3.4675   24.6487 N   0  0  0  0  0  0  0  0  0  0  0  0
   10.0172   -4.4740   17.4101 C   0  0  0  0  0  0  0  0  0  0  0  0
    6.9051   -7.9575   16.4222 C   0  0  0  0  0  0  0  0  0  0  0  0
    8.9969   -6.3552   17.9668 N   0  0  0  0  0  0  0  0  0  0  0  0
   10.6702   -3.9051   22.4070 C   0  0  0  0  0  0  0  0  0  0  0  0
   11.0625   -3.0028   18.8894 C   0  0  0  0  0  0  0  0  0  0  0  0
    5.6180   -7.9194   16.1754 O   0  0  0  0  0  0  0  0  0  0  0  0
    9.7259   -5.3080   18.4485 C   0  0  0  0  0  0  0  0  0  0  0  0
    9.4578   -5.0200   16.3036 N   0  0  0  0  0  0  0  0  0  0  0  0
    5.0287   -8.9365   16.8223 C   0  0  0  0  0  0  0  0  0  0  0  0
    8.7742   -6.1498   16.6764 C   0  0  0  0  0  0  0  0  0  0  0  0
   10.9418   -3.4032   21.2053 O   0  0  0  0  0  0  0  0  0  0  0  0
    1.4797   -8.6258   16.2950 C   0  0  0  0  0  0  0  0  0  0  0  0
    9.2861   -1.2743   25.3585 C   0  0  0  0  0  0  0  0  0  0  0  0
    1.8892  -10.3985   17.7511 N   0  0  0  0  0  0  0  0  0  0  0  0
    9.6210   -0.6952   24.0976 C   0  0  0  0  0  0  0  0  0  0  0  0
    7.0792   -9.0217   17.1429 C   0  0  0  0  0  0  0  0  0  0  0  0
    3.1713  -10.1816   17.6634 C   0  0  0  0  0  0  0  0  0  0  0  0
    2.7878   -8.3822   16.2137 C   0  0  0  0  0  0  0  0  0  0  0  0
    9.4601   -2.6590   25.6528 C   0  0  0  0  0  0  0  0  0  0  0  0
   10.1182   -1.5672   23.1165 C   0  0  0  0  0  0  0  0  0  0  0  0
    1.0552   -9.6360   17.0650 C   0  0  0  0  0  0  0  0  0  0  0  0
    3.6519   -9.1783   16.9039 C   0  0  0  0  0  0  0  0  0  0  0  0
    7.8675   -7.0096   15.9415 C   0  0  0  0  0  0  0  0  0  0  0  0
    5.9733   -9.6553   17.3832 N   0  0  0  0  0  0  0  0  0  0  0  0
   10.2411   -2.9363   23.4301 C   0  0  0  0  0  0  0  0  0  0  0  0
   10.7288   -3.8197   19.9525 C   0  0  0  0  0  0  0  0  0  0  0  0
   10.1189   -5.0054   19.6987 C   0  0  0  0  0  0  0  0  0  0  0  0
  1  3  4  0
  1  7  4  0
  2 21  4  0
  2 27  4  0
  3  9  4  0
  3 10  4  0
  4  8  4  0
  4 18  4  0
  4 25  1  0
  5  9  4  0
  5 12  4  0
  6 13  1  0
  6 27  1  0
  7 28  4  0
  8 11  4  0
  9 29  4  0
 10 12  4  0
 11 24  1  0
 11 26  4  0
 12 25  1  0
 13 28  1  0
 14 20  4  0
 14 23  4  0
 15 17  4  0
 15 21  4  0
 16 19  4  0
 16 23  4  0
 17 22  4  0
 18 26  4  0
 19 24  4  0
 20 24  4  0
 22 27  4  0
 28 29  4  0
M  END
$$$$

 Created by Python create_sdf_string function

 29 33  0  0  0  0  0  0  0  0999 V2000
   10.7215   -3.3326   17.6437 C   0  0  0  0  0  0  0  0  0  0  0  0
    9.9489   -3.4675   24.6487 N   0  0  0  0  0  0  0  0  0  0  0  0
   10.0172   -4.4740   17.4101 C   0  0  0  0  0  0  0  0  0  0  0  0
    6.9051   -7.9575   16.4222 C   0  0  0  0  0  0  0  0  0  0  0  0
    8.9969   -6.3552   17.9668 N   0  0  0  0  0  0  0  0  0  0  0  0
   10.6702   -3.9051   22.4070 C   0  0  0  0  0  0  0  0  0  0  0  0
   11.0625   -3.0028   18.8894 C   0  0  0  0  0  0  0  0  0  0  0  0
    5.6180   -7.9194   16.1754 O   0  0  0  0  0  0  0  0  0  0  0  0
    9.7259   -5.3080   18.4485 C   0  0  0  0  0  0  0  0  0  0  0  0
    9.4578   -5.0200   16.3036 N   0  0  0  0  0  0  0  0  0  0  0  0
    5.0287   -8.9365   16.8223 C   0  0  0  0  0  0  0  0  0  0  0  0
    8.7742   -6.1498   16.6764 C   0  0  0  0  0  0  0  0  0  0  0  0
   10.9418   -3.4032   21.2053 O   0  0  0  0  0  0  0  0  0  0  0  0
    1.4797   -8.6258   16.2950 C   0  0  0  0  0  0  0  0  0  0  0  0
    9.2861   -1.2743   25.3585 C   0  0  0  0  0  0  0  0  0  0  0  0
    1.8892  -10.3985   17.7511 N   0  0  0  0  0  0  0  0  0  0  0  0
    9.6210   -0.6952   24.0976 C   0  0  0  0  0  0  0  0  0  0  0  0
    7.0792   -9.0217   17.1429 C   0  0  0  0  0  0  0  0  0  0  0  0
    3.1713  -10.1816   17.6634 C   0  0  0  0  0  0  0  0  0  0  0  0
    2.7878   -8.3822   16.2137 C   0  0  0  0  0  0  0  0  0  0  0  0
    9.4601   -2.6590   25.6528 C   0  0  0  0  0  0  0  0  0  0  0  0
   10.1182   -1.5672   23.1165 C   0  0  0  0  0  0  0  0  0  0  0  0
    1.0552   -9.6360   17.0650 C   0  0  0  0  0  0  0  0  0  0  0  0
    3.6519   -9.1783   16.9039 C   0  0  0  0  0  0  0  0  0  0  0  0
    7.8675   -7.0096   15.9415 C   0  0  0  0  0  0  0  0  0  0  0  0
    5.9733   -9.6553   17.3832 N   0  0  0  0  0  0  0  0  0  0  0  0
   10.2411   -2.9363   23.4301 C   0  0  0  0  0  0  0  0  0  0  0  0
   10.7288   -3.8197   19.9525 C   0  0  0  0  0  0  0  0  0  0  0  0
   10.1189   -5.0054   19.6987 C   0  0  0  0  0  0  0  0  0  0  0  0
  1  3  4  0
  1  7  4  0
  2 21  4  0
  2 27  4  0
  3  9  4  0
  3 10  4  0
  4  8  4  0
  4 18  4  0
  4 25  1  0
  5  9  4  0
  5 12  4  0
  6 13  1  0
  6 27  1  0
  7 28  4  0
  8 11  4  0
  9 29  4  0
 10 12  4  0
 11 24  1  0
 11 26  4  0
 12 25  1  0
 13 28  1  0
 14 20  4  0
 14 23  4  0
 15 17  4  0
 15 21  4  0
 16 19  4  0
 16 23  4  0
 17 22  4  0
 18 26  4  0
 19 24  4  0
 20 24  4  0
 22 27  4  0
 28 29  4  0
M  END
$$$$

 Created by Python create_sdf_string function

 29 33  0  0  0  0  0  0  0  0999 V2000
   10.7215   -3.3326   17.6437 C   0  0  0  0  0  0  0  0  0  0  0  0
    9.9489   -3.4675   24.6487 N   0  0  0  0  0  0  0  0  0  0  0  0
   10.0172   -4.4740   17.4101 C   0  0  0  0  0  0  0  0  0  0  0  0
    6.9051   -7.9575   16.4222 C   0  0  0  0  0  0  0  0  0  0  0  0
    8.9969   -6.3552   17.9668 N   0  0  0  0  0  0  0  0  0  0  0  0
   10.6702   -3.9051   22.4070 C   0  0  0  0  0  0  0  0  0  0  0  0
   11.0625   -3.0028   18.8894 C   0  0  0  0  0  0  0  0  0  0  0  0
    5.6180   -7.9194   16.1754 O   0  0  0  0  0  0  0  0  0  0  0  0
    9.7259   -5.3080   18.4485 C   0  0  0  0  0  0  0  0  0  0  0  0
    9.4578   -5.0200   16.3036 N   0  0  0  0  0  0  0  0  0  0  0  0
    5.0287   -8.9365   16.8223 C   0  0  0  0  0  0  0  0  0  0  0  0
    8.7742   -6.1498   16.6764 C   0  0  0  0  0  0  0  0  0  0  0  0
   10.9418   -3.4032   21.2053 O   0  0  0  0  0  0  0  0  0  0  0  0
    1.4797   -8.6258   16.2950 C   0  0  0  0  0  0  0  0  0  0  0  0
    9.2861   -1.2743   25.3585 C   0  0  0  0  0  0  0  0  0  0  0  0
    1.8892  -10.3985   17.7511 N   0  0  0  0  0  0  0  0  0  0  0  0
    9.6210   -0.6952   24.0976 C   0  0  0  0  0  0  0  0  0  0  0  0
    7.0792   -9.0217   17.1429 C   0  0  0  0  0  0  0  0  0  0  0  0
    3.1713  -10.1816   17.6634 C   0  0  0  0  0  0  0  0  0  0  0  0
    2.7878   -8.3822   16.2137 C   0  0  0  0  0  0  0  0  0  0  0  0
    9.4601   -2.6590   25.6528 C   0  0  0  0  0  0  0  0  0  0  0  0
   10.1182   -1.5672   23.1165 C   0  0  0  0  0  0  0  0  0  0  0  0
    1.0552   -9.6360   17.0650 C   0  0  0  0  0  0  0  0  0  0  0  0
    3.6519   -9.1783   16.9039 C   0  0  0  0  0  0  0  0  0  0  0  0
    7.8675   -7.0096   15.9415 C   0  0  0  0  0  0  0  0  0  0  0  0
    5.9733   -9.6553   17.3832 N   0  0  0  0  0  0  0  0  0  0  0  0
   10.2411   -2.9363   23.4301 C   0  0  0  0  0  0  0  0  0  0  0  0
   10.7288   -3.8197   19.9525 C   0  0  0  0  0  0  0  0  0  0  0  0
   10.1189   -5.0054   19.6987 C   0  0  0  0  0  0  0  0  0  0  0  0
  1  3  4  0
  1  7  4  0
  2 21  4  0
  2 27  4  0
  3  9  4  0
  3 10  4  0
  4  8  4  0
  4 18  4  0
  4 25  1  0
  5  9  4  0
  5 12  4  0
  6 13  1  0
  6 27  1  0
  7 28  4  0
  8 11  4  0
  9 29  4  0
 10 12  4  0
 11 24  1  0
 11 26  4  0
 12 25  1  0
 13 28  1  0
 14 20  4  0
 14 23  4  0
 15 17  4  0
 15 21  4  0
 16 19  4  0
 16 23  4  0
 17 22  4  0
 18 26  4  0
 19 24  4  0
 20 24  4  0
 22 27  4  0
 28 29  4  0
M  END
$$$$

 Created by Python create_sdf_string function

 29 33  0  0  0  0  0  0  0  0999 V2000
   10.7215   -3.3326   17.6437 C   0  0  0  0  0  0  0  0  0  0  0  0
    9.9489   -3.4675   24.6487 N   0  0  0  0  0  0  0  0  0  0  0  0
   10.0172   -4.4740   17.4101 C   0  0  0  0  0  0  0  0  0  0  0  0
    6.9051   -7.9575   16.4222 C   0  0  0  0  0  0  0  0  0  0  0  0
    8.9969   -6.3552   17.9668 N   0  0  0  0  0  0  0  0  0  0  0  0
   10.6702   -3.9051   22.4070 C   0  0  0  0  0  0  0  0  0  0  0  0
   11.0625   -3.0028   18.8894 C   0  0  0  0  0  0  0  0  0  0  0  0
    5.6180   -7.9194   16.1754 O   0  0  0  0  0  0  0  0  0  0  0  0
    9.7259   -5.3080   18.4485 C   0  0  0  0  0  0  0  0  0  0  0  0
    9.4578   -5.0200   16.3036 N   0  0  0  0  0  0  0  0  0  0  0  0
    5.0287   -8.9365   16.8223 C   0  0  0  0  0  0  0  0  0  0  0  0
    8.7742   -6.1498   16.6764 C   0  0  0  0  0  0  0  0  0  0  0  0
   10.9418   -3.4032   21.2053 O   0  0  0  0  0  0  0  0  0  0  0  0
    1.4797   -8.6258   16.2950 C   0  0  0  0  0  0  0  0  0  0  0  0
    9.2861   -1.2743   25.3585 C   0  0  0  0  0  0  0  0  0  0  0  0
    1.8892  -10.3985   17.7511 N   0  0  0  0  0  0  0  0  0  0  0  0
    9.6210   -0.6952   24.0976 C   0  0  0  0  0  0  0  0  0  0  0  0
    7.0792   -9.0217   17.1429 C   0  0  0  0  0  0  0  0  0  0  0  0
    3.1713  -10.1816   17.6634 C   0  0  0  0  0  0  0  0  0  0  0  0
    2.7878   -8.3822   16.2137 C   0  0  0  0  0  0  0  0  0  0  0  0
    9.4601   -2.6590   25.6528 C   0  0  0  0  0  0  0  0  0  0  0  0
   10.1182   -1.5672   23.1165 C   0  0  0  0  0  0  0  0  0  0  0  0
    1.0552   -9.6360   17.0650 C   0  0  0  0  0  0  0  0  0  0  0  0
    3.6519   -9.1783   16.9039 C   0  0  0  0  0  0  0  0  0  0  0  0
    7.8675   -7.0096   15.9415 C   0  0  0  0  0  0  0  0  0  0  0  0
    5.9733   -9.6553   17.3832 N   0  0  0  0  0  0  0  0  0  0  0  0
   10.2411   -2.9363   23.4301 C   0  0  0  0  0  0  0  0  0  0  0  0
   10.7288   -3.8197   19.9525 C   0  0  0  0  0  0  0  0  0  0  0  0
   10.1189   -5.0054   19.6987 C   0  0  0  0  0  0  0  0  0  0  0  0
  1  3  4  0
  1  7  4  0
  2 21  4  0
  2 27  4  0
  3  9  4  0
  3 10  4  0
  4  8  4  0
  4 18  4  0
  4 25  1  0
  5  9  4  0
  5 12  4  0
  6 13  1  0
  6 27  1  0
  7 28  4  0
  8 11  4  0
  9 29  4  0
 10 12  4  0
 11 24  1  0
 11 26  4  0
 12 25  1  0
 13 28  1  0
 14 20  4  0
 14 23  4  0
 15 17  4  0
 15 21  4  0
 16 19  4  0
 16 23  4  0
 17 22  4  0
 18 26  4  0
 19 24  4  0
 20 24  4  0
 22 27  4  0
 28 29  4  0
M  END
$$$$

 Created by Python create_sdf_string function

 29 33  0  0  0  0  0  0  0  0999 V2000
   10.7215   -3.3326   17.6437 C   0  0  0  0  0  0  0  0  0  0  0  0
    9.9489   -3.4675   24.6487 N   0  0  0  0  0  0  0  0  0  0  0  0
   10.0172   -4.4740   17.4101 C   0  0  0  0  0  0  0  0  0  0  0  0
    6.9051   -7.9575   16.4222 C   0  0  0  0  0  0  0  0  0  0  0  0
    8.9969   -6.3552   17.9668 N   0  0  0  0  0  0  0  0  0  0  0  0
   10.6702   -3.9051   22.4070 C   0  0  0  0  0  0  0  0  0  0  0  0
   11.0625   -3.0028   18.8894 C   0  0  0  0  0  0  0  0  0  0  0  0
    5.6180   -7.9194   16.1754 O   0  0  0  0  0  0  0  0  0  0  0  0
    9.7259   -5.3080   18.4485 C   0  0  0  0  0  0  0  0  0  0  0  0
    9.4578   -5.0200   16.3036 N   0  0  0  0  0  0  0  0  0  0  0  0
    5.0287   -8.9365   16.8223 C   0  0  0  0  0  0  0  0  0  0  0  0
    8.7742   -6.1498   16.6764 C   0  0  0  0  0  0  0  0  0  0  0  0
   10.9418   -3.4032   21.2053 O   0  0  0  0  0  0  0  0  0  0  0  0
    1.4797   -8.6258   16.2950 C   0  0  0  0  0  0  0  0  0  0  0  0
    9.2861   -1.2743   25.3585 C   0  0  0  0  0  0  0  0  0  0  0  0
    1.8892  -10.3985   17.7511 N   0  0  0  0  0  0  0  0  0  0  0  0
    9.6210   -0.6952   24.0976 C   0  0  0  0  0  0  0  0  0  0  0  0
    7.0792   -9.0217   17.1429 C   0  0  0  0  0  0  0  0  0  0  0  0
    3.1713  -10.1816   17.6634 C   0  0  0  0  0  0  0  0  0  0  0  0
    2.7878   -8.3822   16.2137 C   0  0  0  0  0  0  0  0  0  0  0  0
    9.4601   -2.6590   25.6528 C   0  0  0  0  0  0  0  0  0  0  0  0
   10.1182   -1.5672   23.1165 C   0  0  0  0  0  0  0  0  0  0  0  0
    1.0552   -9.6360   17.0650 C   0  0  0  0  0  0  0  0  0  0  0  0
    3.6519   -9.1783   16.9039 C   0  0  0  0  0  0  0  0  0  0  0  0
    7.8675   -7.0096   15.9415 C   0  0  0  0  0  0  0  0  0  0  0  0
    5.9733   -9.6553   17.3832 N   0  0  0  0  0  0  0  0  0  0  0  0
   10.2411   -2.9363   23.4301 C   0  0  0  0  0  0  0  0  0  0  0  0
   10.7288   -3.8197   19.9525 C   0  0  0  0  0  0  0  0  0  0  0  0
   10.1189   -5.0054   19.6987 C   0  0  0  0  0  0  0  0  0  0  0  0
  1  3  4  0
  1  7  4  0
  2 21  4  0
  2 27  4  0
  3  9  4  0
  3 10  4  0
  4  8  4  0
  4 18  4  0
  4 25  1  0
  5  9  4  0
  5 12  4  0
  6 13  1  0
  6 27  1  0
  7 28  4  0
  8 11  4  0
  9 29  4  0
 10 12  4  0
 11 24  1  0
 11 26  4  0
 12 25  1  0
 13 28  1  0
 14 20  4  0
 14 23  4  0
 15 17  4  0
 15 21  4  0
 16 19  4  0
 16 23  4  0
 17 22  4  0
 18 26  4  0
 19 24  4  0
 20 24  4  0
 22 27  4  0
 28 29  4  0
M  END
$$$$

 Created by Python create_sdf_string function

 29 33  0  0  0  0  0  0  0  0999 V2000
   10.7215   -3.3326   17.6437 C   0  0  0  0  0  0  0  0  0  0  0  0
    9.9489   -3.4675   24.6487 N   0  0  0  0  0  0  0  0  0  0  0  0
   10.0172   -4.4740   17.4101 C   0  0  0  0  0  0  0  0  0  0  0  0
    6.9051   -7.9575   16.4222 C   0  0  0  0  0  0  0  0  0  0  0  0
    8.9969   -6.3552   17.9668 N   0  0  0  0  0  0  0  0  0  0  0  0
   10.6702   -3.9051   22.4070 C   0  0  0  0  0  0  0  0  0  0  0  0
   11.0625   -3.0028   18.8894 C   0  0  0  0  0  0  0  0  0  0  0  0
    5.6180   -7.9194   16.1754 O   0  0  0  0  0  0  0  0  0  0  0  0
    9.7259   -5.3080   18.4485 C   0  0  0  0  0  0  0  0  0  0  0  0
    9.4578   -5.0200   16.3036 N   0  0  0  0  0  0  0  0  0  0  0  0
    5.0287   -8.9365   16.8223 C   0  0  0  0  0  0  0  0  0  0  0  0
    8.7742   -6.1498   16.6764 C   0  0  0  0  0  0  0  0  0  0  0  0
   10.9418   -3.4032   21.2053 O   0  0  0  0  0  0  0  0  0  0  0  0
    1.4797   -8.6258   16.2950 C   0  0  0  0  0  0  0  0  0  0  0  0
    9.2861   -1.2743   25.3585 C   0  0  0  0  0  0  0  0  0  0  0  0
    1.8892  -10.3985   17.7511 N   0  0  0  0  0  0  0  0  0  0  0  0
    9.6210   -0.6952   24.0976 C   0  0  0  0  0  0  0  0  0  0  0  0
    7.0792   -9.0217   17.1429 C   0  0  0  0  0  0  0  0  0  0  0  0
    3.1713  -10.1816   17.6634 C   0  0  0  0  0  0  0  0  0  0  0  0
    2.7878   -8.3822   16.2137 C   0  0  0  0  0  0  0  0  0  0  0  0
    9.4601   -2.6590   25.6528 C   0  0  0  0  0  0  0  0  0  0  0  0
   10.1182   -1.5672   23.1165 C   0  0  0  0  0  0  0  0  0  0  0  0
    1.0552   -9.6360   17.0650 C   0  0  0  0  0  0  0  0  0  0  0  0
    3.6519   -9.1783   16.9039 C   0  0  0  0  0  0  0  0  0  0  0  0
    7.8675   -7.0096   15.9415 C   0  0  0  0  0  0  0  0  0  0  0  0
    5.9733   -9.6553   17.3832 N   0  0  0  0  0  0  0  0  0  0  0  0
   10.2411   -2.9363   23.4301 C   0  0  0  0  0  0  0  0  0  0  0  0
   10.7288   -3.8197   19.9525 C   0  0  0  0  0  0  0  0  0  0  0  0
   10.1189   -5.0054   19.6987 C   0  0  0  0  0  0  0  0  0  0  0  0
  1  3  4  0
  1  7  4  0
  2 21  4  0
  2 27  4  0
  3  9  4  0
  3 10  4  0
  4  8  4  0
  4 18  4  0
  4 25  1  0
  5  9  4  0
  5 12  4  0
  6 13  1  0
  6 27  1  0
  7 28  4  0
  8 11  4  0
  9 29  4  0
 10 12  4  0
 11 24  1  0
 11 26  4  0
 12 25  1  0
 13 28  1  0
 14 20  4  0
 14 23  4  0
 15 17  4  0
 15 21  4  0
 16 19  4  0
 16 23  4  0
 17 22  4  0
 18 26  4  0
 19 24  4  0
 20 24  4  0
 22 27  4  0
 28 29  4  0
M  END
$$$$

 Created by Python create_sdf_string function

 29 33  0  0  0  0  0  0  0  0999 V2000
   10.7215   -3.3326   17.6437 C   0  0  0  0  0  0  0  0  0  0  0  0
    9.9489   -3.4675   24.6487 N   0  0  0  0  0  0  0  0  0  0  0  0
   10.0172   -4.4740   17.4101 C   0  0  0  0  0  0  0  0  0  0  0  0
    6.9051   -7.9575   16.4222 C   0  0  0  0  0  0  0  0  0  0  0  0
    8.9969   -6.3552   17.9668 N   0  0  0  0  0  0  0  0  0  0  0  0
   10.6702   -3.9051   22.4070 C   0  0  0  0  0  0  0  0  0  0  0  0
   11.0625   -3.0028   18.8894 C   0  0  0  0  0  0  0  0  0  0  0  0
    5.6180   -7.9194   16.1754 O   0  0  0  0  0  0  0  0  0  0  0  0
    9.7259   -5.3080   18.4485 C   0  0  0  0  0  0  0  0  0  0  0  0
    9.4578   -5.0200   16.3036 N   0  0  0  0  0  0  0  0  0  0  0  0
    5.0287   -8.9365   16.8223 C   0  0  0  0  0  0  0  0  0  0  0  0
    8.7742   -6.1498   16.6764 C   0  0  0  0  0  0  0  0  0  0  0  0
   10.9418   -3.4032   21.2053 O   0  0  0  0  0  0  0  0  0  0  0  0
    1.4797   -8.6258   16.2950 C   0  0  0  0  0  0  0  0  0  0  0  0
    9.2861   -1.2743   25.3585 C   0  0  0  0  0  0  0  0  0  0  0  0
    1.8892  -10.3985   17.7511 N   0  0  0  0  0  0  0  0  0  0  0  0
    9.6210   -0.6952   24.0976 C   0  0  0  0  0  0  0  0  0  0  0  0
    7.0792   -9.0217   17.1429 C   0  0  0  0  0  0  0  0  0  0  0  0
    3.1713  -10.1816   17.6634 C   0  0  0  0  0  0  0  0  0  0  0  0
    2.7878   -8.3822   16.2137 C   0  0  0  0  0  0  0  0  0  0  0  0
    9.4601   -2.6590   25.6528 C   0  0  0  0  0  0  0  0  0  0  0  0
   10.1182   -1.5672   23.1165 C   0  0  0  0  0  0  0  0  0  0  0  0
    1.0552   -9.6360   17.0650 C   0  0  0  0  0  0  0  0  0  0  0  0
    3.6519   -9.1783   16.9039 C   0  0  0  0  0  0  0  0  0  0  0  0
    7.8675   -7.0096   15.9415 C   0  0  0  0  0  0  0  0  0  0  0  0
    5.9733   -9.6553   17.3832 N   0  0  0  0  0  0  0  0  0  0  0  0
   10.2411   -2.9363   23.4301 C   0  0  0  0  0  0  0  0  0  0  0  0
   10.7288   -3.8197   19.9525 C   0  0  0  0  0  0  0  0  0  0  0  0
   10.1189   -5.0054   19.6987 C   0  0  0  0  0  0  0  0  0  0  0  0
  1  3  4  0
  1  7  4  0
  2 21  4  0
  2 27  4  0
  3  9  4  0
  3 10  4  0
  4  8  4  0
  4 18  4  0
  4 25  1  0
  5  9  4  0
  5 12  4  0
  6 13  1  0
  6 27  1  0
  7 28  4  0
  8 11  4  0
  9 29  4  0
 10 12  4  0
 11 24  1  0
 11 26  4  0
 12 25  1  0
 13 28  1  0
 14 20  4  0
 14 23  4  0
 15 17  4  0
 15 21  4  0
 16 19  4  0
 16 23  4  0
 17 22  4  0
 18 26  4  0
 19 24  4  0
 20 24  4  0
 22 27  4  0
 28 29  4  0
M  END
$$$$

 Created by Python create_sdf_string function

 29 33  0  0  0  0  0  0  0  0999 V2000
   10.7215   -3.3326   17.6437 C   0  0  0  0  0  0  0  0  0  0  0  0
    9.9489   -3.4675   24.6487 N   0  0  0  0  0  0  0  0  0  0  0  0
   10.0172   -4.4740   17.4101 C   0  0  0  0  0  0  0  0  0  0  0  0
    6.9051   -7.9575   16.4222 C   0  0  0  0  0  0  0  0  0  0  0  0
    8.9969   -6.3552   17.9668 N   0  0  0  0  0  0  0  0  0  0  0  0
   10.6702   -3.9051   22.4070 C   0  0  0  0  0  0  0  0  0  0  0  0
   11.0625   -3.0028   18.8894 C   0  0  0  0  0  0  0  0  0  0  0  0
    5.6180   -7.9194   16.1754 O   0  0  0  0  0  0  0  0  0  0  0  0
    9.7259   -5.3080   18.4485 C   0  0  0  0  0  0  0  0  0  0  0  0
    9.4578   -5.0200   16.3036 N   0  0  0  0  0  0  0  0  0  0  0  0
    5.0287   -8.9365   16.8223 C   0  0  0  0  0  0  0  0  0  0  0  0
    8.7742   -6.1498   16.6764 C   0  0  0  0  0  0  0  0  0  0  0  0
   10.9418   -3.4032   21.2053 O   0  0  0  0  0  0  0  0  0  0  0  0
    1.4797   -8.6258   16.2950 C   0  0  0  0  0  0  0  0  0  0  0  0
    9.2861   -1.2743   25.3585 C   0  0  0  0  0  0  0  0  0  0  0  0
    1.8892  -10.3985   17.7511 N   0  0  0  0  0  0  0  0  0  0  0  0
    9.6210   -0.6952   24.0976 C   0  0  0  0  0  0  0  0  0  0  0  0
    7.0792   -9.0217   17.1429 C   0  0  0  0  0  0  0  0  0  0  0  0
    3.1713  -10.1816   17.6634 C   0  0  0  0  0  0  0  0  0  0  0  0
    2.7878   -8.3822   16.2137 C   0  0  0  0  0  0  0  0  0  0  0  0
    9.4601   -2.6590   25.6528 C   0  0  0  0  0  0  0  0  0  0  0  0
   10.1182   -1.5672   23.1165 C   0  0  0  0  0  0  0  0  0  0  0  0
    1.0552   -9.6360   17.0650 C   0  0  0  0  0  0  0  0  0  0  0  0
    3.6519   -9.1783   16.9039 C   0  0  0  0  0  0  0  0  0  0  0  0
    7.8675   -7.0096   15.9415 C   0  0  0  0  0  0  0  0  0  0  0  0
    5.9733   -9.6553   17.3832 N   0  0  0  0  0  0  0  0  0  0  0  0
   10.2411   -2.9363   23.4301 C   0  0  0  0  0  0  0  0  0  0  0  0
   10.7288   -3.8197   19.9525 C   0  0  0  0  0  0  0  0  0  0  0  0
   10.1189   -5.0054   19.6987 C   0  0  0  0  0  0  0  0  0  0  0  0
  1  3  4  0
  1  7  4  0
  2 21  4  0
  2 27  4  0
  3  9  4  0
  3 10  4  0
  4  8  4  0
  4 18  4  0
  4 25  1  0
  5  9  4  0
  5 12  4  0
  6 13  1  0
  6 27  1  0
  7 28  4  0
  8 11  4  0
  9 29  4  0
 10 12  4  0
 11 24  1  0
 11 26  4  0
 12 25  1  0
 13 28  1  0
 14 20  4  0
 14 23  4  0
 15 17  4  0
 15 21  4  0
 16 19  4  0
 16 23  4  0
 17 22  4  0
 18 26  4  0
 19 24  4  0
 20 24  4  0
 22 27  4  0
 28 29  4  0
M  END
$$$$

 Created by Python create_sdf_string function

 29 33  0  0  0  0  0  0  0  0999 V2000
   10.7215   -3.3326   17.6437 C   0  0  0  0  0  0  0  0  0  0  0  0
    9.9489   -3.4675   24.6487 N   0  0  0  0  0  0  0  0  0  0  0  0
   10.0172   -4.4740   17.4101 C   0  0  0  0  0  0  0  0  0  0  0  0
    6.9051   -7.9575   16.4222 C   0  0  0  0  0  0  0  0  0  0  0  0
    8.9969   -6.3552   17.9668 N   0  0  0  0  0  0  0  0  0  0  0  0
   10.6702   -3.9051   22.4070 C   0  0  0  0  0  0  0  0  0  0  0  0
   11.0625   -3.0028   18.8894 C   0  0  0  0  0  0  0  0  0  0  0  0
    5.6180   -7.9194   16.1754 O   0  0  0  0  0  0  0  0  0  0  0  0
    9.7259   -5.3080   18.4485 C   0  0  0  0  0  0  0  0  0  0  0  0
    9.4578   -5.0200   16.3036 N   0  0  0  0  0  0  0  0  0  0  0  0
    5.0287   -8.9365   16.8223 C   0  0  0  0  0  0  0  0  0  0  0  0
    8.7742   -6.1498   16.6764 C   0  0  0  0  0  0  0  0  0  0  0  0
   10.9418   -3.4032   21.2053 O   0  0  0  0  0  0  0  0  0  0  0  0
    1.4797   -8.6258   16.2950 C   0  0  0  0  0  0  0  0  0  0  0  0
    9.2861   -1.2743   25.3585 C   0  0  0  0  0  0  0  0  0  0  0  0
    1.8892  -10.3985   17.7511 N   0  0  0  0  0  0  0  0  0  0  0  0
    9.6210   -0.6952   24.0976 C   0  0  0  0  0  0  0  0  0  0  0  0
    7.0792   -9.0217   17.1429 C   0  0  0  0  0  0  0  0  0  0  0  0
    3.1713  -10.1816   17.6634 C   0  0  0  0  0  0  0  0  0  0  0  0
    2.7878   -8.3822   16.2137 C   0  0  0  0  0  0  0  0  0  0  0  0
    9.4601   -2.6590   25.6528 C   0  0  0  0  0  0  0  0  0  0  0  0
   10.1182   -1.5672   23.1165 C   0  0  0  0  0  0  0  0  0  0  0  0
    1.0552   -9.6360   17.0650 C   0  0  0  0  0  0  0  0  0  0  0  0
    3.6519   -9.1783   16.9039 C   0  0  0  0  0  0  0  0  0  0  0  0
    7.8675   -7.0096   15.9415 C   0  0  0  0  0  0  0  0  0  0  0  0
    5.9733   -9.6553   17.3832 N   0  0  0  0  0  0  0  0  0  0  0  0
   10.2411   -2.9363   23.4301 C   0  0  0  0  0  0  0  0  0  0  0  0
   10.7288   -3.8197   19.9525 C   0  0  0  0  0  0  0  0  0  0  0  0
   10.1189   -5.0054   19.6987 C   0  0  0  0  0  0  0  0  0  0  0  0
  1  3  4  0
  1  7  4  0
  2 21  4  0
  2 27  4  0
  3  9  4  0
  3 10  4  0
  4  8  4  0
  4 18  4  0
  4 25  1  0
  5  9  4  0
  5 12  4  0
  6 13  1  0
  6 27  1  0
  7 28  4  0
  8 11  4  0
  9 29  4  0
 10 12  4  0
 11 24  1  0
 11 26  4  0
 12 25  1  0
 13 28  1  0
 14 20  4  0
 14 23  4  0
 15 17  4  0
 15 21  4  0
 16 19  4  0
 16 23  4  0
 17 22  4  0
 18 26  4  0
 19 24  4  0
 20 24  4  0
 22 27  4  0
 28 29  4  0
M  END
$$$$

 Created by Python create_sdf_string function

 29 33  0  0  0  0  0  0  0  0999 V2000
   10.7215   -3.3326   17.6437 C   0  0  0  0  0  0  0  0  0  0  0  0
    9.9489   -3.4675   24.6487 N   0  0  0  0  0  0  0  0  0  0  0  0
   10.0172   -4.4740   17.4101 C   0  0  0  0  0  0  0  0  0  0  0  0
    6.9051   -7.9575   16.4222 C   0  0  0  0  0  0  0  0  0  0  0  0
    8.9969   -6.3552   17.9668 N   0  0  0  0  0  0  0  0  0  0  0  0
   10.6702   -3.9051   22.4070 C   0  0  0  0  0  0  0  0  0  0  0  0
   11.0625   -3.0028   18.8894 C   0  0  0  0  0  0  0  0  0  0  0  0
    5.6180   -7.9194   16.1754 O   0  0  0  0  0  0  0  0  0  0  0  0
    9.7259   -5.3080   18.4485 C   0  0  0  0  0  0  0  0  0  0  0  0
    9.4578   -5.0200   16.3036 N   0  0  0  0  0  0  0  0  0  0  0  0
    5.0287   -8.9365   16.8223 C   0  0  0  0  0  0  0  0  0  0  0  0
    8.7742   -6.1498   16.6764 C   0  0  0  0  0  0  0  0  0  0  0  0
   10.9418   -3.4032   21.2053 O   0  0  0  0  0  0  0  0  0  0  0  0
    1.4797   -8.6258   16.2950 C   0  0  0  0  0  0  0  0  0  0  0  0
    9.2861   -1.2743   25.3585 C   0  0  0  0  0  0  0  0  0  0  0  0
    1.8892  -10.3985   17.7511 N   0  0  0  0  0  0  0  0  0  0  0  0
    9.6210   -0.6952   24.0976 C   0  0  0  0  0  0  0  0  0  0  0  0
    7.0792   -9.0217   17.1429 C   0  0  0  0  0  0  0  0  0  0  0  0
    3.1713  -10.1816   17.6634 C   0  0  0  0  0  0  0  0  0  0  0  0
    2.7878   -8.3822   16.2137 C   0  0  0  0  0  0  0  0  0  0  0  0
    9.4601   -2.6590   25.6528 C   0  0  0  0  0  0  0  0  0  0  0  0
   10.1182   -1.5672   23.1165 C   0  0  0  0  0  0  0  0  0  0  0  0
    1.0552   -9.6360   17.0650 C   0  0  0  0  0  0  0  0  0  0  0  0
    3.6519   -9.1783   16.9039 C   0  0  0  0  0  0  0  0  0  0  0  0
    7.8675   -7.0096   15.9415 C   0  0  0  0  0  0  0  0  0  0  0  0
    5.9733   -9.6553   17.3832 N   0  0  0  0  0  0  0  0  0  0  0  0
   10.2411   -2.9363   23.4301 C   0  0  0  0  0  0  0  0  0  0  0  0
   10.7288   -3.8197   19.9525 C   0  0  0  0  0  0  0  0  0  0  0  0
   10.1189   -5.0054   19.6987 C   0  0  0  0  0  0  0  0  0  0  0  0
  1  3  4  0
  1  7  4  0
  2 21  4  0
  2 27  4  0
  3  9  4  0
  3 10  4  0
  4  8  4  0
  4 18  4  0
  4 25  1  0
  5  9  4  0
  5 12  4  0
  6 13  1  0
  6 27  1  0
  7 28  4  0
  8 11  4  0
  9 29  4  0
 10 12  4  0
 11 24  1  0
 11 26  4  0
 12 25  1  0
 13 28  1  0
 14 20  4  0
 14 23  4  0
 15 17  4  0
 15 21  4  0
 16 19  4  0
 16 23  4  0
 17 22  4  0
 18 26  4  0
 19 24  4  0
 20 24  4  0
 22 27  4  0
 28 29  4  0
M  END
$$$$

 Created by Python create_sdf_string function

 29 33  0  0  0  0  0  0  0  0999 V2000
   10.7215   -3.3326   17.6437 C   0  0  0  0  0  0  0  0  0  0  0  0
    9.9489   -3.4675   24.6487 N   0  0  0  0  0  0  0  0  0  0  0  0
   10.0172   -4.4740   17.4101 C   0  0  0  0  0  0  0  0  0  0  0  0
    6.9051   -7.9575   16.4222 C   0  0  0  0  0  0  0  0  0  0  0  0
    8.9969   -6.3552   17.9668 N   0  0  0  0  0  0  0  0  0  0  0  0
   10.6702   -3.9051   22.4070 C   0  0  0  0  0  0  0  0  0  0  0  0
   11.0625   -3.0028   18.8894 C   0  0  0  0  0  0  0  0  0  0  0  0
    5.6180   -7.9194   16.1754 O   0  0  0  0  0  0  0  0  0  0  0  0
    9.7259   -5.3080   18.4485 C   0  0  0  0  0  0  0  0  0  0  0  0
    9.4578   -5.0200   16.3036 N   0  0  0  0  0  0  0  0  0  0  0  0
    5.0287   -8.9365   16.8223 C   0  0  0  0  0  0  0  0  0  0  0  0
    8.7742   -6.1498   16.6764 C   0  0  0  0  0  0  0  0  0  0  0  0
   10.9418   -3.4032   21.2053 O   0  0  0  0  0  0  0  0  0  0  0  0
    1.4797   -8.6258   16.2950 C   0  0  0  0  0  0  0  0  0  0  0  0
    9.2861   -1.2743   25.3585 C   0  0  0  0  0  0  0  0  0  0  0  0
    1.8892  -10.3985   17.7511 N   0  0  0  0  0  0  0  0  0  0  0  0
    9.6210   -0.6952   24.0976 C   0  0  0  0  0  0  0  0  0  0  0  0
    7.0792   -9.0217   17.1429 C   0  0  0  0  0  0  0  0  0  0  0  0
    3.1713  -10.1816   17.6634 C   0  0  0  0  0  0  0  0  0  0  0  0
    2.7878   -8.3822   16.2137 C   0  0  0  0  0  0  0  0  0  0  0  0
    9.4601   -2.6590   25.6528 C   0  0  0  0  0  0  0  0  0  0  0  0
   10.1182   -1.5672   23.1165 C   0  0  0  0  0  0  0  0  0  0  0  0
    1.0552   -9.6360   17.0650 C   0  0  0  0  0  0  0  0  0  0  0  0
    3.6519   -9.1783   16.9039 C   0  0  0  0  0  0  0  0  0  0  0  0
    7.8675   -7.0096   15.9415 C   0  0  0  0  0  0  0  0  0  0  0  0
    5.9733   -9.6553   17.3832 N   0  0  0  0  0  0  0  0  0  0  0  0
   10.2411   -2.9363   23.4301 C   0  0  0  0  0  0  0  0  0  0  0  0
   10.7288   -3.8197   19.9525 C   0  0  0  0  0  0  0  0  0  0  0  0
   10.1189   -5.0054   19.6987 C   0  0  0  0  0  0  0  0  0  0  0  0
  1  3  4  0
  1  7  4  0
  2 21  4  0
  2 27  4  0
  3  9  4  0
  3 10  4  0
  4  8  4  0
  4 18  4  0
  4 25  1  0
  5  9  4  0
  5 12  4  0
  6 13  1  0
  6 27  1  0
  7 28  4  0
  8 11  4  0
  9 29  4  0
 10 12  4  0
 11 24  1  0
 11 26  4  0
 12 25  1  0
 13 28  1  0
 14 20  4  0
 14 23  4  0
 15 17  4  0
 15 21  4  0
 16 19  4  0
 16 23  4  0
 17 22  4  0
 18 26  4  0
 19 24  4  0
 20 24  4  0
 22 27  4  0
 28 29  4  0
M  END
$$$$

 Created by Python create_sdf_string function

 29 33  0  0  0  0  0  0  0  0999 V2000
   10.7215   -3.3326   17.6437 C   0  0  0  0  0  0  0  0  0  0  0  0
    9.9489   -3.4675   24.6487 N   0  0  0  0  0  0  0  0  0  0  0  0
   10.0172   -4.4740   17.4101 C   0  0  0  0  0  0  0  0  0  0  0  0
    6.9051   -7.9575   16.4222 C   0  0  0  0  0  0  0  0  0  0  0  0
    8.9969   -6.3552   17.9668 N   0  0  0  0  0  0  0  0  0  0  0  0
   10.6702   -3.9051   22.4070 C   0  0  0  0  0  0  0  0  0  0  0  0
   11.0625   -3.0028   18.8894 C   0  0  0  0  0  0  0  0  0  0  0  0
    5.6180   -7.9194   16.1754 O   0  0  0  0  0  0  0  0  0  0  0  0
    9.7259   -5.3080   18.4485 C   0  0  0  0  0  0  0  0  0  0  0  0
    9.4578   -5.0200   16.3036 N   0  0  0  0  0  0  0  0  0  0  0  0
    5.0287   -8.9365   16.8223 C   0  0  0  0  0  0  0  0  0  0  0  0
    8.7742   -6.1498   16.6764 C   0  0  0  0  0  0  0  0  0  0  0  0
   10.9418   -3.4032   21.2053 O   0  0  0  0  0  0  0  0  0  0  0  0
    1.4797   -8.6258   16.2950 C   0  0  0  0  0  0  0  0  0  0  0  0
    9.2861   -1.2743   25.3585 C   0  0  0  0  0  0  0  0  0  0  0  0
    1.8892  -10.3985   17.7511 N   0  0  0  0  0  0  0  0  0  0  0  0
    9.6210   -0.6952   24.0976 C   0  0  0  0  0  0  0  0  0  0  0  0
    7.0792   -9.0217   17.1429 C   0  0  0  0  0  0  0  0  0  0  0  0
    3.1713  -10.1816   17.6634 C   0  0  0  0  0  0  0  0  0  0  0  0
    2.7878   -8.3822   16.2137 C   0  0  0  0  0  0  0  0  0  0  0  0
    9.4601   -2.6590   25.6528 C   0  0  0  0  0  0  0  0  0  0  0  0
   10.1182   -1.5672   23.1165 C   0  0  0  0  0  0  0  0  0  0  0  0
    1.0552   -9.6360   17.0650 C   0  0  0  0  0  0  0  0  0  0  0  0
    3.6519   -9.1783   16.9039 C   0  0  0  0  0  0  0  0  0  0  0  0
    7.8675   -7.0096   15.9415 C   0  0  0  0  0  0  0  0  0  0  0  0
    5.9733   -9.6553   17.3832 N   0  0  0  0  0  0  0  0  0  0  0  0
   10.2411   -2.9363   23.4301 C   0  0  0  0  0  0  0  0  0  0  0  0
   10.7288   -3.8197   19.9525 C   0  0  0  0  0  0  0  0  0  0  0  0
   10.1189   -5.0054   19.6987 C   0  0  0  0  0  0  0  0  0  0  0  0
  1  3  4  0
  1  7  4  0
  2 21  4  0
  2 27  4  0
  3  9  4  0
  3 10  4  0
  4  8  4  0
  4 18  4  0
  4 25  1  0
  5  9  4  0
  5 12  4  0
  6 13  1  0
  6 27  1  0
  7 28  4  0
  8 11  4  0
  9 29  4  0
 10 12  4  0
 11 24  1  0
 11 26  4  0
 12 25  1  0
 13 28  1  0
 14 20  4  0
 14 23  4  0
 15 17  4  0
 15 21  4  0
 16 19  4  0
 16 23  4  0
 17 22  4  0
 18 26  4  0
 19 24  4  0
 20 24  4  0
 22 27  4  0
 28 29  4  0
M  END
$$$$

 Created by Python create_sdf_string function

 29 33  0  0  0  0  0  0  0  0999 V2000
   10.7215   -3.3326   17.6437 C   0  0  0  0  0  0  0  0  0  0  0  0
    9.9489   -3.4675   24.6487 N   0  0  0  0  0  0  0  0  0  0  0  0
   10.0172   -4.4740   17.4101 C   0  0  0  0  0  0  0  0  0  0  0  0
    6.9051   -7.9575   16.4222 C   0  0  0  0  0  0  0  0  0  0  0  0
    8.9969   -6.3552   17.9668 N   0  0  0  0  0  0  0  0  0  0  0  0
   10.6702   -3.9051   22.4070 C   0  0  0  0  0  0  0  0  0  0  0  0
   11.0625   -3.0028   18.8894 C   0  0  0  0  0  0  0  0  0  0  0  0
    5.6180   -7.9194   16.1754 O   0  0  0  0  0  0  0  0  0  0  0  0
    9.7259   -5.3080   18.4485 C   0  0  0  0  0  0  0  0  0  0  0  0
    9.4578   -5.0200   16.3036 N   0  0  0  0  0  0  0  0  0  0  0  0
    5.0287   -8.9365   16.8223 C   0  0  0  0  0  0  0  0  0  0  0  0
    8.7742   -6.1498   16.6764 C   0  0  0  0  0  0  0  0  0  0  0  0
   10.9418   -3.4032   21.2053 O   0  0  0  0  0  0  0  0  0  0  0  0
    1.4797   -8.6258   16.2950 C   0  0  0  0  0  0  0  0  0  0  0  0
    9.2861   -1.2743   25.3585 C   0  0  0  0  0  0  0  0  0  0  0  0
    1.8892  -10.3985   17.7511 N   0  0  0  0  0  0  0  0  0  0  0  0
    9.6210   -0.6952   24.0976 C   0  0  0  0  0  0  0  0  0  0  0  0
    7.0792   -9.0217   17.1429 C   0  0  0  0  0  0  0  0  0  0  0  0
    3.1713  -10.1816   17.6634 C   0  0  0  0  0  0  0  0  0  0  0  0
    2.7878   -8.3822   16.2137 C   0  0  0  0  0  0  0  0  0  0  0  0
    9.4601   -2.6590   25.6528 C   0  0  0  0  0  0  0  0  0  0  0  0
   10.1182   -1.5672   23.1165 C   0  0  0  0  0  0  0  0  0  0  0  0
    1.0552   -9.6360   17.0650 C   0  0  0  0  0  0  0  0  0  0  0  0
    3.6519   -9.1783   16.9039 C   0  0  0  0  0  0  0  0  0  0  0  0
    7.8675   -7.0096   15.9415 C   0  0  0  0  0  0  0  0  0  0  0  0
    5.9733   -9.6553   17.3832 N   0  0  0  0  0  0  0  0  0  0  0  0
   10.2411   -2.9363   23.4301 C   0  0  0  0  0  0  0  0  0  0  0  0
   10.7288   -3.8197   19.9525 C   0  0  0  0  0  0  0  0  0  0  0  0
   10.1189   -5.0054   19.6987 C   0  0  0  0  0  0  0  0  0  0  0  0
  1  3  4  0
  1  7  4  0
  2 21  4  0
  2 27  4  0
  3  9  4  0
  3 10  4  0
  4  8  4  0
  4 18  4  0
  4 25  1  0
  5  9  4  0
  5 12  4  0
  6 13  1  0
  6 27  1  0
  7 28  4  0
  8 11  4  0
  9 29  4  0
 10 12  4  0
 11 24  1  0
 11 26  4  0
 12 25  1  0
 13 28  1  0
 14 20  4  0
 14 23  4  0
 15 17  4  0
 15 21  4  0
 16 19  4  0
 16 23  4  0
 17 22  4  0
 18 26  4  0
 19 24  4  0
 20 24  4  0
 22 27  4  0
 28 29  4  0
M  END
$$$$

 Created by Python create_sdf_string function

 29 33  0  0  0  0  0  0  0  0999 V2000
   10.7215   -3.3326   17.6437 C   0  0  0  0  0  0  0  0  0  0  0  0
    9.9489   -3.4675   24.6487 N   0  0  0  0  0  0  0  0  0  0  0  0
   10.0172   -4.4740   17.4101 C   0  0  0  0  0  0  0  0  0  0  0  0
    6.9051   -7.9575   16.4222 C   0  0  0  0  0  0  0  0  0  0  0  0
    8.9969   -6.3552   17.9668 N   0  0  0  0  0  0  0  0  0  0  0  0
   10.6702   -3.9051   22.4070 C   0  0  0  0  0  0  0  0  0  0  0  0
   11.0625   -3.0028   18.8894 C   0  0  0  0  0  0  0  0  0  0  0  0
    5.6180   -7.9194   16.1754 O   0  0  0  0  0  0  0  0  0  0  0  0
    9.7259   -5.3080   18.4485 C   0  0  0  0  0  0  0  0  0  0  0  0
    9.4578   -5.0200   16.3036 N   0  0  0  0  0  0  0  0  0  0  0  0
    5.0287   -8.9365   16.8223 C   0  0  0  0  0  0  0  0  0  0  0  0
    8.7742   -6.1498   16.6764 C   0  0  0  0  0  0  0  0  0  0  0  0
   10.9418   -3.4032   21.2053 O   0  0  0  0  0  0  0  0  0  0  0  0
    1.4797   -8.6258   16.2950 C   0  0  0  0  0  0  0  0  0  0  0  0
    9.2861   -1.2743   25.3585 C   0  0  0  0  0  0  0  0  0  0  0  0
    1.8892  -10.3985   17.7511 N   0  0  0  0  0  0  0  0  0  0  0  0
    9.6210   -0.6952   24.0976 C   0  0  0  0  0  0  0  0  0  0  0  0
    7.0792   -9.0217   17.1429 C   0  0  0  0  0  0  0  0  0  0  0  0
    3.1713  -10.1816   17.6634 C   0  0  0  0  0  0  0  0  0  0  0  0
    2.7878   -8.3822   16.2137 C   0  0  0  0  0  0  0  0  0  0  0  0
    9.4601   -2.6590   25.6528 C   0  0  0  0  0  0  0  0  0  0  0  0
   10.1182   -1.5672   23.1165 C   0  0  0  0  0  0  0  0  0  0  0  0
    1.0552   -9.6360   17.0650 C   0  0  0  0  0  0  0  0  0  0  0  0
    3.6519   -9.1783   16.9039 C   0  0  0  0  0  0  0  0  0  0  0  0
    7.8675   -7.0096   15.9415 C   0  0  0  0  0  0  0  0  0  0  0  0
    5.9733   -9.6553   17.3832 N   0  0  0  0  0  0  0  0  0  0  0  0
   10.2411   -2.9363   23.4301 C   0  0  0  0  0  0  0  0  0  0  0  0
   10.7288   -3.8197   19.9525 C   0  0  0  0  0  0  0  0  0  0  0  0
   10.1189   -5.0054   19.6987 C   0  0  0  0  0  0  0  0  0  0  0  0
  1  3  4  0
  1  7  4  0
  2 21  4  0
  2 27  4  0
  3  9  4  0
  3 10  4  0
  4  8  4  0
  4 18  4  0
  4 25  1  0
  5  9  4  0
  5 12  4  0
  6 13  1  0
  6 27  1  0
  7 28  4  0
  8 11  4  0
  9 29  4  0
 10 12  4  0
 11 24  1  0
 11 26  4  0
 12 25  1  0
 13 28  1  0
 14 20  4  0
 14 23  4  0
 15 17  4  0
 15 21  4  0
 16 19  4  0
 16 23  4  0
 17 22  4  0
 18 26  4  0
 19 24  4  0
 20 24  4  0
 22 27  4  0
 28 29  4  0
M  END
$$$$

 Created by Python create_sdf_string function

 29 33  0  0  0  0  0  0  0  0999 V2000
   10.7215   -3.3326   17.6437 C   0  0  0  0  0  0  0  0  0  0  0  0
    9.9489   -3.4675   24.6487 N   0  0  0  0  0  0  0  0  0  0  0  0
   10.0172   -4.4740   17.4101 C   0  0  0  0  0  0  0  0  0  0  0  0
    6.9051   -7.9575   16.4222 C   0  0  0  0  0  0  0  0  0  0  0  0
    8.9969   -6.3552   17.9668 N   0  0  0  0  0  0  0  0  0  0  0  0
   10.6702   -3.9051   22.4070 C   0  0  0  0  0  0  0  0  0  0  0  0
   11.0625   -3.0028   18.8894 C   0  0  0  0  0  0  0  0  0  0  0  0
    5.6180   -7.9194   16.1754 O   0  0  0  0  0  0  0  0  0  0  0  0
    9.7259   -5.3080   18.4485 C   0  0  0  0  0  0  0  0  0  0  0  0
    9.4578   -5.0200   16.3036 N   0  0  0  0  0  0  0  0  0  0  0  0
    5.0287   -8.9365   16.8223 C   0  0  0  0  0  0  0  0  0  0  0  0
    8.7742   -6.1498   16.6764 C   0  0  0  0  0  0  0  0  0  0  0  0
   10.9418   -3.4032   21.2053 O   0  0  0  0  0  0  0  0  0  0  0  0
    1.4797   -8.6258   16.2950 C   0  0  0  0  0  0  0  0  0  0  0  0
    9.2861   -1.2743   25.3585 C   0  0  0  0  0  0  0  0  0  0  0  0
    1.8892  -10.3985   17.7511 N   0  0  0  0  0  0  0  0  0  0  0  0
    9.6210   -0.6952   24.0976 C   0  0  0  0  0  0  0  0  0  0  0  0
    7.0792   -9.0217   17.1429 C   0  0  0  0  0  0  0  0  0  0  0  0
    3.1713  -10.1816   17.6634 C   0  0  0  0  0  0  0  0  0  0  0  0
    2.7878   -8.3822   16.2137 C   0  0  0  0  0  0  0  0  0  0  0  0
    9.4601   -2.6590   25.6528 C   0  0  0  0  0  0  0  0  0  0  0  0
   10.1182   -1.5672   23.1165 C   0  0  0  0  0  0  0  0  0  0  0  0
    1.0552   -9.6360   17.0650 C   0  0  0  0  0  0  0  0  0  0  0  0
    3.6519   -9.1783   16.9039 C   0  0  0  0  0  0  0  0  0  0  0  0
    7.8675   -7.0096   15.9415 C   0  0  0  0  0  0  0  0  0  0  0  0
    5.9733   -9.6553   17.3832 N   0  0  0  0  0  0  0  0  0  0  0  0
   10.2411   -2.9363   23.4301 C   0  0  0  0  0  0  0  0  0  0  0  0
   10.7288   -3.8197   19.9525 C   0  0  0  0  0  0  0  0  0  0  0  0
   10.1189   -5.0054   19.6987 C   0  0  0  0  0  0  0  0  0  0  0  0
  1  3  4  0
  1  7  4  0
  2 21  4  0
  2 27  4  0
  3  9  4  0
  3 10  4  0
  4  8  4  0
  4 18  4  0
  4 25  1  0
  5  9  4  0
  5 12  4  0
  6 13  1  0
  6 27  1  0
  7 28  4  0
  8 11  4  0
  9 29  4  0
 10 12  4  0
 11 24  1  0
 11 26  4  0
 12 25  1  0
 13 28  1  0
 14 20  4  0
 14 23  4  0
 15 17  4  0
 15 21  4  0
 16 19  4  0
 16 23  4  0
 17 22  4  0
 18 26  4  0
 19 24  4  0
 20 24  4  0
 22 27  4  0
 28 29  4  0
M  END
$$$$

 Created by Python create_sdf_string function

 29 33  0  0  0  0  0  0  0  0999 V2000
   10.7215   -3.3326   17.6437 C   0  0  0  0  0  0  0  0  0  0  0  0
    9.9489   -3.4675   24.6487 N   0  0  0  0  0  0  0  0  0  0  0  0
   10.0172   -4.4740   17.4101 C   0  0  0  0  0  0  0  0  0  0  0  0
    6.9051   -7.9575   16.4222 C   0  0  0  0  0  0  0  0  0  0  0  0
    8.9969   -6.3552   17.9668 N   0  0  0  0  0  0  0  0  0  0  0  0
   10.6702   -3.9051   22.4070 C   0  0  0  0  0  0  0  0  0  0  0  0
   11.0625   -3.0028   18.8894 C   0  0  0  0  0  0  0  0  0  0  0  0
    5.6180   -7.9194   16.1754 O   0  0  0  0  0  0  0  0  0  0  0  0
    9.7259   -5.3080   18.4485 C   0  0  0  0  0  0  0  0  0  0  0  0
    9.4578   -5.0200   16.3036 N   0  0  0  0  0  0  0  0  0  0  0  0
    5.0287   -8.9365   16.8223 C   0  0  0  0  0  0  0  0  0  0  0  0
    8.7742   -6.1498   16.6764 C   0  0  0  0  0  0  0  0  0  0  0  0
   10.9418   -3.4032   21.2053 O   0  0  0  0  0  0  0  0  0  0  0  0
    1.4797   -8.6258   16.2950 C   0  0  0  0  0  0  0  0  0  0  0  0
    9.2861   -1.2743   25.3585 C   0  0  0  0  0  0  0  0  0  0  0  0
    1.8892  -10.3985   17.7511 N   0  0  0  0  0  0  0  0  0  0  0  0
    9.6210   -0.6952   24.0976 C   0  0  0  0  0  0  0  0  0  0  0  0
    7.0792   -9.0217   17.1429 C   0  0  0  0  0  0  0  0  0  0  0  0
    3.1713  -10.1816   17.6634 C   0  0  0  0  0  0  0  0  0  0  0  0
    2.7878   -8.3822   16.2137 C   0  0  0  0  0  0  0  0  0  0  0  0
    9.4601   -2.6590   25.6528 C   0  0  0  0  0  0  0  0  0  0  0  0
   10.1182   -1.5672   23.1165 C   0  0  0  0  0  0  0  0  0  0  0  0
    1.0552   -9.6360   17.0650 C   0  0  0  0  0  0  0  0  0  0  0  0
    3.6519   -9.1783   16.9039 C   0  0  0  0  0  0  0  0  0  0  0  0
    7.8675   -7.0096   15.9415 C   0  0  0  0  0  0  0  0  0  0  0  0
    5.9733   -9.6553   17.3832 N   0  0  0  0  0  0  0  0  0  0  0  0
   10.2411   -2.9363   23.4301 C   0  0  0  0  0  0  0  0  0  0  0  0
   10.7288   -3.8197   19.9525 C   0  0  0  0  0  0  0  0  0  0  0  0
   10.1189   -5.0054   19.6987 C   0  0  0  0  0  0  0  0  0  0  0  0
  1  3  4  0
  1  7  4  0
  2 21  4  0
  2 27  4  0
  3  9  4  0
  3 10  4  0
  4  8  4  0
  4 18  4  0
  4 25  1  0
  5  9  4  0
  5 12  4  0
  6 13  1  0
  6 27  1  0
  7 28  4  0
  8 11  4  0
  9 29  4  0
 10 12  4  0
 11 24  1  0
 11 26  4  0
 12 25  1  0
 13 28  1  0
 14 20  4  0
 14 23  4  0
 15 17  4  0
 15 21  4  0
 16 19  4  0
 16 23  4  0
 17 22  4  0
 18 26  4  0
 19 24  4  0
 20 24  4  0
 22 27  4  0
 28 29  4  0
M  END
$$$$

 Created by Python create_sdf_string function

 29 33  0  0  0  0  0  0  0  0999 V2000
   10.7215   -3.3326   17.6437 C   0  0  0  0  0  0  0  0  0  0  0  0
    9.9489   -3.4675   24.6487 N   0  0  0  0  0  0  0  0  0  0  0  0
   10.0172   -4.4740   17.4101 C   0  0  0  0  0  0  0  0  0  0  0  0
    6.9051   -7.9575   16.4222 C   0  0  0  0  0  0  0  0  0  0  0  0
    8.9969   -6.3552   17.9668 N   0  0  0  0  0  0  0  0  0  0  0  0
   10.6702   -3.9051   22.4070 C   0  0  0  0  0  0  0  0  0  0  0  0
   11.0625   -3.0028   18.8894 C   0  0  0  0  0  0  0  0  0  0  0  0
    5.6180   -7.9194   16.1754 O   0  0  0  0  0  0  0  0  0  0  0  0
    9.7259   -5.3080   18.4485 C   0  0  0  0  0  0  0  0  0  0  0  0
    9.4578   -5.0200   16.3036 N   0  0  0  0  0  0  0  0  0  0  0  0
    5.0287   -8.9365   16.8223 C   0  0  0  0  0  0  0  0  0  0  0  0
    8.7742   -6.1498   16.6764 C   0  0  0  0  0  0  0  0  0  0  0  0
   10.9418   -3.4032   21.2053 O   0  0  0  0  0  0  0  0  0  0  0  0
    1.4797   -8.6258   16.2950 C   0  0  0  0  0  0  0  0  0  0  0  0
    9.2861   -1.2743   25.3585 C   0  0  0  0  0  0  0  0  0  0  0  0
    1.8892  -10.3985   17.7511 N   0  0  0  0  0  0  0  0  0  0  0  0
    9.6210   -0.6952   24.0976 C   0  0  0  0  0  0  0  0  0  0  0  0
    7.0792   -9.0217   17.1429 C   0  0  0  0  0  0  0  0  0  0  0  0
    3.1713  -10.1816   17.6634 C   0  0  0  0  0  0  0  0  0  0  0  0
    2.7878   -8.3822   16.2137 C   0  0  0  0  0  0  0  0  0  0  0  0
    9.4601   -2.6590   25.6528 C   0  0  0  0  0  0  0  0  0  0  0  0
   10.1182   -1.5672   23.1165 C   0  0  0  0  0  0  0  0  0  0  0  0
    1.0552   -9.6360   17.0650 C   0  0  0  0  0  0  0  0  0  0  0  0
    3.6519   -9.1783   16.9039 C   0  0  0  0  0  0  0  0  0  0  0  0
    7.8675   -7.0096   15.9415 C   0  0  0  0  0  0  0  0  0  0  0  0
    5.9733   -9.6553   17.3832 N   0  0  0  0  0  0  0  0  0  0  0  0
   10.2411   -2.9363   23.4301 C   0  0  0  0  0  0  0  0  0  0  0  0
   10.7288   -3.8197   19.9525 C   0  0  0  0  0  0  0  0  0  0  0  0
   10.1189   -5.0054   19.6987 C   0  0  0  0  0  0  0  0  0  0  0  0
  1  3  4  0
  1  7  4  0
  2 21  4  0
  2 27  4  0
  3  9  4  0
  3 10  4  0
  4  8  4  0
  4 18  4  0
  4 25  1  0
  5  9  4  0
  5 12  4  0
  6 13  1  0
  6 27  1  0
  7 28  4  0
  8 11  4  0
  9 29  4  0
 10 12  4  0
 11 24  1  0
 11 26  4  0
 12 25  1  0
 13 28  1  0
 14 20  4  0
 14 23  4  0
 15 17  4  0
 15 21  4  0
 16 19  4  0
 16 23  4  0
 17 22  4  0
 18 26  4  0
 19 24  4  0
 20 24  4  0
 22 27  4  0
 28 29  4  0
M  END
$$$$

 Created by Python create_sdf_string function

 29 33  0  0  0  0  0  0  0  0999 V2000
   10.7215   -3.3326   17.6437 C   0  0  0  0  0  0  0  0  0  0  0  0
    9.9489   -3.4675   24.6487 N   0  0  0  0  0  0  0  0  0  0  0  0
   10.0172   -4.4740   17.4101 C   0  0  0  0  0  0  0  0  0  0  0  0
    6.9051   -7.9575   16.4222 C   0  0  0  0  0  0  0  0  0  0  0  0
    8.9969   -6.3552   17.9668 N   0  0  0  0  0  0  0  0  0  0  0  0
   10.6702   -3.9051   22.4070 C   0  0  0  0  0  0  0  0  0  0  0  0
   11.0625   -3.0028   18.8894 C   0  0  0  0  0  0  0  0  0  0  0  0
    5.6180   -7.9194   16.1754 O   0  0  0  0  0  0  0  0  0  0  0  0
    9.7259   -5.3080   18.4485 C   0  0  0  0  0  0  0  0  0  0  0  0
    9.4578   -5.0200   16.3036 N   0  0  0  0  0  0  0  0  0  0  0  0
    5.0287   -8.9365   16.8223 C   0  0  0  0  0  0  0  0  0  0  0  0
    8.7742   -6.1498   16.6764 C   0  0  0  0  0  0  0  0  0  0  0  0
   10.9418   -3.4032   21.2053 O   0  0  0  0  0  0  0  0  0  0  0  0
    1.4797   -8.6258   16.2950 C   0  0  0  0  0  0  0  0  0  0  0  0
    9.2861   -1.2743   25.3585 C   0  0  0  0  0  0  0  0  0  0  0  0
    1.8892  -10.3985   17.7511 N   0  0  0  0  0  0  0  0  0  0  0  0
    9.6210   -0.6952   24.0976 C   0  0  0  0  0  0  0  0  0  0  0  0
    7.0792   -9.0217   17.1429 C   0  0  0  0  0  0  0  0  0  0  0  0
    3.1713  -10.1816   17.6634 C   0  0  0  0  0  0  0  0  0  0  0  0
    2.7878   -8.3822   16.2137 C   0  0  0  0  0  0  0  0  0  0  0  0
    9.4601   -2.6590   25.6528 C   0  0  0  0  0  0  0  0  0  0  0  0
   10.1182   -1.5672   23.1165 C   0  0  0  0  0  0  0  0  0  0  0  0
    1.0552   -9.6360   17.0650 C   0  0  0  0  0  0  0  0  0  0  0  0
    3.6519   -9.1783   16.9039 C   0  0  0  0  0  0  0  0  0  0  0  0
    7.8675   -7.0096   15.9415 C   0  0  0  0  0  0  0  0  0  0  0  0
    5.9733   -9.6553   17.3832 N   0  0  0  0  0  0  0  0  0  0  0  0
   10.2411   -2.9363   23.4301 C   0  0  0  0  0  0  0  0  0  0  0  0
   10.7288   -3.8197   19.9525 C   0  0  0  0  0  0  0  0  0  0  0  0
   10.1189   -5.0054   19.6987 C   0  0  0  0  0  0  0  0  0  0  0  0
  1  3  4  0
  1  7  4  0
  2 21  4  0
  2 27  4  0
  3  9  4  0
  3 10  4  0
  4  8  4  0
  4 18  4  0
  4 25  1  0
  5  9  4  0
  5 12  4  0
  6 13  1  0
  6 27  1  0
  7 28  4  0
  8 11  4  0
  9 29  4  0
 10 12  4  0
 11 24  1  0
 11 26  4  0
 12 25  1  0
 13 28  1  0
 14 20  4  0
 14 23  4  0
 15 17  4  0
 15 21  4  0
 16 19  4  0
 16 23  4  0
 17 22  4  0
 18 26  4  0
 19 24  4  0
 20 24  4  0
 22 27  4  0
 28 29  4  0
M  END
$$$$

 Created by Python create_sdf_string function

 29 33  0  0  0  0  0  0  0  0999 V2000
   10.7215   -3.3326   17.6437 C   0  0  0  0  0  0  0  0  0  0  0  0
    9.9489   -3.4675   24.6487 N   0  0  0  0  0  0  0  0  0  0  0  0
   10.0172   -4.4740   17.4101 C   0  0  0  0  0  0  0  0  0  0  0  0
    6.9051   -7.9575   16.4222 C   0  0  0  0  0  0  0  0  0  0  0  0
    8.9969   -6.3552   17.9668 N   0  0  0  0  0  0  0  0  0  0  0  0
   10.6702   -3.9051   22.4070 C   0  0  0  0  0  0  0  0  0  0  0  0
   11.0625   -3.0028   18.8894 C   0  0  0  0  0  0  0  0  0  0  0  0
    5.6180   -7.9194   16.1754 O   0  0  0  0  0  0  0  0  0  0  0  0
    9.7259   -5.3080   18.4485 C   0  0  0  0  0  0  0  0  0  0  0  0
    9.4578   -5.0200   16.3036 N   0  0  0  0  0  0  0  0  0  0  0  0
    5.0287   -8.9365   16.8223 C   0  0  0  0  0  0  0  0  0  0  0  0
    8.7742   -6.1498   16.6764 C   0  0  0  0  0  0  0  0  0  0  0  0
   10.9418   -3.4032   21.2053 O   0  0  0  0  0  0  0  0  0  0  0  0
    1.4797   -8.6258   16.2950 C   0  0  0  0  0  0  0  0  0  0  0  0
    9.2861   -1.2743   25.3585 C   0  0  0  0  0  0  0  0  0  0  0  0
    1.8892  -10.3985   17.7511 N   0  0  0  0  0  0  0  0  0  0  0  0
    9.6210   -0.6952   24.0976 C   0  0  0  0  0  0  0  0  0  0  0  0
    7.0792   -9.0217   17.1429 C   0  0  0  0  0  0  0  0  0  0  0  0
    3.1713  -10.1816   17.6634 C   0  0  0  0  0  0  0  0  0  0  0  0
    2.7878   -8.3822   16.2137 C   0  0  0  0  0  0  0  0  0  0  0  0
    9.4601   -2.6590   25.6528 C   0  0  0  0  0  0  0  0  0  0  0  0
   10.1182   -1.5672   23.1165 C   0  0  0  0  0  0  0  0  0  0  0  0
    1.0552   -9.6360   17.0650 C   0  0  0  0  0  0  0  0  0  0  0  0
    3.6519   -9.1783   16.9039 C   0  0  0  0  0  0  0  0  0  0  0  0
    7.8675   -7.0096   15.9415 C   0  0  0  0  0  0  0  0  0  0  0  0
    5.9733   -9.6553   17.3832 N   0  0  0  0  0  0  0  0  0  0  0  0
   10.2411   -2.9363   23.4301 C   0  0  0  0  0  0  0  0  0  0  0  0
   10.7288   -3.8197   19.9525 C   0  0  0  0  0  0  0  0  0  0  0  0
   10.1189   -5.0054   19.6987 C   0  0  0  0  0  0  0  0  0  0  0  0
  1  3  4  0
  1  7  4  0
  2 21  4  0
  2 27  4  0
  3  9  4  0
  3 10  4  0
  4  8  4  0
  4 18  4  0
  4 25  1  0
  5  9  4  0
  5 12  4  0
  6 13  1  0
  6 27  1  0
  7 28  4  0
  8 11  4  0
  9 29  4  0
 10 12  4  0
 11 24  1  0
 11 26  4  0
 12 25  1  0
 13 28  1  0
 14 20  4  0
 14 23  4  0
 15 17  4  0
 15 21  4  0
 16 19  4  0
 16 23  4  0
 17 22  4  0
 18 26  4  0
 19 24  4  0
 20 24  4  0
 22 27  4  0
 28 29  4  0
M  END
$$$$

 Created by Python create_sdf_string function

 29 33  0  0  0  0  0  0  0  0999 V2000
   10.7215   -3.3326   17.6437 C   0  0  0  0  0  0  0  0  0  0  0  0
    9.9489   -3.4675   24.6487 N   0  0  0  0  0  0  0  0  0  0  0  0
   10.0172   -4.4740   17.4101 C   0  0  0  0  0  0  0  0  0  0  0  0
    6.9051   -7.9575   16.4222 C   0  0  0  0  0  0  0  0  0  0  0  0
    8.9969   -6.3552   17.9668 N   0  0  0  0  0  0  0  0  0  0  0  0
   10.6702   -3.9051   22.4070 C   0  0  0  0  0  0  0  0  0  0  0  0
   11.0625   -3.0028   18.8894 C   0  0  0  0  0  0  0  0  0  0  0  0
    5.6180   -7.9194   16.1754 O   0  0  0  0  0  0  0  0  0  0  0  0
    9.7259   -5.3080   18.4485 C   0  0  0  0  0  0  0  0  0  0  0  0
    9.4578   -5.0200   16.3036 N   0  0  0  0  0  0  0  0  0  0  0  0
    5.0287   -8.9365   16.8223 C   0  0  0  0  0  0  0  0  0  0  0  0
    8.7742   -6.1498   16.6764 C   0  0  0  0  0  0  0  0  0  0  0  0
   10.9418   -3.4032   21.2053 O   0  0  0  0  0  0  0  0  0  0  0  0
    1.4797   -8.6258   16.2950 C   0  0  0  0  0  0  0  0  0  0  0  0
    9.2861   -1.2743   25.3585 C   0  0  0  0  0  0  0  0  0  0  0  0
    1.8892  -10.3985   17.7511 N   0  0  0  0  0  0  0  0  0  0  0  0
    9.6210   -0.6952   24.0976 C   0  0  0  0  0  0  0  0  0  0  0  0
    7.0792   -9.0217   17.1429 C   0  0  0  0  0  0  0  0  0  0  0  0
    3.1713  -10.1816   17.6634 C   0  0  0  0  0  0  0  0  0  0  0  0
    2.7878   -8.3822   16.2137 C   0  0  0  0  0  0  0  0  0  0  0  0
    9.4601   -2.6590   25.6528 C   0  0  0  0  0  0  0  0  0  0  0  0
   10.1182   -1.5672   23.1165 C   0  0  0  0  0  0  0  0  0  0  0  0
    1.0552   -9.6360   17.0650 C   0  0  0  0  0  0  0  0  0  0  0  0
    3.6519   -9.1783   16.9039 C   0  0  0  0  0  0  0  0  0  0  0  0
    7.8675   -7.0096   15.9415 C   0  0  0  0  0  0  0  0  0  0  0  0
    5.9733   -9.6553   17.3832 N   0  0  0  0  0  0  0  0  0  0  0  0
   10.2411   -2.9363   23.4301 C   0  0  0  0  0  0  0  0  0  0  0  0
   10.7288   -3.8197   19.9525 C   0  0  0  0  0  0  0  0  0  0  0  0
   10.1189   -5.0054   19.6987 C   0  0  0  0  0  0  0  0  0  0  0  0
  1  3  4  0
  1  7  4  0
  2 21  4  0
  2 27  4  0
  3  9  4  0
  3 10  4  0
  4  8  4  0
  4 18  4  0
  4 25  1  0
  5  9  4  0
  5 12  4  0
  6 13  1  0
  6 27  1  0
  7 28  4  0
  8 11  4  0
  9 29  4  0
 10 12  4  0
 11 24  1  0
 11 26  4  0
 12 25  1  0
 13 28  1  0
 14 20  4  0
 14 23  4  0
 15 17  4  0
 15 21  4  0
 16 19  4  0
 16 23  4  0
 17 22  4  0
 18 26  4  0
 19 24  4  0
 20 24  4  0
 22 27  4  0
 28 29  4  0
M  END
$$$$

 Created by Python create_sdf_string function

 29 33  0  0  0  0  0  0  0  0999 V2000
   10.7215   -3.3326   17.6437 C   0  0  0  0  0  0  0  0  0  0  0  0
    9.9489   -3.4675   24.6487 N   0  0  0  0  0  0  0  0  0  0  0  0
   10.0172   -4.4740   17.4101 C   0  0  0  0  0  0  0  0  0  0  0  0
    6.9051   -7.9575   16.4222 C   0  0  0  0  0  0  0  0  0  0  0  0
    8.9969   -6.3552   17.9668 N   0  0  0  0  0  0  0  0  0  0  0  0
   10.6702   -3.9051   22.4070 C   0  0  0  0  0  0  0  0  0  0  0  0
   11.0625   -3.0028   18.8894 C   0  0  0  0  0  0  0  0  0  0  0  0
    5.6180   -7.9194   16.1754 O   0  0  0  0  0  0  0  0  0  0  0  0
    9.7259   -5.3080   18.4485 C   0  0  0  0  0  0  0  0  0  0  0  0
    9.4578   -5.0200   16.3036 N   0  0  0  0  0  0  0  0  0  0  0  0
    5.0287   -8.9365   16.8223 C   0  0  0  0  0  0  0  0  0  0  0  0
    8.7742   -6.1498   16.6764 C   0  0  0  0  0  0  0  0  0  0  0  0
   10.9418   -3.4032   21.2053 O   0  0  0  0  0  0  0  0  0  0  0  0
    1.4797   -8.6258   16.2950 C   0  0  0  0  0  0  0  0  0  0  0  0
    9.2861   -1.2743   25.3585 C   0  0  0  0  0  0  0  0  0  0  0  0
    1.8892  -10.3985   17.7511 N   0  0  0  0  0  0  0  0  0  0  0  0
    9.6210   -0.6952   24.0976 C   0  0  0  0  0  0  0  0  0  0  0  0
    7.0792   -9.0217   17.1429 C   0  0  0  0  0  0  0  0  0  0  0  0
    3.1713  -10.1816   17.6634 C   0  0  0  0  0  0  0  0  0  0  0  0
    2.7878   -8.3822   16.2137 C   0  0  0  0  0  0  0  0  0  0  0  0
    9.4601   -2.6590   25.6528 C   0  0  0  0  0  0  0  0  0  0  0  0
   10.1182   -1.5672   23.1165 C   0  0  0  0  0  0  0  0  0  0  0  0
    1.0552   -9.6360   17.0650 C   0  0  0  0  0  0  0  0  0  0  0  0
    3.6519   -9.1783   16.9039 C   0  0  0  0  0  0  0  0  0  0  0  0
    7.8675   -7.0096   15.9415 C   0  0  0  0  0  0  0  0  0  0  0  0
    5.9733   -9.6553   17.3832 N   0  0  0  0  0  0  0  0  0  0  0  0
   10.2411   -2.9363   23.4301 C   0  0  0  0  0  0  0  0  0  0  0  0
   10.7288   -3.8197   19.9525 C   0  0  0  0  0  0  0  0  0  0  0  0
   10.1189   -5.0054   19.6987 C   0  0  0  0  0  0  0  0  0  0  0  0
  1  3  4  0
  1  7  4  0
  2 21  4  0
  2 27  4  0
  3  9  4  0
  3 10  4  0
  4  8  4  0
  4 18  4  0
  4 25  1  0
  5  9  4  0
  5 12  4  0
  6 13  1  0
  6 27  1  0
  7 28  4  0
  8 11  4  0
  9 29  4  0
 10 12  4  0
 11 24  1  0
 11 26  4  0
 12 25  1  0
 13 28  1  0
 14 20  4  0
 14 23  4  0
 15 17  4  0
 15 21  4  0
 16 19  4  0
 16 23  4  0
 17 22  4  0
 18 26  4  0
 19 24  4  0
 20 24  4  0
 22 27  4  0
 28 29  4  0
M  END
$$$$

 Created by Python create_sdf_string function

 29 33  0  0  0  0  0  0  0  0999 V2000
   10.7215   -3.3326   17.6437 C   0  0  0  0  0  0  0  0  0  0  0  0
    9.9489   -3.4675   24.6487 N   0  0  0  0  0  0  0  0  0  0  0  0
   10.0172   -4.4740   17.4101 C   0  0  0  0  0  0  0  0  0  0  0  0
    6.9051   -7.9575   16.4222 C   0  0  0  0  0  0  0  0  0  0  0  0
    8.9969   -6.3552   17.9668 N   0  0  0  0  0  0  0  0  0  0  0  0
   10.6702   -3.9051   22.4070 C   0  0  0  0  0  0  0  0  0  0  0  0
   11.0625   -3.0028   18.8894 C   0  0  0  0  0  0  0  0  0  0  0  0
    5.6180   -7.9194   16.1754 O   0  0  0  0  0  0  0  0  0  0  0  0
    9.7259   -5.3080   18.4485 C   0  0  0  0  0  0  0  0  0  0  0  0
    9.4578   -5.0200   16.3036 N   0  0  0  0  0  0  0  0  0  0  0  0
    5.0287   -8.9365   16.8223 C   0  0  0  0  0  0  0  0  0  0  0  0
    8.7742   -6.1498   16.6764 C   0  0  0  0  0  0  0  0  0  0  0  0
   10.9418   -3.4032   21.2053 O   0  0  0  0  0  0  0  0  0  0  0  0
    1.4797   -8.6258   16.2950 C   0  0  0  0  0  0  0  0  0  0  0  0
    9.2861   -1.2743   25.3585 C   0  0  0  0  0  0  0  0  0  0  0  0
    1.8892  -10.3985   17.7511 N   0  0  0  0  0  0  0  0  0  0  0  0
    9.6210   -0.6952   24.0976 C   0  0  0  0  0  0  0  0  0  0  0  0
    7.0792   -9.0217   17.1429 C   0  0  0  0  0  0  0  0  0  0  0  0
    3.1713  -10.1816   17.6634 C   0  0  0  0  0  0  0  0  0  0  0  0
    2.7878   -8.3822   16.2137 C   0  0  0  0  0  0  0  0  0  0  0  0
    9.4601   -2.6590   25.6528 C   0  0  0  0  0  0  0  0  0  0  0  0
   10.1182   -1.5672   23.1165 C   0  0  0  0  0  0  0  0  0  0  0  0
    1.0552   -9.6360   17.0650 C   0  0  0  0  0  0  0  0  0  0  0  0
    3.6519   -9.1783   16.9039 C   0  0  0  0  0  0  0  0  0  0  0  0
    7.8675   -7.0096   15.9415 C   0  0  0  0  0  0  0  0  0  0  0  0
    5.9733   -9.6553   17.3832 N   0  0  0  0  0  0  0  0  0  0  0  0
   10.2411   -2.9363   23.4301 C   0  0  0  0  0  0  0  0  0  0  0  0
   10.7288   -3.8197   19.9525 C   0  0  0  0  0  0  0  0  0  0  0  0
   10.1189   -5.0054   19.6987 C   0  0  0  0  0  0  0  0  0  0  0  0
  1  3  4  0
  1  7  4  0
  2 21  4  0
  2 27  4  0
  3  9  4  0
  3 10  4  0
  4  8  4  0
  4 18  4  0
  4 25  1  0
  5  9  4  0
  5 12  4  0
  6 13  1  0
  6 27  1  0
  7 28  4  0
  8 11  4  0
  9 29  4  0
 10 12  4  0
 11 24  1  0
 11 26  4  0
 12 25  1  0
 13 28  1  0
 14 20  4  0
 14 23  4  0
 15 17  4  0
 15 21  4  0
 16 19  4  0
 16 23  4  0
 17 22  4  0
 18 26  4  0
 19 24  4  0
 20 24  4  0
 22 27  4  0
 28 29  4  0
M  END
$$$$

 Created by Python create_sdf_string function

 29 33  0  0  0  0  0  0  0  0999 V2000
   10.7215   -3.3326   17.6437 C   0  0  0  0  0  0  0  0  0  0  0  0
    9.9489   -3.4675   24.6487 N   0  0  0  0  0  0  0  0  0  0  0  0
   10.0172   -4.4740   17.4101 C   0  0  0  0  0  0  0  0  0  0  0  0
    6.9051   -7.9575   16.4222 C   0  0  0  0  0  0  0  0  0  0  0  0
    8.9969   -6.3552   17.9668 N   0  0  0  0  0  0  0  0  0  0  0  0
   10.6702   -3.9051   22.4070 C   0  0  0  0  0  0  0  0  0  0  0  0
   11.0625   -3.0028   18.8894 C   0  0  0  0  0  0  0  0  0  0  0  0
    5.6180   -7.9194   16.1754 O   0  0  0  0  0  0  0  0  0  0  0  0
    9.7259   -5.3080   18.4485 C   0  0  0  0  0  0  0  0  0  0  0  0
    9.4578   -5.0200   16.3036 N   0  0  0  0  0  0  0  0  0  0  0  0
    5.0287   -8.9365   16.8223 C   0  0  0  0  0  0  0  0  0  0  0  0
    8.7742   -6.1498   16.6764 C   0  0  0  0  0  0  0  0  0  0  0  0
   10.9418   -3.4032   21.2053 O   0  0  0  0  0  0  0  0  0  0  0  0
    1.4797   -8.6258   16.2950 C   0  0  0  0  0  0  0  0  0  0  0  0
    9.2861   -1.2743   25.3585 C   0  0  0  0  0  0  0  0  0  0  0  0
    1.8892  -10.3985   17.7511 N   0  0  0  0  0  0  0  0  0  0  0  0
    9.6210   -0.6952   24.0976 C   0  0  0  0  0  0  0  0  0  0  0  0
    7.0792   -9.0217   17.1429 C   0  0  0  0  0  0  0  0  0  0  0  0
    3.1713  -10.1816   17.6634 C   0  0  0  0  0  0  0  0  0  0  0  0
    2.7878   -8.3822   16.2137 C   0  0  0  0  0  0  0  0  0  0  0  0
    9.4601   -2.6590   25.6528 C   0  0  0  0  0  0  0  0  0  0  0  0
   10.1182   -1.5672   23.1165 C   0  0  0  0  0  0  0  0  0  0  0  0
    1.0552   -9.6360   17.0650 C   0  0  0  0  0  0  0  0  0  0  0  0
    3.6519   -9.1783   16.9039 C   0  0  0  0  0  0  0  0  0  0  0  0
    7.8675   -7.0096   15.9415 C   0  0  0  0  0  0  0  0  0  0  0  0
    5.9733   -9.6553   17.3832 N   0  0  0  0  0  0  0  0  0  0  0  0
   10.2411   -2.9363   23.4301 C   0  0  0  0  0  0  0  0  0  0  0  0
   10.7288   -3.8197   19.9525 C   0  0  0  0  0  0  0  0  0  0  0  0
   10.1189   -5.0054   19.6987 C   0  0  0  0  0  0  0  0  0  0  0  0
  1  3  4  0
  1  7  4  0
  2 21  4  0
  2 27  4  0
  3  9  4  0
  3 10  4  0
  4  8  4  0
  4 18  4  0
  4 25  1  0
  5  9  4  0
  5 12  4  0
  6 13  1  0
  6 27  1  0
  7 28  4  0
  8 11  4  0
  9 29  4  0
 10 12  4  0
 11 24  1  0
 11 26  4  0
 12 25  1  0
 13 28  1  0
 14 20  4  0
 14 23  4  0
 15 17  4  0
 15 21  4  0
 16 19  4  0
 16 23  4  0
 17 22  4  0
 18 26  4  0
 19 24  4  0
 20 24  4  0
 22 27  4  0
 28 29  4  0
M  END
$$$$

 Created by Python create_sdf_string function

 29 33  0  0  0  0  0  0  0  0999 V2000
   10.7215   -3.3326   17.6437 C   0  0  0  0  0  0  0  0  0  0  0  0
    9.9489   -3.4675   24.6487 N   0  0  0  0  0  0  0  0  0  0  0  0
   10.0172   -4.4740   17.4101 C   0  0  0  0  0  0  0  0  0  0  0  0
    6.9051   -7.9575   16.4222 C   0  0  0  0  0  0  0  0  0  0  0  0
    8.9969   -6.3552   17.9668 N   0  0  0  0  0  0  0  0  0  0  0  0
   10.6702   -3.9051   22.4070 C   0  0  0  0  0  0  0  0  0  0  0  0
   11.0625   -3.0028   18.8894 C   0  0  0  0  0  0  0  0  0  0  0  0
    5.6180   -7.9194   16.1754 O   0  0  0  0  0  0  0  0  0  0  0  0
    9.7259   -5.3080   18.4485 C   0  0  0  0  0  0  0  0  0  0  0  0
    9.4578   -5.0200   16.3036 N   0  0  0  0  0  0  0  0  0  0  0  0
    5.0287   -8.9365   16.8223 C   0  0  0  0  0  0  0  0  0  0  0  0
    8.7742   -6.1498   16.6764 C   0  0  0  0  0  0  0  0  0  0  0  0
   10.9418   -3.4032   21.2053 O   0  0  0  0  0  0  0  0  0  0  0  0
    1.4797   -8.6258   16.2950 C   0  0  0  0  0  0  0  0  0  0  0  0
    9.2861   -1.2743   25.3585 C   0  0  0  0  0  0  0  0  0  0  0  0
    1.8892  -10.3985   17.7511 N   0  0  0  0  0  0  0  0  0  0  0  0
    9.6210   -0.6952   24.0976 C   0  0  0  0  0  0  0  0  0  0  0  0
    7.0792   -9.0217   17.1429 C   0  0  0  0  0  0  0  0  0  0  0  0
    3.1713  -10.1816   17.6634 C   0  0  0  0  0  0  0  0  0  0  0  0
    2.7878   -8.3822   16.2137 C   0  0  0  0  0  0  0  0  0  0  0  0
    9.4601   -2.6590   25.6528 C   0  0  0  0  0  0  0  0  0  0  0  0
   10.1182   -1.5672   23.1165 C   0  0  0  0  0  0  0  0  0  0  0  0
    1.0552   -9.6360   17.0650 C   0  0  0  0  0  0  0  0  0  0  0  0
    3.6519   -9.1783   16.9039 C   0  0  0  0  0  0  0  0  0  0  0  0
    7.8675   -7.0096   15.9415 C   0  0  0  0  0  0  0  0  0  0  0  0
    5.9733   -9.6553   17.3832 N   0  0  0  0  0  0  0  0  0  0  0  0
   10.2411   -2.9363   23.4301 C   0  0  0  0  0  0  0  0  0  0  0  0
   10.7288   -3.8197   19.9525 C   0  0  0  0  0  0  0  0  0  0  0  0
   10.1189   -5.0054   19.6987 C   0  0  0  0  0  0  0  0  0  0  0  0
  1  3  4  0
  1  7  4  0
  2 21  4  0
  2 27  4  0
  3  9  4  0
  3 10  4  0
  4  8  4  0
  4 18  4  0
  4 25  1  0
  5  9  4  0
  5 12  4  0
  6 13  1  0
  6 27  1  0
  7 28  4  0
  8 11  4  0
  9 29  4  0
 10 12  4  0
 11 24  1  0
 11 26  4  0
 12 25  1  0
 13 28  1  0
 14 20  4  0
 14 23  4  0
 15 17  4  0
 15 21  4  0
 16 19  4  0
 16 23  4  0
 17 22  4  0
 18 26  4  0
 19 24  4  0
 20 24  4  0
 22 27  4  0
 28 29  4  0
M  END
$$$$

 Created by Python create_sdf_string function

 29 33  0  0  0  0  0  0  0  0999 V2000
   10.7215   -3.3326   17.6437 C   0  0  0  0  0  0  0  0  0  0  0  0
    9.9489   -3.4675   24.6487 N   0  0  0  0  0  0  0  0  0  0  0  0
   10.0172   -4.4740   17.4101 C   0  0  0  0  0  0  0  0  0  0  0  0
    6.9051   -7.9575   16.4222 C   0  0  0  0  0  0  0  0  0  0  0  0
    8.9969   -6.3552   17.9668 N   0  0  0  0  0  0  0  0  0  0  0  0
   10.6702   -3.9051   22.4070 C   0  0  0  0  0  0  0  0  0  0  0  0
   11.0625   -3.0028   18.8894 C   0  0  0  0  0  0  0  0  0  0  0  0
    5.6180   -7.9194   16.1754 O   0  0  0  0  0  0  0  0  0  0  0  0
    9.7259   -5.3080   18.4485 C   0  0  0  0  0  0  0  0  0  0  0  0
    9.4578   -5.0200   16.3036 N   0  0  0  0  0  0  0  0  0  0  0  0
    5.0287   -8.9365   16.8223 C   0  0  0  0  0  0  0  0  0  0  0  0
    8.7742   -6.1498   16.6764 C   0  0  0  0  0  0  0  0  0  0  0  0
   10.9418   -3.4032   21.2053 O   0  0  0  0  0  0  0  0  0  0  0  0
    1.4797   -8.6258   16.2950 C   0  0  0  0  0  0  0  0  0  0  0  0
    9.2861   -1.2743   25.3585 C   0  0  0  0  0  0  0  0  0  0  0  0
    1.8892  -10.3985   17.7511 N   0  0  0  0  0  0  0  0  0  0  0  0
    9.6210   -0.6952   24.0976 C   0  0  0  0  0  0  0  0  0  0  0  0
    7.0792   -9.0217   17.1429 C   0  0  0  0  0  0  0  0  0  0  0  0
    3.1713  -10.1816   17.6634 C   0  0  0  0  0  0  0  0  0  0  0  0
    2.7878   -8.3822   16.2137 C   0  0  0  0  0  0  0  0  0  0  0  0
    9.4601   -2.6590   25.6528 C   0  0  0  0  0  0  0  0  0  0  0  0
   10.1182   -1.5672   23.1165 C   0  0  0  0  0  0  0  0  0  0  0  0
    1.0552   -9.6360   17.0650 C   0  0  0  0  0  0  0  0  0  0  0  0
    3.6519   -9.1783   16.9039 C   0  0  0  0  0  0  0  0  0  0  0  0
    7.8675   -7.0096   15.9415 C   0  0  0  0  0  0  0  0  0  0  0  0
    5.9733   -9.6553   17.3832 N   0  0  0  0  0  0  0  0  0  0  0  0
   10.2411   -2.9363   23.4301 C   0  0  0  0  0  0  0  0  0  0  0  0
   10.7288   -3.8197   19.9525 C   0  0  0  0  0  0  0  0  0  0  0  0
   10.1189   -5.0054   19.6987 C   0  0  0  0  0  0  0  0  0  0  0  0
  1  3  4  0
  1  7  4  0
  2 21  4  0
  2 27  4  0
  3  9  4  0
  3 10  4  0
  4  8  4  0
  4 18  4  0
  4 25  1  0
  5  9  4  0
  5 12  4  0
  6 13  1  0
  6 27  1  0
  7 28  4  0
  8 11  4  0
  9 29  4  0
 10 12  4  0
 11 24  1  0
 11 26  4  0
 12 25  1  0
 13 28  1  0
 14 20  4  0
 14 23  4  0
 15 17  4  0
 15 21  4  0
 16 19  4  0
 16 23  4  0
 17 22  4  0
 18 26  4  0
 19 24  4  0
 20 24  4  0
 22 27  4  0
 28 29  4  0
M  END
$$$$

 Created by Python create_sdf_string function

 29 33  0  0  0  0  0  0  0  0999 V2000
   10.7215   -3.3326   17.6437 C   0  0  0  0  0  0  0  0  0  0  0  0
    9.9489   -3.4675   24.6487 N   0  0  0  0  0  0  0  0  0  0  0  0
   10.0172   -4.4740   17.4101 C   0  0  0  0  0  0  0  0  0  0  0  0
    6.9051   -7.9575   16.4222 C   0  0  0  0  0  0  0  0  0  0  0  0
    8.9969   -6.3552   17.9668 N   0  0  0  0  0  0  0  0  0  0  0  0
   10.6702   -3.9051   22.4070 C   0  0  0  0  0  0  0  0  0  0  0  0
   11.0625   -3.0028   18.8894 C   0  0  0  0  0  0  0  0  0  0  0  0
    5.6180   -7.9194   16.1754 O   0  0  0  0  0  0  0  0  0  0  0  0
    9.7259   -5.3080   18.4485 C   0  0  0  0  0  0  0  0  0  0  0  0
    9.4578   -5.0200   16.3036 N   0  0  0  0  0  0  0  0  0  0  0  0
    5.0287   -8.9365   16.8223 C   0  0  0  0  0  0  0  0  0  0  0  0
    8.7742   -6.1498   16.6764 C   0  0  0  0  0  0  0  0  0  0  0  0
   10.9418   -3.4032   21.2053 O   0  0  0  0  0  0  0  0  0  0  0  0
    1.4797   -8.6258   16.2950 C   0  0  0  0  0  0  0  0  0  0  0  0
    9.2861   -1.2743   25.3585 C   0  0  0  0  0  0  0  0  0  0  0  0
    1.8892  -10.3985   17.7511 N   0  0  0  0  0  0  0  0  0  0  0  0
    9.6210   -0.6952   24.0976 C   0  0  0  0  0  0  0  0  0  0  0  0
    7.0792   -9.0217   17.1429 C   0  0  0  0  0  0  0  0  0  0  0  0
    3.1713  -10.1816   17.6634 C   0  0  0  0  0  0  0  0  0  0  0  0
    2.7878   -8.3822   16.2137 C   0  0  0  0  0  0  0  0  0  0  0  0
    9.4601   -2.6590   25.6528 C   0  0  0  0  0  0  0  0  0  0  0  0
   10.1182   -1.5672   23.1165 C   0  0  0  0  0  0  0  0  0  0  0  0
    1.0552   -9.6360   17.0650 C   0  0  0  0  0  0  0  0  0  0  0  0
    3.6519   -9.1783   16.9039 C   0  0  0  0  0  0  0  0  0  0  0  0
    7.8675   -7.0096   15.9415 C   0  0  0  0  0  0  0  0  0  0  0  0
    5.9733   -9.6553   17.3832 N   0  0  0  0  0  0  0  0  0  0  0  0
   10.2411   -2.9363   23.4301 C   0  0  0  0  0  0  0  0  0  0  0  0
   10.7288   -3.8197   19.9525 C   0  0  0  0  0  0  0  0  0  0  0  0
   10.1189   -5.0054   19.6987 C   0  0  0  0  0  0  0  0  0  0  0  0
  1  3  4  0
  1  7  4  0
  2 21  4  0
  2 27  4  0
  3  9  4  0
  3 10  4  0
  4  8  4  0
  4 18  4  0
  4 25  1  0
  5  9  4  0
  5 12  4  0
  6 13  1  0
  6 27  1  0
  7 28  4  0
  8 11  4  0
  9 29  4  0
 10 12  4  0
 11 24  1  0
 11 26  4  0
 12 25  1  0
 13 28  1  0
 14 20  4  0
 14 23  4  0
 15 17  4  0
 15 21  4  0
 16 19  4  0
 16 23  4  0
 17 22  4  0
 18 26  4  0
 19 24  4  0
 20 24  4  0
 22 27  4  0
 28 29  4  0
M  END
$$$$

 Created by Python create_sdf_string function

 29 33  0  0  0  0  0  0  0  0999 V2000
   10.7215   -3.3326   17.6437 C   0  0  0  0  0  0  0  0  0  0  0  0
    9.9489   -3.4675   24.6487 N   0  0  0  0  0  0  0  0  0  0  0  0
   10.0172   -4.4740   17.4101 C   0  0  0  0  0  0  0  0  0  0  0  0
    6.9051   -7.9575   16.4222 C   0  0  0  0  0  0  0  0  0  0  0  0
    8.9969   -6.3552   17.9668 N   0  0  0  0  0  0  0  0  0  0  0  0
   10.6702   -3.9051   22.4070 C   0  0  0  0  0  0  0  0  0  0  0  0
   11.0625   -3.0028   18.8894 C   0  0  0  0  0  0  0  0  0  0  0  0
    5.6180   -7.9194   16.1754 O   0  0  0  0  0  0  0  0  0  0  0  0
    9.7259   -5.3080   18.4485 C   0  0  0  0  0  0  0  0  0  0  0  0
    9.4578   -5.0200   16.3036 N   0  0  0  0  0  0  0  0  0  0  0  0
    5.0287   -8.9365   16.8223 C   0  0  0  0  0  0  0  0  0  0  0  0
    8.7742   -6.1498   16.6764 C   0  0  0  0  0  0  0  0  0  0  0  0
   10.9418   -3.4032   21.2053 O   0  0  0  0  0  0  0  0  0  0  0  0
    1.4797   -8.6258   16.2950 C   0  0  0  0  0  0  0  0  0  0  0  0
    9.2861   -1.2743   25.3585 C   0  0  0  0  0  0  0  0  0  0  0  0
    1.8892  -10.3985   17.7511 N   0  0  0  0  0  0  0  0  0  0  0  0
    9.6210   -0.6952   24.0976 C   0  0  0  0  0  0  0  0  0  0  0  0
    7.0792   -9.0217   17.1429 C   0  0  0  0  0  0  0  0  0  0  0  0
    3.1713  -10.1816   17.6634 C   0  0  0  0  0  0  0  0  0  0  0  0
    2.7878   -8.3822   16.2137 C   0  0  0  0  0  0  0  0  0  0  0  0
    9.4601   -2.6590   25.6528 C   0  0  0  0  0  0  0  0  0  0  0  0
   10.1182   -1.5672   23.1165 C   0  0  0  0  0  0  0  0  0  0  0  0
    1.0552   -9.6360   17.0650 C   0  0  0  0  0  0  0  0  0  0  0  0
    3.6519   -9.1783   16.9039 C   0  0  0  0  0  0  0  0  0  0  0  0
    7.8675   -7.0096   15.9415 C   0  0  0  0  0  0  0  0  0  0  0  0
    5.9733   -9.6553   17.3832 N   0  0  0  0  0  0  0  0  0  0  0  0
   10.2411   -2.9363   23.4301 C   0  0  0  0  0  0  0  0  0  0  0  0
   10.7288   -3.8197   19.9525 C   0  0  0  0  0  0  0  0  0  0  0  0
   10.1189   -5.0054   19.6987 C   0  0  0  0  0  0  0  0  0  0  0  0
  1  3  4  0
  1  7  4  0
  2 21  4  0
  2 27  4  0
  3  9  4  0
  3 10  4  0
  4  8  4  0
  4 18  4  0
  4 25  1  0
  5  9  4  0
  5 12  4  0
  6 13  1  0
  6 27  1  0
  7 28  4  0
  8 11  4  0
  9 29  4  0
 10 12  4  0
 11 24  1  0
 11 26  4  0
 12 25  1  0
 13 28  1  0
 14 20  4  0
 14 23  4  0
 15 17  4  0
 15 21  4  0
 16 19  4  0
 16 23  4  0
 17 22  4  0
 18 26  4  0
 19 24  4  0
 20 24  4  0
 22 27  4  0
 28 29  4  0
M  END
$$$$

 Created by Python create_sdf_string function

 29 33  0  0  0  0  0  0  0  0999 V2000
   10.7215   -3.3326   17.6437 C   0  0  0  0  0  0  0  0  0  0  0  0
    9.9489   -3.4675   24.6487 N   0  0  0  0  0  0  0  0  0  0  0  0
   10.0172   -4.4740   17.4101 C   0  0  0  0  0  0  0  0  0  0  0  0
    6.9051   -7.9575   16.4222 C   0  0  0  0  0  0  0  0  0  0  0  0
    8.9969   -6.3552   17.9668 N   0  0  0  0  0  0  0  0  0  0  0  0
   10.6702   -3.9051   22.4070 C   0  0  0  0  0  0  0  0  0  0  0  0
   11.0625   -3.0028   18.8894 C   0  0  0  0  0  0  0  0  0  0  0  0
    5.6180   -7.9194   16.1754 O   0  0  0  0  0  0  0  0  0  0  0  0
    9.7259   -5.3080   18.4485 C   0  0  0  0  0  0  0  0  0  0  0  0
    9.4578   -5.0200   16.3036 N   0  0  0  0  0  0  0  0  0  0  0  0
    5.0287   -8.9365   16.8223 C   0  0  0  0  0  0  0  0  0  0  0  0
    8.7742   -6.1498   16.6764 C   0  0  0  0  0  0  0  0  0  0  0  0
   10.9418   -3.4032   21.2053 O   0  0  0  0  0  0  0  0  0  0  0  0
    1.4797   -8.6258   16.2950 C   0  0  0  0  0  0  0  0  0  0  0  0
    9.2861   -1.2743   25.3585 C   0  0  0  0  0  0  0  0  0  0  0  0
    1.8892  -10.3985   17.7511 N   0  0  0  0  0  0  0  0  0  0  0  0
    9.6210   -0.6952   24.0976 C   0  0  0  0  0  0  0  0  0  0  0  0
    7.0792   -9.0217   17.1429 C   0  0  0  0  0  0  0  0  0  0  0  0
    3.1713  -10.1816   17.6634 C   0  0  0  0  0  0  0  0  0  0  0  0
    2.7878   -8.3822   16.2137 C   0  0  0  0  0  0  0  0  0  0  0  0
    9.4601   -2.6590   25.6528 C   0  0  0  0  0  0  0  0  0  0  0  0
   10.1182   -1.5672   23.1165 C   0  0  0  0  0  0  0  0  0  0  0  0
    1.0552   -9.6360   17.0650 C   0  0  0  0  0  0  0  0  0  0  0  0
    3.6519   -9.1783   16.9039 C   0  0  0  0  0  0  0  0  0  0  0  0
    7.8675   -7.0096   15.9415 C   0  0  0  0  0  0  0  0  0  0  0  0
    5.9733   -9.6553   17.3832 N   0  0  0  0  0  0  0  0  0  0  0  0
   10.2411   -2.9363   23.4301 C   0  0  0  0  0  0  0  0  0  0  0  0
   10.7288   -3.8197   19.9525 C   0  0  0  0  0  0  0  0  0  0  0  0
   10.1189   -5.0054   19.6987 C   0  0  0  0  0  0  0  0  0  0  0  0
  1  3  4  0
  1  7  4  0
  2 21  4  0
  2 27  4  0
  3  9  4  0
  3 10  4  0
  4  8  4  0
  4 18  4  0
  4 25  1  0
  5  9  4  0
  5 12  4  0
  6 13  1  0
  6 27  1  0
  7 28  4  0
  8 11  4  0
  9 29  4  0
 10 12  4  0
 11 24  1  0
 11 26  4  0
 12 25  1  0
 13 28  1  0
 14 20  4  0
 14 23  4  0
 15 17  4  0
 15 21  4  0
 16 19  4  0
 16 23  4  0
 17 22  4  0
 18 26  4  0
 19 24  4  0
 20 24  4  0
 22 27  4  0
 28 29  4  0
M  END
$$$$

 Created by Python create_sdf_string function

 29 33  0  0  0  0  0  0  0  0999 V2000
   10.7215   -3.3326   17.6437 C   0  0  0  0  0  0  0  0  0  0  0  0
    9.9489   -3.4675   24.6487 N   0  0  0  0  0  0  0  0  0  0  0  0
   10.0172   -4.4740   17.4101 C   0  0  0  0  0  0  0  0  0  0  0  0
    6.9051   -7.9575   16.4222 C   0  0  0  0  0  0  0  0  0  0  0  0
    8.9969   -6.3552   17.9668 N   0  0  0  0  0  0  0  0  0  0  0  0
   10.6702   -3.9051   22.4070 C   0  0  0  0  0  0  0  0  0  0  0  0
   11.0625   -3.0028   18.8894 C   0  0  0  0  0  0  0  0  0  0  0  0
    5.6180   -7.9194   16.1754 O   0  0  0  0  0  0  0  0  0  0  0  0
    9.7259   -5.3080   18.4485 C   0  0  0  0  0  0  0  0  0  0  0  0
    9.4578   -5.0200   16.3036 N   0  0  0  0  0  0  0  0  0  0  0  0
    5.0287   -8.9365   16.8223 C   0  0  0  0  0  0  0  0  0  0  0  0
    8.7742   -6.1498   16.6764 C   0  0  0  0  0  0  0  0  0  0  0  0
   10.9418   -3.4032   21.2053 O   0  0  0  0  0  0  0  0  0  0  0  0
    1.4797   -8.6258   16.2950 C   0  0  0  0  0  0  0  0  0  0  0  0
    9.2861   -1.2743   25.3585 C   0  0  0  0  0  0  0  0  0  0  0  0
    1.8892  -10.3985   17.7511 N   0  0  0  0  0  0  0  0  0  0  0  0
    9.6210   -0.6952   24.0976 C   0  0  0  0  0  0  0  0  0  0  0  0
    7.0792   -9.0217   17.1429 C   0  0  0  0  0  0  0  0  0  0  0  0
    3.1713  -10.1816   17.6634 C   0  0  0  0  0  0  0  0  0  0  0  0
    2.7878   -8.3822   16.2137 C   0  0  0  0  0  0  0  0  0  0  0  0
    9.4601   -2.6590   25.6528 C   0  0  0  0  0  0  0  0  0  0  0  0
   10.1182   -1.5672   23.1165 C   0  0  0  0  0  0  0  0  0  0  0  0
    1.0552   -9.6360   17.0650 C   0  0  0  0  0  0  0  0  0  0  0  0
    3.6519   -9.1783   16.9039 C   0  0  0  0  0  0  0  0  0  0  0  0
    7.8675   -7.0096   15.9415 C   0  0  0  0  0  0  0  0  0  0  0  0
    5.9733   -9.6553   17.3832 N   0  0  0  0  0  0  0  0  0  0  0  0
   10.2411   -2.9363   23.4301 C   0  0  0  0  0  0  0  0  0  0  0  0
   10.7288   -3.8197   19.9525 C   0  0  0  0  0  0  0  0  0  0  0  0
   10.1189   -5.0054   19.6987 C   0  0  0  0  0  0  0  0  0  0  0  0
  1  3  4  0
  1  7  4  0
  2 21  4  0
  2 27  4  0
  3  9  4  0
  3 10  4  0
  4  8  4  0
  4 18  4  0
  4 25  1  0
  5  9  4  0
  5 12  4  0
  6 13  1  0
  6 27  1  0
  7 28  4  0
  8 11  4  0
  9 29  4  0
 10 12  4  0
 11 24  1  0
 11 26  4  0
 12 25  1  0
 13 28  1  0
 14 20  4  0
 14 23  4  0
 15 17  4  0
 15 21  4  0
 16 19  4  0
 16 23  4  0
 17 22  4  0
 18 26  4  0
 19 24  4  0
 20 24  4  0
 22 27  4  0
 28 29  4  0
M  END
$$$$

 Created by Python create_sdf_string function

 29 33  0  0  0  0  0  0  0  0999 V2000
   10.7215   -3.3326   17.6437 C   0  0  0  0  0  0  0  0  0  0  0  0
    9.9489   -3.4675   24.6487 N   0  0  0  0  0  0  0  0  0  0  0  0
   10.0172   -4.4740   17.4101 C   0  0  0  0  0  0  0  0  0  0  0  0
    6.9051   -7.9575   16.4222 C   0  0  0  0  0  0  0  0  0  0  0  0
    8.9969   -6.3552   17.9668 N   0  0  0  0  0  0  0  0  0  0  0  0
   10.6702   -3.9051   22.4070 C   0  0  0  0  0  0  0  0  0  0  0  0
   11.0625   -3.0028   18.8894 C   0  0  0  0  0  0  0  0  0  0  0  0
    5.6180   -7.9194   16.1754 O   0  0  0  0  0  0  0  0  0  0  0  0
    9.7259   -5.3080   18.4485 C   0  0  0  0  0  0  0  0  0  0  0  0
    9.4578   -5.0200   16.3036 N   0  0  0  0  0  0  0  0  0  0  0  0
    5.0287   -8.9365   16.8223 C   0  0  0  0  0  0  0  0  0  0  0  0
    8.7742   -6.1498   16.6764 C   0  0  0  0  0  0  0  0  0  0  0  0
   10.9418   -3.4032   21.2053 O   0  0  0  0  0  0  0  0  0  0  0  0
    1.4797   -8.6258   16.2950 C   0  0  0  0  0  0  0  0  0  0  0  0
    9.2861   -1.2743   25.3585 C   0  0  0  0  0  0  0  0  0  0  0  0
    1.8892  -10.3985   17.7511 N   0  0  0  0  0  0  0  0  0  0  0  0
    9.6210   -0.6952   24.0976 C   0  0  0  0  0  0  0  0  0  0  0  0
    7.0792   -9.0217   17.1429 C   0  0  0  0  0  0  0  0  0  0  0  0
    3.1713  -10.1816   17.6634 C   0  0  0  0  0  0  0  0  0  0  0  0
    2.7878   -8.3822   16.2137 C   0  0  0  0  0  0  0  0  0  0  0  0
    9.4601   -2.6590   25.6528 C   0  0  0  0  0  0  0  0  0  0  0  0
   10.1182   -1.5672   23.1165 C   0  0  0  0  0  0  0  0  0  0  0  0
    1.0552   -9.6360   17.0650 C   0  0  0  0  0  0  0  0  0  0  0  0
    3.6519   -9.1783   16.9039 C   0  0  0  0  0  0  0  0  0  0  0  0
    7.8675   -7.0096   15.9415 C   0  0  0  0  0  0  0  0  0  0  0  0
    5.9733   -9.6553   17.3832 N   0  0  0  0  0  0  0  0  0  0  0  0
   10.2411   -2.9363   23.4301 C   0  0  0  0  0  0  0  0  0  0  0  0
   10.7288   -3.8197   19.9525 C   0  0  0  0  0  0  0  0  0  0  0  0
   10.1189   -5.0054   19.6987 C   0  0  0  0  0  0  0  0  0  0  0  0
  1  3  4  0
  1  7  4  0
  2 21  4  0
  2 27  4  0
  3  9  4  0
  3 10  4  0
  4  8  4  0
  4 18  4  0
  4 25  1  0
  5  9  4  0
  5 12  4  0
  6 13  1  0
  6 27  1  0
  7 28  4  0
  8 11  4  0
  9 29  4  0
 10 12  4  0
 11 24  1  0
 11 26  4  0
 12 25  1  0
 13 28  1  0
 14 20  4  0
 14 23  4  0
 15 17  4  0
 15 21  4  0
 16 19  4  0
 16 23  4  0
 17 22  4  0
 18 26  4  0
 19 24  4  0
 20 24  4  0
 22 27  4  0
 28 29  4  0
M  END
$$$$

 Created by Python create_sdf_string function

 29 33  0  0  0  0  0  0  0  0999 V2000
   10.7215   -3.3326   17.6437 C   0  0  0  0  0  0  0  0  0  0  0  0
    9.9489   -3.4675   24.6487 N   0  0  0  0  0  0  0  0  0  0  0  0
   10.0172   -4.4740   17.4101 C   0  0  0  0  0  0  0  0  0  0  0  0
    6.9051   -7.9575   16.4222 C   0  0  0  0  0  0  0  0  0  0  0  0
    8.9969   -6.3552   17.9668 N   0  0  0  0  0  0  0  0  0  0  0  0
   10.6702   -3.9051   22.4070 C   0  0  0  0  0  0  0  0  0  0  0  0
   11.0625   -3.0028   18.8894 C   0  0  0  0  0  0  0  0  0  0  0  0
    5.6180   -7.9194   16.1754 O   0  0  0  0  0  0  0  0  0  0  0  0
    9.7259   -5.3080   18.4485 C   0  0  0  0  0  0  0  0  0  0  0  0
    9.4578   -5.0200   16.3036 N   0  0  0  0  0  0  0  0  0  0  0  0
    5.0287   -8.9365   16.8223 C   0  0  0  0  0  0  0  0  0  0  0  0
    8.7742   -6.1498   16.6764 C   0  0  0  0  0  0  0  0  0  0  0  0
   10.9418   -3.4032   21.2053 O   0  0  0  0  0  0  0  0  0  0  0  0
    1.4797   -8.6258   16.2950 C   0  0  0  0  0  0  0  0  0  0  0  0
    9.2861   -1.2743   25.3585 C   0  0  0  0  0  0  0  0  0  0  0  0
    1.8892  -10.3985   17.7511 N   0  0  0  0  0  0  0  0  0  0  0  0
    9.6210   -0.6952   24.0976 C   0  0  0  0  0  0  0  0  0  0  0  0
    7.0792   -9.0217   17.1429 C   0  0  0  0  0  0  0  0  0  0  0  0
    3.1713  -10.1816   17.6634 C   0  0  0  0  0  0  0  0  0  0  0  0
    2.7878   -8.3822   16.2137 C   0  0  0  0  0  0  0  0  0  0  0  0
    9.4601   -2.6590   25.6528 C   0  0  0  0  0  0  0  0  0  0  0  0
   10.1182   -1.5672   23.1165 C   0  0  0  0  0  0  0  0  0  0  0  0
    1.0552   -9.6360   17.0650 C   0  0  0  0  0  0  0  0  0  0  0  0
    3.6519   -9.1783   16.9039 C   0  0  0  0  0  0  0  0  0  0  0  0
    7.8675   -7.0096   15.9415 C   0  0  0  0  0  0  0  0  0  0  0  0
    5.9733   -9.6553   17.3832 N   0  0  0  0  0  0  0  0  0  0  0  0
   10.2411   -2.9363   23.4301 C   0  0  0  0  0  0  0  0  0  0  0  0
   10.7288   -3.8197   19.9525 C   0  0  0  0  0  0  0  0  0  0  0  0
   10.1189   -5.0054   19.6987 C   0  0  0  0  0  0  0  0  0  0  0  0
  1  3  4  0
  1  7  4  0
  2 21  4  0
  2 27  4  0
  3  9  4  0
  3 10  4  0
  4  8  4  0
  4 18  4  0
  4 25  1  0
  5  9  4  0
  5 12  4  0
  6 13  1  0
  6 27  1  0
  7 28  4  0
  8 11  4  0
  9 29  4  0
 10 12  4  0
 11 24  1  0
 11 26  4  0
 12 25  1  0
 13 28  1  0
 14 20  4  0
 14 23  4  0
 15 17  4  0
 15 21  4  0
 16 19  4  0
 16 23  4  0
 17 22  4  0
 18 26  4  0
 19 24  4  0
 20 24  4  0
 22 27  4  0
 28 29  4  0
M  END
$$$$

 Created by Python create_sdf_string function

 29 33  0  0  0  0  0  0  0  0999 V2000
   10.7215   -3.3326   17.6437 C   0  0  0  0  0  0  0  0  0  0  0  0
    9.9489   -3.4675   24.6487 N   0  0  0  0  0  0  0  0  0  0  0  0
   10.0172   -4.4740   17.4101 C   0  0  0  0  0  0  0  0  0  0  0  0
    6.9051   -7.9575   16.4222 C   0  0  0  0  0  0  0  0  0  0  0  0
    8.9969   -6.3552   17.9668 N   0  0  0  0  0  0  0  0  0  0  0  0
   10.6702   -3.9051   22.4070 C   0  0  0  0  0  0  0  0  0  0  0  0
   11.0625   -3.0028   18.8894 C   0  0  0  0  0  0  0  0  0  0  0  0
    5.6180   -7.9194   16.1754 O   0  0  0  0  0  0  0  0  0  0  0  0
    9.7259   -5.3080   18.4485 C   0  0  0  0  0  0  0  0  0  0  0  0
    9.4578   -5.0200   16.3036 N   0  0  0  0  0  0  0  0  0  0  0  0
    5.0287   -8.9365   16.8223 C   0  0  0  0  0  0  0  0  0  0  0  0
    8.7742   -6.1498   16.6764 C   0  0  0  0  0  0  0  0  0  0  0  0
   10.9418   -3.4032   21.2053 O   0  0  0  0  0  0  0  0  0  0  0  0
    1.4797   -8.6258   16.2950 C   0  0  0  0  0  0  0  0  0  0  0  0
    9.2861   -1.2743   25.3585 C   0  0  0  0  0  0  0  0  0  0  0  0
    1.8892  -10.3985   17.7511 N   0  0  0  0  0  0  0  0  0  0  0  0
    9.6210   -0.6952   24.0976 C   0  0  0  0  0  0  0  0  0  0  0  0
    7.0792   -9.0217   17.1429 C   0  0  0  0  0  0  0  0  0  0  0  0
    3.1713  -10.1816   17.6634 C   0  0  0  0  0  0  0  0  0  0  0  0
    2.7878   -8.3822   16.2137 C   0  0  0  0  0  0  0  0  0  0  0  0
    9.4601   -2.6590   25.6528 C   0  0  0  0  0  0  0  0  0  0  0  0
   10.1182   -1.5672   23.1165 C   0  0  0  0  0  0  0  0  0  0  0  0
    1.0552   -9.6360   17.0650 C   0  0  0  0  0  0  0  0  0  0  0  0
    3.6519   -9.1783   16.9039 C   0  0  0  0  0  0  0  0  0  0  0  0
    7.8675   -7.0096   15.9415 C   0  0  0  0  0  0  0  0  0  0  0  0
    5.9733   -9.6553   17.3832 N   0  0  0  0  0  0  0  0  0  0  0  0
   10.2411   -2.9363   23.4301 C   0  0  0  0  0  0  0  0  0  0  0  0
   10.7288   -3.8197   19.9525 C   0  0  0  0  0  0  0  0  0  0  0  0
   10.1189   -5.0054   19.6987 C   0  0  0  0  0  0  0  0  0  0  0  0
  1  3  4  0
  1  7  4  0
  2 21  4  0
  2 27  4  0
  3  9  4  0
  3 10  4  0
  4  8  4  0
  4 18  4  0
  4 25  1  0
  5  9  4  0
  5 12  4  0
  6 13  1  0
  6 27  1  0
  7 28  4  0
  8 11  4  0
  9 29  4  0
 10 12  4  0
 11 24  1  0
 11 26  4  0
 12 25  1  0
 13 28  1  0
 14 20  4  0
 14 23  4  0
 15 17  4  0
 15 21  4  0
 16 19  4  0
 16 23  4  0
 17 22  4  0
 18 26  4  0
 19 24  4  0
 20 24  4  0
 22 27  4  0
 28 29  4  0
M  END
$$$$

 Created by Python create_sdf_string function

 29 33  0  0  0  0  0  0  0  0999 V2000
   10.7215   -3.3326   17.6437 C   0  0  0  0  0  0  0  0  0  0  0  0
    9.9489   -3.4675   24.6487 N   0  0  0  0  0  0  0  0  0  0  0  0
   10.0172   -4.4740   17.4101 C   0  0  0  0  0  0  0  0  0  0  0  0
    6.9051   -7.9575   16.4222 C   0  0  0  0  0  0  0  0  0  0  0  0
    8.9969   -6.3552   17.9668 N   0  0  0  0  0  0  0  0  0  0  0  0
   10.6702   -3.9051   22.4070 C   0  0  0  0  0  0  0  0  0  0  0  0
   11.0625   -3.0028   18.8894 C   0  0  0  0  0  0  0  0  0  0  0  0
    5.6180   -7.9194   16.1754 O   0  0  0  0  0  0  0  0  0  0  0  0
    9.7259   -5.3080   18.4485 C   0  0  0  0  0  0  0  0  0  0  0  0
    9.4578   -5.0200   16.3036 N   0  0  0  0  0  0  0  0  0  0  0  0
    5.0287   -8.9365   16.8223 C   0  0  0  0  0  0  0  0  0  0  0  0
    8.7742   -6.1498   16.6764 C   0  0  0  0  0  0  0  0  0  0  0  0
   10.9418   -3.4032   21.2053 O   0  0  0  0  0  0  0  0  0  0  0  0
    1.4797   -8.6258   16.2950 C   0  0  0  0  0  0  0  0  0  0  0  0
    9.2861   -1.2743   25.3585 C   0  0  0  0  0  0  0  0  0  0  0  0
    1.8892  -10.3985   17.7511 N   0  0  0  0  0  0  0  0  0  0  0  0
    9.6210   -0.6952   24.0976 C   0  0  0  0  0  0  0  0  0  0  0  0
    7.0792   -9.0217   17.1429 C   0  0  0  0  0  0  0  0  0  0  0  0
    3.1713  -10.1816   17.6634 C   0  0  0  0  0  0  0  0  0  0  0  0
    2.7878   -8.3822   16.2137 C   0  0  0  0  0  0  0  0  0  0  0  0
    9.4601   -2.6590   25.6528 C   0  0  0  0  0  0  0  0  0  0  0  0
   10.1182   -1.5672   23.1165 C   0  0  0  0  0  0  0  0  0  0  0  0
    1.0552   -9.6360   17.0650 C   0  0  0  0  0  0  0  0  0  0  0  0
    3.6519   -9.1783   16.9039 C   0  0  0  0  0  0  0  0  0  0  0  0
    7.8675   -7.0096   15.9415 C   0  0  0  0  0  0  0  0  0  0  0  0
    5.9733   -9.6553   17.3832 N   0  0  0  0  0  0  0  0  0  0  0  0
   10.2411   -2.9363   23.4301 C   0  0  0  0  0  0  0  0  0  0  0  0
   10.7288   -3.8197   19.9525 C   0  0  0  0  0  0  0  0  0  0  0  0
   10.1189   -5.0054   19.6987 C   0  0  0  0  0  0  0  0  0  0  0  0
  1  3  4  0
  1  7  4  0
  2 21  4  0
  2 27  4  0
  3  9  4  0
  3 10  4  0
  4  8  4  0
  4 18  4  0
  4 25  1  0
  5  9  4  0
  5 12  4  0
  6 13  1  0
  6 27  1  0
  7 28  4  0
  8 11  4  0
  9 29  4  0
 10 12  4  0
 11 24  1  0
 11 26  4  0
 12 25  1  0
 13 28  1  0
 14 20  4  0
 14 23  4  0
 15 17  4  0
 15 21  4  0
 16 19  4  0
 16 23  4  0
 17 22  4  0
 18 26  4  0
 19 24  4  0
 20 24  4  0
 22 27  4  0
 28 29  4  0
M  END
$$$$

 Created by Python create_sdf_string function

 29 33  0  0  0  0  0  0  0  0999 V2000
   10.7215   -3.3326   17.6437 C   0  0  0  0  0  0  0  0  0  0  0  0
    9.9489   -3.4675   24.6487 N   0  0  0  0  0  0  0  0  0  0  0  0
   10.0172   -4.4740   17.4101 C   0  0  0  0  0  0  0  0  0  0  0  0
    6.9051   -7.9575   16.4222 C   0  0  0  0  0  0  0  0  0  0  0  0
    8.9969   -6.3552   17.9668 N   0  0  0  0  0  0  0  0  0  0  0  0
   10.6702   -3.9051   22.4070 C   0  0  0  0  0  0  0  0  0  0  0  0
   11.0625   -3.0028   18.8894 C   0  0  0  0  0  0  0  0  0  0  0  0
    5.6180   -7.9194   16.1754 O   0  0  0  0  0  0  0  0  0  0  0  0
    9.7259   -5.3080   18.4485 C   0  0  0  0  0  0  0  0  0  0  0  0
    9.4578   -5.0200   16.3036 N   0  0  0  0  0  0  0  0  0  0  0  0
    5.0287   -8.9365   16.8223 C   0  0  0  0  0  0  0  0  0  0  0  0
    8.7742   -6.1498   16.6764 C   0  0  0  0  0  0  0  0  0  0  0  0
   10.9418   -3.4032   21.2053 O   0  0  0  0  0  0  0  0  0  0  0  0
    1.4797   -8.6258   16.2950 C   0  0  0  0  0  0  0  0  0  0  0  0
    9.2861   -1.2743   25.3585 C   0  0  0  0  0  0  0  0  0  0  0  0
    1.8892  -10.3985   17.7511 N   0  0  0  0  0  0  0  0  0  0  0  0
    9.6210   -0.6952   24.0976 C   0  0  0  0  0  0  0  0  0  0  0  0
    7.0792   -9.0217   17.1429 C   0  0  0  0  0  0  0  0  0  0  0  0
    3.1713  -10.1816   17.6634 C   0  0  0  0  0  0  0  0  0  0  0  0
    2.7878   -8.3822   16.2137 C   0  0  0  0  0  0  0  0  0  0  0  0
    9.4601   -2.6590   25.6528 C   0  0  0  0  0  0  0  0  0  0  0  0
   10.1182   -1.5672   23.1165 C   0  0  0  0  0  0  0  0  0  0  0  0
    1.0552   -9.6360   17.0650 C   0  0  0  0  0  0  0  0  0  0  0  0
    3.6519   -9.1783   16.9039 C   0  0  0  0  0  0  0  0  0  0  0  0
    7.8675   -7.0096   15.9415 C   0  0  0  0  0  0  0  0  0  0  0  0
    5.9733   -9.6553   17.3832 N   0  0  0  0  0  0  0  0  0  0  0  0
   10.2411   -2.9363   23.4301 C   0  0  0  0  0  0  0  0  0  0  0  0
   10.7288   -3.8197   19.9525 C   0  0  0  0  0  0  0  0  0  0  0  0
   10.1189   -5.0054   19.6987 C   0  0  0  0  0  0  0  0  0  0  0  0
  1  3  4  0
  1  7  4  0
  2 21  4  0
  2 27  4  0
  3  9  4  0
  3 10  4  0
  4  8  4  0
  4 18  4  0
  4 25  1  0
  5  9  4  0
  5 12  4  0
  6 13  1  0
  6 27  1  0
  7 28  4  0
  8 11  4  0
  9 29  4  0
 10 12  4  0
 11 24  1  0
 11 26  4  0
 12 25  1  0
 13 28  1  0
 14 20  4  0
 14 23  4  0
 15 17  4  0
 15 21  4  0
 16 19  4  0
 16 23  4  0
 17 22  4  0
 18 26  4  0
 19 24  4  0
 20 24  4  0
 22 27  4  0
 28 29  4  0
M  END
$$$$

 Created by Python create_sdf_string function

 29 33  0  0  0  0  0  0  0  0999 V2000
   10.7215   -3.3326   17.6437 C   0  0  0  0  0  0  0  0  0  0  0  0
    9.9489   -3.4675   24.6487 N   0  0  0  0  0  0  0  0  0  0  0  0
   10.0172   -4.4740   17.4101 C   0  0  0  0  0  0  0  0  0  0  0  0
    6.9051   -7.9575   16.4222 C   0  0  0  0  0  0  0  0  0  0  0  0
    8.9969   -6.3552   17.9668 N   0  0  0  0  0  0  0  0  0  0  0  0
   10.6702   -3.9051   22.4070 C   0  0  0  0  0  0  0  0  0  0  0  0
   11.0625   -3.0028   18.8894 C   0  0  0  0  0  0  0  0  0  0  0  0
    5.6180   -7.9194   16.1754 O   0  0  0  0  0  0  0  0  0  0  0  0
    9.7259   -5.3080   18.4485 C   0  0  0  0  0  0  0  0  0  0  0  0
    9.4578   -5.0200   16.3036 N   0  0  0  0  0  0  0  0  0  0  0  0
    5.0287   -8.9365   16.8223 C   0  0  0  0  0  0  0  0  0  0  0  0
    8.7742   -6.1498   16.6764 C   0  0  0  0  0  0  0  0  0  0  0  0
   10.9418   -3.4032   21.2053 O   0  0  0  0  0  0  0  0  0  0  0  0
    1.4797   -8.6258   16.2950 C   0  0  0  0  0  0  0  0  0  0  0  0
    9.2861   -1.2743   25.3585 C   0  0  0  0  0  0  0  0  0  0  0  0
    1.8892  -10.3985   17.7511 N   0  0  0  0  0  0  0  0  0  0  0  0
    9.6210   -0.6952   24.0976 C   0  0  0  0  0  0  0  0  0  0  0  0
    7.0792   -9.0217   17.1429 C   0  0  0  0  0  0  0  0  0  0  0  0
    3.1713  -10.1816   17.6634 C   0  0  0  0  0  0  0  0  0  0  0  0
    2.7878   -8.3822   16.2137 C   0  0  0  0  0  0  0  0  0  0  0  0
    9.4601   -2.6590   25.6528 C   0  0  0  0  0  0  0  0  0  0  0  0
   10.1182   -1.5672   23.1165 C   0  0  0  0  0  0  0  0  0  0  0  0
    1.0552   -9.6360   17.0650 C   0  0  0  0  0  0  0  0  0  0  0  0
    3.6519   -9.1783   16.9039 C   0  0  0  0  0  0  0  0  0  0  0  0
    7.8675   -7.0096   15.9415 C   0  0  0  0  0  0  0  0  0  0  0  0
    5.9733   -9.6553   17.3832 N   0  0  0  0  0  0  0  0  0  0  0  0
   10.2411   -2.9363   23.4301 C   0  0  0  0  0  0  0  0  0  0  0  0
   10.7288   -3.8197   19.9525 C   0  0  0  0  0  0  0  0  0  0  0  0
   10.1189   -5.0054   19.6987 C   0  0  0  0  0  0  0  0  0  0  0  0
  1  3  4  0
  1  7  4  0
  2 21  4  0
  2 27  4  0
  3  9  4  0
  3 10  4  0
  4  8  4  0
  4 18  4  0
  4 25  1  0
  5  9  4  0
  5 12  4  0
  6 13  1  0
  6 27  1  0
  7 28  4  0
  8 11  4  0
  9 29  4  0
 10 12  4  0
 11 24  1  0
 11 26  4  0
 12 25  1  0
 13 28  1  0
 14 20  4  0
 14 23  4  0
 15 17  4  0
 15 21  4  0
 16 19  4  0
 16 23  4  0
 17 22  4  0
 18 26  4  0
 19 24  4  0
 20 24  4  0
 22 27  4  0
 28 29  4  0
M  END
$$$$

 Created by Python create_sdf_string function

 29 33  0  0  0  0  0  0  0  0999 V2000
   10.7215   -3.3326   17.6437 C   0  0  0  0  0  0  0  0  0  0  0  0
    9.9489   -3.4675   24.6487 N   0  0  0  0  0  0  0  0  0  0  0  0
   10.0172   -4.4740   17.4101 C   0  0  0  0  0  0  0  0  0  0  0  0
    6.9051   -7.9575   16.4222 C   0  0  0  0  0  0  0  0  0  0  0  0
    8.9969   -6.3552   17.9668 N   0  0  0  0  0  0  0  0  0  0  0  0
   10.6702   -3.9051   22.4070 C   0  0  0  0  0  0  0  0  0  0  0  0
   11.0625   -3.0028   18.8894 C   0  0  0  0  0  0  0  0  0  0  0  0
    5.6180   -7.9194   16.1754 O   0  0  0  0  0  0  0  0  0  0  0  0
    9.7259   -5.3080   18.4485 C   0  0  0  0  0  0  0  0  0  0  0  0
    9.4578   -5.0200   16.3036 N   0  0  0  0  0  0  0  0  0  0  0  0
    5.0287   -8.9365   16.8223 C   0  0  0  0  0  0  0  0  0  0  0  0
    8.7742   -6.1498   16.6764 C   0  0  0  0  0  0  0  0  0  0  0  0
   10.9418   -3.4032   21.2053 O   0  0  0  0  0  0  0  0  0  0  0  0
    1.4797   -8.6258   16.2950 C   0  0  0  0  0  0  0  0  0  0  0  0
    9.2861   -1.2743   25.3585 C   0  0  0  0  0  0  0  0  0  0  0  0
    1.8892  -10.3985   17.7511 N   0  0  0  0  0  0  0  0  0  0  0  0
    9.6210   -0.6952   24.0976 C   0  0  0  0  0  0  0  0  0  0  0  0
    7.0792   -9.0217   17.1429 C   0  0  0  0  0  0  0  0  0  0  0  0
    3.1713  -10.1816   17.6634 C   0  0  0  0  0  0  0  0  0  0  0  0
    2.7878   -8.3822   16.2137 C   0  0  0  0  0  0  0  0  0  0  0  0
    9.4601   -2.6590   25.6528 C   0  0  0  0  0  0  0  0  0  0  0  0
   10.1182   -1.5672   23.1165 C   0  0  0  0  0  0  0  0  0  0  0  0
    1.0552   -9.6360   17.0650 C   0  0  0  0  0  0  0  0  0  0  0  0
    3.6519   -9.1783   16.9039 C   0  0  0  0  0  0  0  0  0  0  0  0
    7.8675   -7.0096   15.9415 C   0  0  0  0  0  0  0  0  0  0  0  0
    5.9733   -9.6553   17.3832 N   0  0  0  0  0  0  0  0  0  0  0  0
   10.2411   -2.9363   23.4301 C   0  0  0  0  0  0  0  0  0  0  0  0
   10.7288   -3.8197   19.9525 C   0  0  0  0  0  0  0  0  0  0  0  0
   10.1189   -5.0054   19.6987 C   0  0  0  0  0  0  0  0  0  0  0  0
  1  3  4  0
  1  7  4  0
  2 21  4  0
  2 27  4  0
  3  9  4  0
  3 10  4  0
  4  8  4  0
  4 18  4  0
  4 25  1  0
  5  9  4  0
  5 12  4  0
  6 13  1  0
  6 27  1  0
  7 28  4  0
  8 11  4  0
  9 29  4  0
 10 12  4  0
 11 24  1  0
 11 26  4  0
 12 25  1  0
 13 28  1  0
 14 20  4  0
 14 23  4  0
 15 17  4  0
 15 21  4  0
 16 19  4  0
 16 23  4  0
 17 22  4  0
 18 26  4  0
 19 24  4  0
 20 24  4  0
 22 27  4  0
 28 29  4  0
M  END
$$$$

 Created by Python create_sdf_string function

 29 33  0  0  0  0  0  0  0  0999 V2000
   10.7215   -3.3326   17.6437 C   0  0  0  0  0  0  0  0  0  0  0  0
    9.9489   -3.4675   24.6487 N   0  0  0  0  0  0  0  0  0  0  0  0
   10.0172   -4.4740   17.4101 C   0  0  0  0  0  0  0  0  0  0  0  0
    6.9051   -7.9575   16.4222 C   0  0  0  0  0  0  0  0  0  0  0  0
    8.9969   -6.3552   17.9668 N   0  0  0  0  0  0  0  0  0  0  0  0
   10.6702   -3.9051   22.4070 C   0  0  0  0  0  0  0  0  0  0  0  0
   11.0625   -3.0028   18.8894 C   0  0  0  0  0  0  0  0  0  0  0  0
    5.6180   -7.9194   16.1754 O   0  0  0  0  0  0  0  0  0  0  0  0
    9.7259   -5.3080   18.4485 C   0  0  0  0  0  0  0  0  0  0  0  0
    9.4578   -5.0200   16.3036 N   0  0  0  0  0  0  0  0  0  0  0  0
    5.0287   -8.9365   16.8223 C   0  0  0  0  0  0  0  0  0  0  0  0
    8.7742   -6.1498   16.6764 C   0  0  0  0  0  0  0  0  0  0  0  0
   10.9418   -3.4032   21.2053 O   0  0  0  0  0  0  0  0  0  0  0  0
    1.4797   -8.6258   16.2950 C   0  0  0  0  0  0  0  0  0  0  0  0
    9.2861   -1.2743   25.3585 C   0  0  0  0  0  0  0  0  0  0  0  0
    1.8892  -10.3985   17.7511 N   0  0  0  0  0  0  0  0  0  0  0  0
    9.6210   -0.6952   24.0976 C   0  0  0  0  0  0  0  0  0  0  0  0
    7.0792   -9.0217   17.1429 C   0  0  0  0  0  0  0  0  0  0  0  0
    3.1713  -10.1816   17.6634 C   0  0  0  0  0  0  0  0  0  0  0  0
    2.7878   -8.3822   16.2137 C   0  0  0  0  0  0  0  0  0  0  0  0
    9.4601   -2.6590   25.6528 C   0  0  0  0  0  0  0  0  0  0  0  0
   10.1182   -1.5672   23.1165 C   0  0  0  0  0  0  0  0  0  0  0  0
    1.0552   -9.6360   17.0650 C   0  0  0  0  0  0  0  0  0  0  0  0
    3.6519   -9.1783   16.9039 C   0  0  0  0  0  0  0  0  0  0  0  0
    7.8675   -7.0096   15.9415 C   0  0  0  0  0  0  0  0  0  0  0  0
    5.9733   -9.6553   17.3832 N   0  0  0  0  0  0  0  0  0  0  0  0
   10.2411   -2.9363   23.4301 C   0  0  0  0  0  0  0  0  0  0  0  0
   10.7288   -3.8197   19.9525 C   0  0  0  0  0  0  0  0  0  0  0  0
   10.1189   -5.0054   19.6987 C   0  0  0  0  0  0  0  0  0  0  0  0
  1  3  4  0
  1  7  4  0
  2 21  4  0
  2 27  4  0
  3  9  4  0
  3 10  4  0
  4  8  4  0
  4 18  4  0
  4 25  1  0
  5  9  4  0
  5 12  4  0
  6 13  1  0
  6 27  1  0
  7 28  4  0
  8 11  4  0
  9 29  4  0
 10 12  4  0
 11 24  1  0
 11 26  4  0
 12 25  1  0
 13 28  1  0
 14 20  4  0
 14 23  4  0
 15 17  4  0
 15 21  4  0
 16 19  4  0
 16 23  4  0
 17 22  4  0
 18 26  4  0
 19 24  4  0
 20 24  4  0
 22 27  4  0
 28 29  4  0
M  END
$$$$

 Created by Python create_sdf_string function

 29 33  0  0  0  0  0  0  0  0999 V2000
   10.7215   -3.3326   17.6437 C   0  0  0  0  0  0  0  0  0  0  0  0
    9.9489   -3.4675   24.6487 N   0  0  0  0  0  0  0  0  0  0  0  0
   10.0172   -4.4740   17.4101 C   0  0  0  0  0  0  0  0  0  0  0  0
    6.9051   -7.9575   16.4222 C   0  0  0  0  0  0  0  0  0  0  0  0
    8.9969   -6.3552   17.9668 N   0  0  0  0  0  0  0  0  0  0  0  0
   10.6702   -3.9051   22.4070 C   0  0  0  0  0  0  0  0  0  0  0  0
   11.0625   -3.0028   18.8894 C   0  0  0  0  0  0  0  0  0  0  0  0
    5.6180   -7.9194   16.1754 O   0  0  0  0  0  0  0  0  0  0  0  0
    9.7259   -5.3080   18.4485 C   0  0  0  0  0  0  0  0  0  0  0  0
    9.4578   -5.0200   16.3036 N   0  0  0  0  0  0  0  0  0  0  0  0
    5.0287   -8.9365   16.8223 C   0  0  0  0  0  0  0  0  0  0  0  0
    8.7742   -6.1498   16.6764 C   0  0  0  0  0  0  0  0  0  0  0  0
   10.9418   -3.4032   21.2053 O   0  0  0  0  0  0  0  0  0  0  0  0
    1.4797   -8.6258   16.2950 C   0  0  0  0  0  0  0  0  0  0  0  0
    9.2861   -1.2743   25.3585 C   0  0  0  0  0  0  0  0  0  0  0  0
    1.8892  -10.3985   17.7511 N   0  0  0  0  0  0  0  0  0  0  0  0
    9.6210   -0.6952   24.0976 C   0  0  0  0  0  0  0  0  0  0  0  0
    7.0792   -9.0217   17.1429 C   0  0  0  0  0  0  0  0  0  0  0  0
    3.1713  -10.1816   17.6634 C   0  0  0  0  0  0  0  0  0  0  0  0
    2.7878   -8.3822   16.2137 C   0  0  0  0  0  0  0  0  0  0  0  0
    9.4601   -2.6590   25.6528 C   0  0  0  0  0  0  0  0  0  0  0  0
   10.1182   -1.5672   23.1165 C   0  0  0  0  0  0  0  0  0  0  0  0
    1.0552   -9.6360   17.0650 C   0  0  0  0  0  0  0  0  0  0  0  0
    3.6519   -9.1783   16.9039 C   0  0  0  0  0  0  0  0  0  0  0  0
    7.8675   -7.0096   15.9415 C   0  0  0  0  0  0  0  0  0  0  0  0
    5.9733   -9.6553   17.3832 N   0  0  0  0  0  0  0  0  0  0  0  0
   10.2411   -2.9363   23.4301 C   0  0  0  0  0  0  0  0  0  0  0  0
   10.7288   -3.8197   19.9525 C   0  0  0  0  0  0  0  0  0  0  0  0
   10.1189   -5.0054   19.6987 C   0  0  0  0  0  0  0  0  0  0  0  0
  1  3  4  0
  1  7  4  0
  2 21  4  0
  2 27  4  0
  3  9  4  0
  3 10  4  0
  4  8  4  0
  4 18  4  0
  4 25  1  0
  5  9  4  0
  5 12  4  0
  6 13  1  0
  6 27  1  0
  7 28  4  0
  8 11  4  0
  9 29  4  0
 10 12  4  0
 11 24  1  0
 11 26  4  0
 12 25  1  0
 13 28  1  0
 14 20  4  0
 14 23  4  0
 15 17  4  0
 15 21  4  0
 16 19  4  0
 16 23  4  0
 17 22  4  0
 18 26  4  0
 19 24  4  0
 20 24  4  0
 22 27  4  0
 28 29  4  0
M  END
$$$$

 Created by Python create_sdf_string function

 29 33  0  0  0  0  0  0  0  0999 V2000
   10.7215   -3.3326   17.6437 C   0  0  0  0  0  0  0  0  0  0  0  0
    9.9489   -3.4675   24.6487 N   0  0  0  0  0  0  0  0  0  0  0  0
   10.0172   -4.4740   17.4101 C   0  0  0  0  0  0  0  0  0  0  0  0
    6.9051   -7.9575   16.4222 C   0  0  0  0  0  0  0  0  0  0  0  0
    8.9969   -6.3552   17.9668 N   0  0  0  0  0  0  0  0  0  0  0  0
   10.6702   -3.9051   22.4070 C   0  0  0  0  0  0  0  0  0  0  0  0
   11.0625   -3.0028   18.8894 C   0  0  0  0  0  0  0  0  0  0  0  0
    5.6180   -7.9194   16.1754 O   0  0  0  0  0  0  0  0  0  0  0  0
    9.7259   -5.3080   18.4485 C   0  0  0  0  0  0  0  0  0  0  0  0
    9.4578   -5.0200   16.3036 N   0  0  0  0  0  0  0  0  0  0  0  0
    5.0287   -8.9365   16.8223 C   0  0  0  0  0  0  0  0  0  0  0  0
    8.7742   -6.1498   16.6764 C   0  0  0  0  0  0  0  0  0  0  0  0
   10.9418   -3.4032   21.2053 O   0  0  0  0  0  0  0  0  0  0  0  0
    1.4797   -8.6258   16.2950 C   0  0  0  0  0  0  0  0  0  0  0  0
    9.2861   -1.2743   25.3585 C   0  0  0  0  0  0  0  0  0  0  0  0
    1.8892  -10.3985   17.7511 N   0  0  0  0  0  0  0  0  0  0  0  0
    9.6210   -0.6952   24.0976 C   0  0  0  0  0  0  0  0  0  0  0  0
    7.0792   -9.0217   17.1429 C   0  0  0  0  0  0  0  0  0  0  0  0
    3.1713  -10.1816   17.6634 C   0  0  0  0  0  0  0  0  0  0  0  0
    2.7878   -8.3822   16.2137 C   0  0  0  0  0  0  0  0  0  0  0  0
    9.4601   -2.6590   25.6528 C   0  0  0  0  0  0  0  0  0  0  0  0
   10.1182   -1.5672   23.1165 C   0  0  0  0  0  0  0  0  0  0  0  0
    1.0552   -9.6360   17.0650 C   0  0  0  0  0  0  0  0  0  0  0  0
    3.6519   -9.1783   16.9039 C   0  0  0  0  0  0  0  0  0  0  0  0
    7.8675   -7.0096   15.9415 C   0  0  0  0  0  0  0  0  0  0  0  0
    5.9733   -9.6553   17.3832 N   0  0  0  0  0  0  0  0  0  0  0  0
   10.2411   -2.9363   23.4301 C   0  0  0  0  0  0  0  0  0  0  0  0
   10.7288   -3.8197   19.9525 C   0  0  0  0  0  0  0  0  0  0  0  0
   10.1189   -5.0054   19.6987 C   0  0  0  0  0  0  0  0  0  0  0  0
  1  3  4  0
  1  7  4  0
  2 21  4  0
  2 27  4  0
  3  9  4  0
  3 10  4  0
  4  8  4  0
  4 18  4  0
  4 25  1  0
  5  9  4  0
  5 12  4  0
  6 13  1  0
  6 27  1  0
  7 28  4  0
  8 11  4  0
  9 29  4  0
 10 12  4  0
 11 24  1  0
 11 26  4  0
 12 25  1  0
 13 28  1  0
 14 20  4  0
 14 23  4  0
 15 17  4  0
 15 21  4  0
 16 19  4  0
 16 23  4  0
 17 22  4  0
 18 26  4  0
 19 24  4  0
 20 24  4  0
 22 27  4  0
 28 29  4  0
M  END
$$$$

 Created by Python create_sdf_string function

 29 33  0  0  0  0  0  0  0  0999 V2000
   10.7215   -3.3326   17.6437 C   0  0  0  0  0  0  0  0  0  0  0  0
    9.9489   -3.4675   24.6487 N   0  0  0  0  0  0  0  0  0  0  0  0
   10.0172   -4.4740   17.4101 C   0  0  0  0  0  0  0  0  0  0  0  0
    6.9051   -7.9575   16.4222 C   0  0  0  0  0  0  0  0  0  0  0  0
    8.9969   -6.3552   17.9668 N   0  0  0  0  0  0  0  0  0  0  0  0
   10.6702   -3.9051   22.4070 C   0  0  0  0  0  0  0  0  0  0  0  0
   11.0625   -3.0028   18.8894 C   0  0  0  0  0  0  0  0  0  0  0  0
    5.6180   -7.9194   16.1754 O   0  0  0  0  0  0  0  0  0  0  0  0
    9.7259   -5.3080   18.4485 C   0  0  0  0  0  0  0  0  0  0  0  0
    9.4578   -5.0200   16.3036 N   0  0  0  0  0  0  0  0  0  0  0  0
    5.0287   -8.9365   16.8223 C   0  0  0  0  0  0  0  0  0  0  0  0
    8.7742   -6.1498   16.6764 C   0  0  0  0  0  0  0  0  0  0  0  0
   10.9418   -3.4032   21.2053 O   0  0  0  0  0  0  0  0  0  0  0  0
    1.4797   -8.6258   16.2950 C   0  0  0  0  0  0  0  0  0  0  0  0
    9.2861   -1.2743   25.3585 C   0  0  0  0  0  0  0  0  0  0  0  0
    1.8892  -10.3985   17.7511 N   0  0  0  0  0  0  0  0  0  0  0  0
    9.6210   -0.6952   24.0976 C   0  0  0  0  0  0  0  0  0  0  0  0
    7.0792   -9.0217   17.1429 C   0  0  0  0  0  0  0  0  0  0  0  0
    3.1713  -10.1816   17.6634 C   0  0  0  0  0  0  0  0  0  0  0  0
    2.7878   -8.3822   16.2137 C   0  0  0  0  0  0  0  0  0  0  0  0
    9.4601   -2.6590   25.6528 C   0  0  0  0  0  0  0  0  0  0  0  0
   10.1182   -1.5672   23.1165 C   0  0  0  0  0  0  0  0  0  0  0  0
    1.0552   -9.6360   17.0650 C   0  0  0  0  0  0  0  0  0  0  0  0
    3.6519   -9.1783   16.9039 C   0  0  0  0  0  0  0  0  0  0  0  0
    7.8675   -7.0096   15.9415 C   0  0  0  0  0  0  0  0  0  0  0  0
    5.9733   -9.6553   17.3832 N   0  0  0  0  0  0  0  0  0  0  0  0
   10.2411   -2.9363   23.4301 C   0  0  0  0  0  0  0  0  0  0  0  0
   10.7288   -3.8197   19.9525 C   0  0  0  0  0  0  0  0  0  0  0  0
   10.1189   -5.0054   19.6987 C   0  0  0  0  0  0  0  0  0  0  0  0
  1  3  4  0
  1  7  4  0
  2 21  4  0
  2 27  4  0
  3  9  4  0
  3 10  4  0
  4  8  4  0
  4 18  4  0
  4 25  1  0
  5  9  4  0
  5 12  4  0
  6 13  1  0
  6 27  1  0
  7 28  4  0
  8 11  4  0
  9 29  4  0
 10 12  4  0
 11 24  1  0
 11 26  4  0
 12 25  1  0
 13 28  1  0
 14 20  4  0
 14 23  4  0
 15 17  4  0
 15 21  4  0
 16 19  4  0
 16 23  4  0
 17 22  4  0
 18 26  4  0
 19 24  4  0
 20 24  4  0
 22 27  4  0
 28 29  4  0
M  END
$$$$

 Created by Python create_sdf_string function

 29 33  0  0  0  0  0  0  0  0999 V2000
   10.7215   -3.3326   17.6437 C   0  0  0  0  0  0  0  0  0  0  0  0
    9.9489   -3.4675   24.6487 N   0  0  0  0  0  0  0  0  0  0  0  0
   10.0172   -4.4740   17.4101 C   0  0  0  0  0  0  0  0  0  0  0  0
    6.9051   -7.9575   16.4222 C   0  0  0  0  0  0  0  0  0  0  0  0
    8.9969   -6.3552   17.9668 N   0  0  0  0  0  0  0  0  0  0  0  0
   10.6702   -3.9051   22.4070 C   0  0  0  0  0  0  0  0  0  0  0  0
   11.0625   -3.0028   18.8894 C   0  0  0  0  0  0  0  0  0  0  0  0
    5.6180   -7.9194   16.1754 O   0  0  0  0  0  0  0  0  0  0  0  0
    9.7259   -5.3080   18.4485 C   0  0  0  0  0  0  0  0  0  0  0  0
    9.4578   -5.0200   16.3036 N   0  0  0  0  0  0  0  0  0  0  0  0
    5.0287   -8.9365   16.8223 C   0  0  0  0  0  0  0  0  0  0  0  0
    8.7742   -6.1498   16.6764 C   0  0  0  0  0  0  0  0  0  0  0  0
   10.9418   -3.4032   21.2053 O   0  0  0  0  0  0  0  0  0  0  0  0
    1.4797   -8.6258   16.2950 C   0  0  0  0  0  0  0  0  0  0  0  0
    9.2861   -1.2743   25.3585 C   0  0  0  0  0  0  0  0  0  0  0  0
    1.8892  -10.3985   17.7511 N   0  0  0  0  0  0  0  0  0  0  0  0
    9.6210   -0.6952   24.0976 C   0  0  0  0  0  0  0  0  0  0  0  0
    7.0792   -9.0217   17.1429 C   0  0  0  0  0  0  0  0  0  0  0  0
    3.1713  -10.1816   17.6634 C   0  0  0  0  0  0  0  0  0  0  0  0
    2.7878   -8.3822   16.2137 C   0  0  0  0  0  0  0  0  0  0  0  0
    9.4601   -2.6590   25.6528 C   0  0  0  0  0  0  0  0  0  0  0  0
   10.1182   -1.5672   23.1165 C   0  0  0  0  0  0  0  0  0  0  0  0
    1.0552   -9.6360   17.0650 C   0  0  0  0  0  0  0  0  0  0  0  0
    3.6519   -9.1783   16.9039 C   0  0  0  0  0  0  0  0  0  0  0  0
    7.8675   -7.0096   15.9415 C   0  0  0  0  0  0  0  0  0  0  0  0
    5.9733   -9.6553   17.3832 N   0  0  0  0  0  0  0  0  0  0  0  0
   10.2411   -2.9363   23.4301 C   0  0  0  0  0  0  0  0  0  0  0  0
   10.7288   -3.8197   19.9525 C   0  0  0  0  0  0  0  0  0  0  0  0
   10.1189   -5.0054   19.6987 C   0  0  0  0  0  0  0  0  0  0  0  0
  1  3  4  0
  1  7  4  0
  2 21  4  0
  2 27  4  0
  3  9  4  0
  3 10  4  0
  4  8  4  0
  4 18  4  0
  4 25  1  0
  5  9  4  0
  5 12  4  0
  6 13  1  0
  6 27  1  0
  7 28  4  0
  8 11  4  0
  9 29  4  0
 10 12  4  0
 11 24  1  0
 11 26  4  0
 12 25  1  0
 13 28  1  0
 14 20  4  0
 14 23  4  0
 15 17  4  0
 15 21  4  0
 16 19  4  0
 16 23  4  0
 17 22  4  0
 18 26  4  0
 19 24  4  0
 20 24  4  0
 22 27  4  0
 28 29  4  0
M  END
$$$$

 Created by Python create_sdf_string function

 29 33  0  0  0  0  0  0  0  0999 V2000
   10.7215   -3.3326   17.6437 C   0  0  0  0  0  0  0  0  0  0  0  0
    9.9489   -3.4675   24.6487 N   0  0  0  0  0  0  0  0  0  0  0  0
   10.0172   -4.4740   17.4101 C   0  0  0  0  0  0  0  0  0  0  0  0
    6.9051   -7.9575   16.4222 C   0  0  0  0  0  0  0  0  0  0  0  0
    8.9969   -6.3552   17.9668 N   0  0  0  0  0  0  0  0  0  0  0  0
   10.6702   -3.9051   22.4070 C   0  0  0  0  0  0  0  0  0  0  0  0
   11.0625   -3.0028   18.8894 C   0  0  0  0  0  0  0  0  0  0  0  0
    5.6180   -7.9194   16.1754 O   0  0  0  0  0  0  0  0  0  0  0  0
    9.7259   -5.3080   18.4485 C   0  0  0  0  0  0  0  0  0  0  0  0
    9.4578   -5.0200   16.3036 N   0  0  0  0  0  0  0  0  0  0  0  0
    5.0287   -8.9365   16.8223 C   0  0  0  0  0  0  0  0  0  0  0  0
    8.7742   -6.1498   16.6764 C   0  0  0  0  0  0  0  0  0  0  0  0
   10.9418   -3.4032   21.2053 O   0  0  0  0  0  0  0  0  0  0  0  0
    1.4797   -8.6258   16.2950 C   0  0  0  0  0  0  0  0  0  0  0  0
    9.2861   -1.2743   25.3585 C   0  0  0  0  0  0  0  0  0  0  0  0
    1.8892  -10.3985   17.7511 N   0  0  0  0  0  0  0  0  0  0  0  0
    9.6210   -0.6952   24.0976 C   0  0  0  0  0  0  0  0  0  0  0  0
    7.0792   -9.0217   17.1429 C   0  0  0  0  0  0  0  0  0  0  0  0
    3.1713  -10.1816   17.6634 C   0  0  0  0  0  0  0  0  0  0  0  0
    2.7878   -8.3822   16.2137 C   0  0  0  0  0  0  0  0  0  0  0  0
    9.4601   -2.6590   25.6528 C   0  0  0  0  0  0  0  0  0  0  0  0
   10.1182   -1.5672   23.1165 C   0  0  0  0  0  0  0  0  0  0  0  0
    1.0552   -9.6360   17.0650 C   0  0  0  0  0  0  0  0  0  0  0  0
    3.6519   -9.1783   16.9039 C   0  0  0  0  0  0  0  0  0  0  0  0
    7.8675   -7.0096   15.9415 C   0  0  0  0  0  0  0  0  0  0  0  0
    5.9733   -9.6553   17.3832 N   0  0  0  0  0  0  0  0  0  0  0  0
   10.2411   -2.9363   23.4301 C   0  0  0  0  0  0  0  0  0  0  0  0
   10.7288   -3.8197   19.9525 C   0  0  0  0  0  0  0  0  0  0  0  0
   10.1189   -5.0054   19.6987 C   0  0  0  0  0  0  0  0  0  0  0  0
  1  3  4  0
  1  7  4  0
  2 21  4  0
  2 27  4  0
  3  9  4  0
  3 10  4  0
  4  8  4  0
  4 18  4  0
  4 25  1  0
  5  9  4  0
  5 12  4  0
  6 13  1  0
  6 27  1  0
  7 28  4  0
  8 11  4  0
  9 29  4  0
 10 12  4  0
 11 24  1  0
 11 26  4  0
 12 25  1  0
 13 28  1  0
 14 20  4  0
 14 23  4  0
 15 17  4  0
 15 21  4  0
 16 19  4  0
 16 23  4  0
 17 22  4  0
 18 26  4  0
 19 24  4  0
 20 24  4  0
 22 27  4  0
 28 29  4  0
M  END
$$$$

 Created by Python create_sdf_string function

 29 33  0  0  0  0  0  0  0  0999 V2000
   10.7215   -3.3326   17.6437 C   0  0  0  0  0  0  0  0  0  0  0  0
    9.9489   -3.4675   24.6487 N   0  0  0  0  0  0  0  0  0  0  0  0
   10.0172   -4.4740   17.4101 C   0  0  0  0  0  0  0  0  0  0  0  0
    6.9051   -7.9575   16.4222 C   0  0  0  0  0  0  0  0  0  0  0  0
    8.9969   -6.3552   17.9668 N   0  0  0  0  0  0  0  0  0  0  0  0
   10.6702   -3.9051   22.4070 C   0  0  0  0  0  0  0  0  0  0  0  0
   11.0625   -3.0028   18.8894 C   0  0  0  0  0  0  0  0  0  0  0  0
    5.6180   -7.9194   16.1754 O   0  0  0  0  0  0  0  0  0  0  0  0
    9.7259   -5.3080   18.4485 C   0  0  0  0  0  0  0  0  0  0  0  0
    9.4578   -5.0200   16.3036 N   0  0  0  0  0  0  0  0  0  0  0  0
    5.0287   -8.9365   16.8223 C   0  0  0  0  0  0  0  0  0  0  0  0
    8.7742   -6.1498   16.6764 C   0  0  0  0  0  0  0  0  0  0  0  0
   10.9418   -3.4032   21.2053 O   0  0  0  0  0  0  0  0  0  0  0  0
    1.4797   -8.6258   16.2950 C   0  0  0  0  0  0  0  0  0  0  0  0
    9.2861   -1.2743   25.3585 C   0  0  0  0  0  0  0  0  0  0  0  0
    1.8892  -10.3985   17.7511 N   0  0  0  0  0  0  0  0  0  0  0  0
    9.6210   -0.6952   24.0976 C   0  0  0  0  0  0  0  0  0  0  0  0
    7.0792   -9.0217   17.1429 C   0  0  0  0  0  0  0  0  0  0  0  0
    3.1713  -10.1816   17.6634 C   0  0  0  0  0  0  0  0  0  0  0  0
    2.7878   -8.3822   16.2137 C   0  0  0  0  0  0  0  0  0  0  0  0
    9.4601   -2.6590   25.6528 C   0  0  0  0  0  0  0  0  0  0  0  0
   10.1182   -1.5672   23.1165 C   0  0  0  0  0  0  0  0  0  0  0  0
    1.0552   -9.6360   17.0650 C   0  0  0  0  0  0  0  0  0  0  0  0
    3.6519   -9.1783   16.9039 C   0  0  0  0  0  0  0  0  0  0  0  0
    7.8675   -7.0096   15.9415 C   0  0  0  0  0  0  0  0  0  0  0  0
    5.9733   -9.6553   17.3832 N   0  0  0  0  0  0  0  0  0  0  0  0
   10.2411   -2.9363   23.4301 C   0  0  0  0  0  0  0  0  0  0  0  0
   10.7288   -3.8197   19.9525 C   0  0  0  0  0  0  0  0  0  0  0  0
   10.1189   -5.0054   19.6987 C   0  0  0  0  0  0  0  0  0  0  0  0
  1  3  4  0
  1  7  4  0
  2 21  4  0
  2 27  4  0
  3  9  4  0
  3 10  4  0
  4  8  4  0
  4 18  4  0
  4 25  1  0
  5  9  4  0
  5 12  4  0
  6 13  1  0
  6 27  1  0
  7 28  4  0
  8 11  4  0
  9 29  4  0
 10 12  4  0
 11 24  1  0
 11 26  4  0
 12 25  1  0
 13 28  1  0
 14 20  4  0
 14 23  4  0
 15 17  4  0
 15 21  4  0
 16 19  4  0
 16 23  4  0
 17 22  4  0
 18 26  4  0
 19 24  4  0
 20 24  4  0
 22 27  4  0
 28 29  4  0
M  END
$$$$

 Created by Python create_sdf_string function

 29 33  0  0  0  0  0  0  0  0999 V2000
   10.7215   -3.3326   17.6437 C   0  0  0  0  0  0  0  0  0  0  0  0
    9.9489   -3.4675   24.6487 N   0  0  0  0  0  0  0  0  0  0  0  0
   10.0172   -4.4740   17.4101 C   0  0  0  0  0  0  0  0  0  0  0  0
    6.9051   -7.9575   16.4222 C   0  0  0  0  0  0  0  0  0  0  0  0
    8.9969   -6.3552   17.9668 N   0  0  0  0  0  0  0  0  0  0  0  0
   10.6702   -3.9051   22.4070 C   0  0  0  0  0  0  0  0  0  0  0  0
   11.0625   -3.0028   18.8894 C   0  0  0  0  0  0  0  0  0  0  0  0
    5.6180   -7.9194   16.1754 O   0  0  0  0  0  0  0  0  0  0  0  0
    9.7259   -5.3080   18.4485 C   0  0  0  0  0  0  0  0  0  0  0  0
    9.4578   -5.0200   16.3036 N   0  0  0  0  0  0  0  0  0  0  0  0
    5.0287   -8.9365   16.8223 C   0  0  0  0  0  0  0  0  0  0  0  0
    8.7742   -6.1498   16.6764 C   0  0  0  0  0  0  0  0  0  0  0  0
   10.9418   -3.4032   21.2053 O   0  0  0  0  0  0  0  0  0  0  0  0
    1.4797   -8.6258   16.2950 C   0  0  0  0  0  0  0  0  0  0  0  0
    9.2861   -1.2743   25.3585 C   0  0  0  0  0  0  0  0  0  0  0  0
    1.8892  -10.3985   17.7511 N   0  0  0  0  0  0  0  0  0  0  0  0
    9.6210   -0.6952   24.0976 C   0  0  0  0  0  0  0  0  0  0  0  0
    7.0792   -9.0217   17.1429 C   0  0  0  0  0  0  0  0  0  0  0  0
    3.1713  -10.1816   17.6634 C   0  0  0  0  0  0  0  0  0  0  0  0
    2.7878   -8.3822   16.2137 C   0  0  0  0  0  0  0  0  0  0  0  0
    9.4601   -2.6590   25.6528 C   0  0  0  0  0  0  0  0  0  0  0  0
   10.1182   -1.5672   23.1165 C   0  0  0  0  0  0  0  0  0  0  0  0
    1.0552   -9.6360   17.0650 C   0  0  0  0  0  0  0  0  0  0  0  0
    3.6519   -9.1783   16.9039 C   0  0  0  0  0  0  0  0  0  0  0  0
    7.8675   -7.0096   15.9415 C   0  0  0  0  0  0  0  0  0  0  0  0
    5.9733   -9.6553   17.3832 N   0  0  0  0  0  0  0  0  0  0  0  0
   10.2411   -2.9363   23.4301 C   0  0  0  0  0  0  0  0  0  0  0  0
   10.7288   -3.8197   19.9525 C   0  0  0  0  0  0  0  0  0  0  0  0
   10.1189   -5.0054   19.6987 C   0  0  0  0  0  0  0  0  0  0  0  0
  1  3  4  0
  1  7  4  0
  2 21  4  0
  2 27  4  0
  3  9  4  0
  3 10  4  0
  4  8  4  0
  4 18  4  0
  4 25  1  0
  5  9  4  0
  5 12  4  0
  6 13  1  0
  6 27  1  0
  7 28  4  0
  8 11  4  0
  9 29  4  0
 10 12  4  0
 11 24  1  0
 11 26  4  0
 12 25  1  0
 13 28  1  0
 14 20  4  0
 14 23  4  0
 15 17  4  0
 15 21  4  0
 16 19  4  0
 16 23  4  0
 17 22  4  0
 18 26  4  0
 19 24  4  0
 20 24  4  0
 22 27  4  0
 28 29  4  0
M  END
$$$$

 Created by Python create_sdf_string function

 29 33  0  0  0  0  0  0  0  0999 V2000
   10.7215   -3.3326   17.6437 C   0  0  0  0  0  0  0  0  0  0  0  0
    9.9489   -3.4675   24.6487 N   0  0  0  0  0  0  0  0  0  0  0  0
   10.0172   -4.4740   17.4101 C   0  0  0  0  0  0  0  0  0  0  0  0
    6.9051   -7.9575   16.4222 C   0  0  0  0  0  0  0  0  0  0  0  0
    8.9969   -6.3552   17.9668 N   0  0  0  0  0  0  0  0  0  0  0  0
   10.6702   -3.9051   22.4070 C   0  0  0  0  0  0  0  0  0  0  0  0
   11.0625   -3.0028   18.8894 C   0  0  0  0  0  0  0  0  0  0  0  0
    5.6180   -7.9194   16.1754 O   0  0  0  0  0  0  0  0  0  0  0  0
    9.7259   -5.3080   18.4485 C   0  0  0  0  0  0  0  0  0  0  0  0
    9.4578   -5.0200   16.3036 N   0  0  0  0  0  0  0  0  0  0  0  0
    5.0287   -8.9365   16.8223 C   0  0  0  0  0  0  0  0  0  0  0  0
    8.7742   -6.1498   16.6764 C   0  0  0  0  0  0  0  0  0  0  0  0
   10.9418   -3.4032   21.2053 O   0  0  0  0  0  0  0  0  0  0  0  0
    1.4797   -8.6258   16.2950 C   0  0  0  0  0  0  0  0  0  0  0  0
    9.2861   -1.2743   25.3585 C   0  0  0  0  0  0  0  0  0  0  0  0
    1.8892  -10.3985   17.7511 N   0  0  0  0  0  0  0  0  0  0  0  0
    9.6210   -0.6952   24.0976 C   0  0  0  0  0  0  0  0  0  0  0  0
    7.0792   -9.0217   17.1429 C   0  0  0  0  0  0  0  0  0  0  0  0
    3.1713  -10.1816   17.6634 C   0  0  0  0  0  0  0  0  0  0  0  0
    2.7878   -8.3822   16.2137 C   0  0  0  0  0  0  0  0  0  0  0  0
    9.4601   -2.6590   25.6528 C   0  0  0  0  0  0  0  0  0  0  0  0
   10.1182   -1.5672   23.1165 C   0  0  0  0  0  0  0  0  0  0  0  0
    1.0552   -9.6360   17.0650 C   0  0  0  0  0  0  0  0  0  0  0  0
    3.6519   -9.1783   16.9039 C   0  0  0  0  0  0  0  0  0  0  0  0
    7.8675   -7.0096   15.9415 C   0  0  0  0  0  0  0  0  0  0  0  0
    5.9733   -9.6553   17.3832 N   0  0  0  0  0  0  0  0  0  0  0  0
   10.2411   -2.9363   23.4301 C   0  0  0  0  0  0  0  0  0  0  0  0
   10.7288   -3.8197   19.9525 C   0  0  0  0  0  0  0  0  0  0  0  0
   10.1189   -5.0054   19.6987 C   0  0  0  0  0  0  0  0  0  0  0  0
  1  3  4  0
  1  7  4  0
  2 21  4  0
  2 27  4  0
  3  9  4  0
  3 10  4  0
  4  8  4  0
  4 18  4  0
  4 25  1  0
  5  9  4  0
  5 12  4  0
  6 13  1  0
  6 27  1  0
  7 28  4  0
  8 11  4  0
  9 29  4  0
 10 12  4  0
 11 24  1  0
 11 26  4  0
 12 25  1  0
 13 28  1  0
 14 20  4  0
 14 23  4  0
 15 17  4  0
 15 21  4  0
 16 19  4  0
 16 23  4  0
 17 22  4  0
 18 26  4  0
 19 24  4  0
 20 24  4  0
 22 27  4  0
 28 29  4  0
M  END
$$$$

 Created by Python create_sdf_string function

 29 33  0  0  0  0  0  0  0  0999 V2000
   10.7215   -3.3326   17.6437 C   0  0  0  0  0  0  0  0  0  0  0  0
    9.9489   -3.4675   24.6487 N   0  0  0  0  0  0  0  0  0  0  0  0
   10.0172   -4.4740   17.4101 C   0  0  0  0  0  0  0  0  0  0  0  0
    6.9051   -7.9575   16.4222 C   0  0  0  0  0  0  0  0  0  0  0  0
    8.9969   -6.3552   17.9668 N   0  0  0  0  0  0  0  0  0  0  0  0
   10.6702   -3.9051   22.4070 C   0  0  0  0  0  0  0  0  0  0  0  0
   11.0625   -3.0028   18.8894 C   0  0  0  0  0  0  0  0  0  0  0  0
    5.6180   -7.9194   16.1754 O   0  0  0  0  0  0  0  0  0  0  0  0
    9.7259   -5.3080   18.4485 C   0  0  0  0  0  0  0  0  0  0  0  0
    9.4578   -5.0200   16.3036 N   0  0  0  0  0  0  0  0  0  0  0  0
    5.0287   -8.9365   16.8223 C   0  0  0  0  0  0  0  0  0  0  0  0
    8.7742   -6.1498   16.6764 C   0  0  0  0  0  0  0  0  0  0  0  0
   10.9418   -3.4032   21.2053 O   0  0  0  0  0  0  0  0  0  0  0  0
    1.4797   -8.6258   16.2950 C   0  0  0  0  0  0  0  0  0  0  0  0
    9.2861   -1.2743   25.3585 C   0  0  0  0  0  0  0  0  0  0  0  0
    1.8892  -10.3985   17.7511 N   0  0  0  0  0  0  0  0  0  0  0  0
    9.6210   -0.6952   24.0976 C   0  0  0  0  0  0  0  0  0  0  0  0
    7.0792   -9.0217   17.1429 C   0  0  0  0  0  0  0  0  0  0  0  0
    3.1713  -10.1816   17.6634 C   0  0  0  0  0  0  0  0  0  0  0  0
    2.7878   -8.3822   16.2137 C   0  0  0  0  0  0  0  0  0  0  0  0
    9.4601   -2.6590   25.6528 C   0  0  0  0  0  0  0  0  0  0  0  0
   10.1182   -1.5672   23.1165 C   0  0  0  0  0  0  0  0  0  0  0  0
    1.0552   -9.6360   17.0650 C   0  0  0  0  0  0  0  0  0  0  0  0
    3.6519   -9.1783   16.9039 C   0  0  0  0  0  0  0  0  0  0  0  0
    7.8675   -7.0096   15.9415 C   0  0  0  0  0  0  0  0  0  0  0  0
    5.9733   -9.6553   17.3832 N   0  0  0  0  0  0  0  0  0  0  0  0
   10.2411   -2.9363   23.4301 C   0  0  0  0  0  0  0  0  0  0  0  0
   10.7288   -3.8197   19.9525 C   0  0  0  0  0  0  0  0  0  0  0  0
   10.1189   -5.0054   19.6987 C   0  0  0  0  0  0  0  0  0  0  0  0
  1  3  4  0
  1  7  4  0
  2 21  4  0
  2 27  4  0
  3  9  4  0
  3 10  4  0
  4  8  4  0
  4 18  4  0
  4 25  1  0
  5  9  4  0
  5 12  4  0
  6 13  1  0
  6 27  1  0
  7 28  4  0
  8 11  4  0
  9 29  4  0
 10 12  4  0
 11 24  1  0
 11 26  4  0
 12 25  1  0
 13 28  1  0
 14 20  4  0
 14 23  4  0
 15 17  4  0
 15 21  4  0
 16 19  4  0
 16 23  4  0
 17 22  4  0
 18 26  4  0
 19 24  4  0
 20 24  4  0
 22 27  4  0
 28 29  4  0
M  END
$$$$

 Created by Python create_sdf_string function

 29 33  0  0  0  0  0  0  0  0999 V2000
   10.7215   -3.3326   17.6437 C   0  0  0  0  0  0  0  0  0  0  0  0
    9.9489   -3.4675   24.6487 N   0  0  0  0  0  0  0  0  0  0  0  0
   10.0172   -4.4740   17.4101 C   0  0  0  0  0  0  0  0  0  0  0  0
    6.9051   -7.9575   16.4222 C   0  0  0  0  0  0  0  0  0  0  0  0
    8.9969   -6.3552   17.9668 N   0  0  0  0  0  0  0  0  0  0  0  0
   10.6702   -3.9051   22.4070 C   0  0  0  0  0  0  0  0  0  0  0  0
   11.0625   -3.0028   18.8894 C   0  0  0  0  0  0  0  0  0  0  0  0
    5.6180   -7.9194   16.1754 O   0  0  0  0  0  0  0  0  0  0  0  0
    9.7259   -5.3080   18.4485 C   0  0  0  0  0  0  0  0  0  0  0  0
    9.4578   -5.0200   16.3036 N   0  0  0  0  0  0  0  0  0  0  0  0
    5.0287   -8.9365   16.8223 C   0  0  0  0  0  0  0  0  0  0  0  0
    8.7742   -6.1498   16.6764 C   0  0  0  0  0  0  0  0  0  0  0  0
   10.9418   -3.4032   21.2053 O   0  0  0  0  0  0  0  0  0  0  0  0
    1.4797   -8.6258   16.2950 C   0  0  0  0  0  0  0  0  0  0  0  0
    9.2861   -1.2743   25.3585 C   0  0  0  0  0  0  0  0  0  0  0  0
    1.8892  -10.3985   17.7511 N   0  0  0  0  0  0  0  0  0  0  0  0
    9.6210   -0.6952   24.0976 C   0  0  0  0  0  0  0  0  0  0  0  0
    7.0792   -9.0217   17.1429 C   0  0  0  0  0  0  0  0  0  0  0  0
    3.1713  -10.1816   17.6634 C   0  0  0  0  0  0  0  0  0  0  0  0
    2.7878   -8.3822   16.2137 C   0  0  0  0  0  0  0  0  0  0  0  0
    9.4601   -2.6590   25.6528 C   0  0  0  0  0  0  0  0  0  0  0  0
   10.1182   -1.5672   23.1165 C   0  0  0  0  0  0  0  0  0  0  0  0
    1.0552   -9.6360   17.0650 C   0  0  0  0  0  0  0  0  0  0  0  0
    3.6519   -9.1783   16.9039 C   0  0  0  0  0  0  0  0  0  0  0  0
    7.8675   -7.0096   15.9415 C   0  0  0  0  0  0  0  0  0  0  0  0
    5.9733   -9.6553   17.3832 N   0  0  0  0  0  0  0  0  0  0  0  0
   10.2411   -2.9363   23.4301 C   0  0  0  0  0  0  0  0  0  0  0  0
   10.7288   -3.8197   19.9525 C   0  0  0  0  0  0  0  0  0  0  0  0
   10.1189   -5.0054   19.6987 C   0  0  0  0  0  0  0  0  0  0  0  0
  1  3  4  0
  1  7  4  0
  2 21  4  0
  2 27  4  0
  3  9  4  0
  3 10  4  0
  4  8  4  0
  4 18  4  0
  4 25  1  0
  5  9  4  0
  5 12  4  0
  6 13  1  0
  6 27  1  0
  7 28  4  0
  8 11  4  0
  9 29  4  0
 10 12  4  0
 11 24  1  0
 11 26  4  0
 12 25  1  0
 13 28  1  0
 14 20  4  0
 14 23  4  0
 15 17  4  0
 15 21  4  0
 16 19  4  0
 16 23  4  0
 17 22  4  0
 18 26  4  0
 19 24  4  0
 20 24  4  0
 22 27  4  0
 28 29  4  0
M  END
$$$$

 Created by Python create_sdf_string function

 29 33  0  0  0  0  0  0  0  0999 V2000
   10.7215   -3.3326   17.6437 C   0  0  0  0  0  0  0  0  0  0  0  0
    9.9489   -3.4675   24.6487 N   0  0  0  0  0  0  0  0  0  0  0  0
   10.0172   -4.4740   17.4101 C   0  0  0  0  0  0  0  0  0  0  0  0
    6.9051   -7.9575   16.4222 C   0  0  0  0  0  0  0  0  0  0  0  0
    8.9969   -6.3552   17.9668 N   0  0  0  0  0  0  0  0  0  0  0  0
   10.6702   -3.9051   22.4070 C   0  0  0  0  0  0  0  0  0  0  0  0
   11.0625   -3.0028   18.8894 C   0  0  0  0  0  0  0  0  0  0  0  0
    5.6180   -7.9194   16.1754 O   0  0  0  0  0  0  0  0  0  0  0  0
    9.7259   -5.3080   18.4485 C   0  0  0  0  0  0  0  0  0  0  0  0
    9.4578   -5.0200   16.3036 N   0  0  0  0  0  0  0  0  0  0  0  0
    5.0287   -8.9365   16.8223 C   0  0  0  0  0  0  0  0  0  0  0  0
    8.7742   -6.1498   16.6764 C   0  0  0  0  0  0  0  0  0  0  0  0
   10.9418   -3.4032   21.2053 O   0  0  0  0  0  0  0  0  0  0  0  0
    1.4797   -8.6258   16.2950 C   0  0  0  0  0  0  0  0  0  0  0  0
    9.2861   -1.2743   25.3585 C   0  0  0  0  0  0  0  0  0  0  0  0
    1.8892  -10.3985   17.7511 N   0  0  0  0  0  0  0  0  0  0  0  0
    9.6210   -0.6952   24.0976 C   0  0  0  0  0  0  0  0  0  0  0  0
    7.0792   -9.0217   17.1429 C   0  0  0  0  0  0  0  0  0  0  0  0
    3.1713  -10.1816   17.6634 C   0  0  0  0  0  0  0  0  0  0  0  0
    2.7878   -8.3822   16.2137 C   0  0  0  0  0  0  0  0  0  0  0  0
    9.4601   -2.6590   25.6528 C   0  0  0  0  0  0  0  0  0  0  0  0
   10.1182   -1.5672   23.1165 C   0  0  0  0  0  0  0  0  0  0  0  0
    1.0552   -9.6360   17.0650 C   0  0  0  0  0  0  0  0  0  0  0  0
    3.6519   -9.1783   16.9039 C   0  0  0  0  0  0  0  0  0  0  0  0
    7.8675   -7.0096   15.9415 C   0  0  0  0  0  0  0  0  0  0  0  0
    5.9733   -9.6553   17.3832 N   0  0  0  0  0  0  0  0  0  0  0  0
   10.2411   -2.9363   23.4301 C   0  0  0  0  0  0  0  0  0  0  0  0
   10.7288   -3.8197   19.9525 C   0  0  0  0  0  0  0  0  0  0  0  0
   10.1189   -5.0054   19.6987 C   0  0  0  0  0  0  0  0  0  0  0  0
  1  3  4  0
  1  7  4  0
  2 21  4  0
  2 27  4  0
  3  9  4  0
  3 10  4  0
  4  8  4  0
  4 18  4  0
  4 25  1  0
  5  9  4  0
  5 12  4  0
  6 13  1  0
  6 27  1  0
  7 28  4  0
  8 11  4  0
  9 29  4  0
 10 12  4  0
 11 24  1  0
 11 26  4  0
 12 25  1  0
 13 28  1  0
 14 20  4  0
 14 23  4  0
 15 17  4  0
 15 21  4  0
 16 19  4  0
 16 23  4  0
 17 22  4  0
 18 26  4  0
 19 24  4  0
 20 24  4  0
 22 27  4  0
 28 29  4  0
M  END
$$$$

 Created by Python create_sdf_string function

 29 33  0  0  0  0  0  0  0  0999 V2000
   10.7215   -3.3326   17.6437 C   0  0  0  0  0  0  0  0  0  0  0  0
    9.9489   -3.4675   24.6487 N   0  0  0  0  0  0  0  0  0  0  0  0
   10.0172   -4.4740   17.4101 C   0  0  0  0  0  0  0  0  0  0  0  0
    6.9051   -7.9575   16.4222 C   0  0  0  0  0  0  0  0  0  0  0  0
    8.9969   -6.3552   17.9668 N   0  0  0  0  0  0  0  0  0  0  0  0
   10.6702   -3.9051   22.4070 C   0  0  0  0  0  0  0  0  0  0  0  0
   11.0625   -3.0028   18.8894 C   0  0  0  0  0  0  0  0  0  0  0  0
    5.6180   -7.9194   16.1754 O   0  0  0  0  0  0  0  0  0  0  0  0
    9.7259   -5.3080   18.4485 C   0  0  0  0  0  0  0  0  0  0  0  0
    9.4578   -5.0200   16.3036 N   0  0  0  0  0  0  0  0  0  0  0  0
    5.0287   -8.9365   16.8223 C   0  0  0  0  0  0  0  0  0  0  0  0
    8.7742   -6.1498   16.6764 C   0  0  0  0  0  0  0  0  0  0  0  0
   10.9418   -3.4032   21.2053 O   0  0  0  0  0  0  0  0  0  0  0  0
    1.4797   -8.6258   16.2950 C   0  0  0  0  0  0  0  0  0  0  0  0
    9.2861   -1.2743   25.3585 C   0  0  0  0  0  0  0  0  0  0  0  0
    1.8892  -10.3985   17.7511 N   0  0  0  0  0  0  0  0  0  0  0  0
    9.6210   -0.6952   24.0976 C   0  0  0  0  0  0  0  0  0  0  0  0
    7.0792   -9.0217   17.1429 C   0  0  0  0  0  0  0  0  0  0  0  0
    3.1713  -10.1816   17.6634 C   0  0  0  0  0  0  0  0  0  0  0  0
    2.7878   -8.3822   16.2137 C   0  0  0  0  0  0  0  0  0  0  0  0
    9.4601   -2.6590   25.6528 C   0  0  0  0  0  0  0  0  0  0  0  0
   10.1182   -1.5672   23.1165 C   0  0  0  0  0  0  0  0  0  0  0  0
    1.0552   -9.6360   17.0650 C   0  0  0  0  0  0  0  0  0  0  0  0
    3.6519   -9.1783   16.9039 C   0  0  0  0  0  0  0  0  0  0  0  0
    7.8675   -7.0096   15.9415 C   0  0  0  0  0  0  0  0  0  0  0  0
    5.9733   -9.6553   17.3832 N   0  0  0  0  0  0  0  0  0  0  0  0
   10.2411   -2.9363   23.4301 C   0  0  0  0  0  0  0  0  0  0  0  0
   10.7288   -3.8197   19.9525 C   0  0  0  0  0  0  0  0  0  0  0  0
   10.1189   -5.0054   19.6987 C   0  0  0  0  0  0  0  0  0  0  0  0
  1  3  4  0
  1  7  4  0
  2 21  4  0
  2 27  4  0
  3  9  4  0
  3 10  4  0
  4  8  4  0
  4 18  4  0
  4 25  1  0
  5  9  4  0
  5 12  4  0
  6 13  1  0
  6 27  1  0
  7 28  4  0
  8 11  4  0
  9 29  4  0
 10 12  4  0
 11 24  1  0
 11 26  4  0
 12 25  1  0
 13 28  1  0
 14 20  4  0
 14 23  4  0
 15 17  4  0
 15 21  4  0
 16 19  4  0
 16 23  4  0
 17 22  4  0
 18 26  4  0
 19 24  4  0
 20 24  4  0
 22 27  4  0
 28 29  4  0
M  END
$$$$

 Created by Python create_sdf_string function

 29 33  0  0  0  0  0  0  0  0999 V2000
   10.7215   -3.3326   17.6437 C   0  0  0  0  0  0  0  0  0  0  0  0
    9.9489   -3.4675   24.6487 N   0  0  0  0  0  0  0  0  0  0  0  0
   10.0172   -4.4740   17.4101 C   0  0  0  0  0  0  0  0  0  0  0  0
    6.9051   -7.9575   16.4222 C   0  0  0  0  0  0  0  0  0  0  0  0
    8.9969   -6.3552   17.9668 N   0  0  0  0  0  0  0  0  0  0  0  0
   10.6702   -3.9051   22.4070 C   0  0  0  0  0  0  0  0  0  0  0  0
   11.0625   -3.0028   18.8894 C   0  0  0  0  0  0  0  0  0  0  0  0
    5.6180   -7.9194   16.1754 O   0  0  0  0  0  0  0  0  0  0  0  0
    9.7259   -5.3080   18.4485 C   0  0  0  0  0  0  0  0  0  0  0  0
    9.4578   -5.0200   16.3036 N   0  0  0  0  0  0  0  0  0  0  0  0
    5.0287   -8.9365   16.8223 C   0  0  0  0  0  0  0  0  0  0  0  0
    8.7742   -6.1498   16.6764 C   0  0  0  0  0  0  0  0  0  0  0  0
   10.9418   -3.4032   21.2053 O   0  0  0  0  0  0  0  0  0  0  0  0
    1.4797   -8.6258   16.2950 C   0  0  0  0  0  0  0  0  0  0  0  0
    9.2861   -1.2743   25.3585 C   0  0  0  0  0  0  0  0  0  0  0  0
    1.8892  -10.3985   17.7511 N   0  0  0  0  0  0  0  0  0  0  0  0
    9.6210   -0.6952   24.0976 C   0  0  0  0  0  0  0  0  0  0  0  0
    7.0792   -9.0217   17.1429 C   0  0  0  0  0  0  0  0  0  0  0  0
    3.1713  -10.1816   17.6634 C   0  0  0  0  0  0  0  0  0  0  0  0
    2.7878   -8.3822   16.2137 C   0  0  0  0  0  0  0  0  0  0  0  0
    9.4601   -2.6590   25.6528 C   0  0  0  0  0  0  0  0  0  0  0  0
   10.1182   -1.5672   23.1165 C   0  0  0  0  0  0  0  0  0  0  0  0
    1.0552   -9.6360   17.0650 C   0  0  0  0  0  0  0  0  0  0  0  0
    3.6519   -9.1783   16.9039 C   0  0  0  0  0  0  0  0  0  0  0  0
    7.8675   -7.0096   15.9415 C   0  0  0  0  0  0  0  0  0  0  0  0
    5.9733   -9.6553   17.3832 N   0  0  0  0  0  0  0  0  0  0  0  0
   10.2411   -2.9363   23.4301 C   0  0  0  0  0  0  0  0  0  0  0  0
   10.7288   -3.8197   19.9525 C   0  0  0  0  0  0  0  0  0  0  0  0
   10.1189   -5.0054   19.6987 C   0  0  0  0  0  0  0  0  0  0  0  0
  1  3  4  0
  1  7  4  0
  2 21  4  0
  2 27  4  0
  3  9  4  0
  3 10  4  0
  4  8  4  0
  4 18  4  0
  4 25  1  0
  5  9  4  0
  5 12  4  0
  6 13  1  0
  6 27  1  0
  7 28  4  0
  8 11  4  0
  9 29  4  0
 10 12  4  0
 11 24  1  0
 11 26  4  0
 12 25  1  0
 13 28  1  0
 14 20  4  0
 14 23  4  0
 15 17  4  0
 15 21  4  0
 16 19  4  0
 16 23  4  0
 17 22  4  0
 18 26  4  0
 19 24  4  0
 20 24  4  0
 22 27  4  0
 28 29  4  0
M  END
$$$$

 Created by Python create_sdf_string function

 29 33  0  0  0  0  0  0  0  0999 V2000
   10.7215   -3.3326   17.6437 C   0  0  0  0  0  0  0  0  0  0  0  0
    9.9489   -3.4675   24.6487 N   0  0  0  0  0  0  0  0  0  0  0  0
   10.0172   -4.4740   17.4101 C   0  0  0  0  0  0  0  0  0  0  0  0
    6.9051   -7.9575   16.4222 C   0  0  0  0  0  0  0  0  0  0  0  0
    8.9969   -6.3552   17.9668 N   0  0  0  0  0  0  0  0  0  0  0  0
   10.6702   -3.9051   22.4070 C   0  0  0  0  0  0  0  0  0  0  0  0
   11.0625   -3.0028   18.8894 C   0  0  0  0  0  0  0  0  0  0  0  0
    5.6180   -7.9194   16.1754 O   0  0  0  0  0  0  0  0  0  0  0  0
    9.7259   -5.3080   18.4485 C   0  0  0  0  0  0  0  0  0  0  0  0
    9.4578   -5.0200   16.3036 N   0  0  0  0  0  0  0  0  0  0  0  0
    5.0287   -8.9365   16.8223 C   0  0  0  0  0  0  0  0  0  0  0  0
    8.7742   -6.1498   16.6764 C   0  0  0  0  0  0  0  0  0  0  0  0
   10.9418   -3.4032   21.2053 O   0  0  0  0  0  0  0  0  0  0  0  0
    1.4797   -8.6258   16.2950 C   0  0  0  0  0  0  0  0  0  0  0  0
    9.2861   -1.2743   25.3585 C   0  0  0  0  0  0  0  0  0  0  0  0
    1.8892  -10.3985   17.7511 N   0  0  0  0  0  0  0  0  0  0  0  0
    9.6210   -0.6952   24.0976 C   0  0  0  0  0  0  0  0  0  0  0  0
    7.0792   -9.0217   17.1429 C   0  0  0  0  0  0  0  0  0  0  0  0
    3.1713  -10.1816   17.6634 C   0  0  0  0  0  0  0  0  0  0  0  0
    2.7878   -8.3822   16.2137 C   0  0  0  0  0  0  0  0  0  0  0  0
    9.4601   -2.6590   25.6528 C   0  0  0  0  0  0  0  0  0  0  0  0
   10.1182   -1.5672   23.1165 C   0  0  0  0  0  0  0  0  0  0  0  0
    1.0552   -9.6360   17.0650 C   0  0  0  0  0  0  0  0  0  0  0  0
    3.6519   -9.1783   16.9039 C   0  0  0  0  0  0  0  0  0  0  0  0
    7.8675   -7.0096   15.9415 C   0  0  0  0  0  0  0  0  0  0  0  0
    5.9733   -9.6553   17.3832 N   0  0  0  0  0  0  0  0  0  0  0  0
   10.2411   -2.9363   23.4301 C   0  0  0  0  0  0  0  0  0  0  0  0
   10.7288   -3.8197   19.9525 C   0  0  0  0  0  0  0  0  0  0  0  0
   10.1189   -5.0054   19.6987 C   0  0  0  0  0  0  0  0  0  0  0  0
  1  3  4  0
  1  7  4  0
  2 21  4  0
  2 27  4  0
  3  9  4  0
  3 10  4  0
  4  8  4  0
  4 18  4  0
  4 25  1  0
  5  9  4  0
  5 12  4  0
  6 13  1  0
  6 27  1  0
  7 28  4  0
  8 11  4  0
  9 29  4  0
 10 12  4  0
 11 24  1  0
 11 26  4  0
 12 25  1  0
 13 28  1  0
 14 20  4  0
 14 23  4  0
 15 17  4  0
 15 21  4  0
 16 19  4  0
 16 23  4  0
 17 22  4  0
 18 26  4  0
 19 24  4  0
 20 24  4  0
 22 27  4  0
 28 29  4  0
M  END
$$$$

 Created by Python create_sdf_string function

 29 33  0  0  0  0  0  0  0  0999 V2000
   10.7215   -3.3326   17.6437 C   0  0  0  0  0  0  0  0  0  0  0  0
    9.9489   -3.4675   24.6487 N   0  0  0  0  0  0  0  0  0  0  0  0
   10.0172   -4.4740   17.4101 C   0  0  0  0  0  0  0  0  0  0  0  0
    6.9051   -7.9575   16.4222 C   0  0  0  0  0  0  0  0  0  0  0  0
    8.9969   -6.3552   17.9668 N   0  0  0  0  0  0  0  0  0  0  0  0
   10.6702   -3.9051   22.4070 C   0  0  0  0  0  0  0  0  0  0  0  0
   11.0625   -3.0028   18.8894 C   0  0  0  0  0  0  0  0  0  0  0  0
    5.6180   -7.9194   16.1754 O   0  0  0  0  0  0  0  0  0  0  0  0
    9.7259   -5.3080   18.4485 C   0  0  0  0  0  0  0  0  0  0  0  0
    9.4578   -5.0200   16.3036 N   0  0  0  0  0  0  0  0  0  0  0  0
    5.0287   -8.9365   16.8223 C   0  0  0  0  0  0  0  0  0  0  0  0
    8.7742   -6.1498   16.6764 C   0  0  0  0  0  0  0  0  0  0  0  0
   10.9418   -3.4032   21.2053 O   0  0  0  0  0  0  0  0  0  0  0  0
    1.4797   -8.6258   16.2950 C   0  0  0  0  0  0  0  0  0  0  0  0
    9.2861   -1.2743   25.3585 C   0  0  0  0  0  0  0  0  0  0  0  0
    1.8892  -10.3985   17.7511 N   0  0  0  0  0  0  0  0  0  0  0  0
    9.6210   -0.6952   24.0976 C   0  0  0  0  0  0  0  0  0  0  0  0
    7.0792   -9.0217   17.1429 C   0  0  0  0  0  0  0  0  0  0  0  0
    3.1713  -10.1816   17.6634 C   0  0  0  0  0  0  0  0  0  0  0  0
    2.7878   -8.3822   16.2137 C   0  0  0  0  0  0  0  0  0  0  0  0
    9.4601   -2.6590   25.6528 C   0  0  0  0  0  0  0  0  0  0  0  0
   10.1182   -1.5672   23.1165 C   0  0  0  0  0  0  0  0  0  0  0  0
    1.0552   -9.6360   17.0650 C   0  0  0  0  0  0  0  0  0  0  0  0
    3.6519   -9.1783   16.9039 C   0  0  0  0  0  0  0  0  0  0  0  0
    7.8675   -7.0096   15.9415 C   0  0  0  0  0  0  0  0  0  0  0  0
    5.9733   -9.6553   17.3832 N   0  0  0  0  0  0  0  0  0  0  0  0
   10.2411   -2.9363   23.4301 C   0  0  0  0  0  0  0  0  0  0  0  0
   10.7288   -3.8197   19.9525 C   0  0  0  0  0  0  0  0  0  0  0  0
   10.1189   -5.0054   19.6987 C   0  0  0  0  0  0  0  0  0  0  0  0
  1  3  4  0
  1  7  4  0
  2 21  4  0
  2 27  4  0
  3  9  4  0
  3 10  4  0
  4  8  4  0
  4 18  4  0
  4 25  1  0
  5  9  4  0
  5 12  4  0
  6 13  1  0
  6 27  1  0
  7 28  4  0
  8 11  4  0
  9 29  4  0
 10 12  4  0
 11 24  1  0
 11 26  4  0
 12 25  1  0
 13 28  1  0
 14 20  4  0
 14 23  4  0
 15 17  4  0
 15 21  4  0
 16 19  4  0
 16 23  4  0
 17 22  4  0
 18 26  4  0
 19 24  4  0
 20 24  4  0
 22 27  4  0
 28 29  4  0
M  END
$$$$

 Created by Python create_sdf_string function

 29 33  0  0  0  0  0  0  0  0999 V2000
   10.7215   -3.3326   17.6437 C   0  0  0  0  0  0  0  0  0  0  0  0
    9.9489   -3.4675   24.6487 N   0  0  0  0  0  0  0  0  0  0  0  0
   10.0172   -4.4740   17.4101 C   0  0  0  0  0  0  0  0  0  0  0  0
    6.9051   -7.9575   16.4222 C   0  0  0  0  0  0  0  0  0  0  0  0
    8.9969   -6.3552   17.9668 N   0  0  0  0  0  0  0  0  0  0  0  0
   10.6702   -3.9051   22.4070 C   0  0  0  0  0  0  0  0  0  0  0  0
   11.0625   -3.0028   18.8894 C   0  0  0  0  0  0  0  0  0  0  0  0
    5.6180   -7.9194   16.1754 O   0  0  0  0  0  0  0  0  0  0  0  0
    9.7259   -5.3080   18.4485 C   0  0  0  0  0  0  0  0  0  0  0  0
    9.4578   -5.0200   16.3036 N   0  0  0  0  0  0  0  0  0  0  0  0
    5.0287   -8.9365   16.8223 C   0  0  0  0  0  0  0  0  0  0  0  0
    8.7742   -6.1498   16.6764 C   0  0  0  0  0  0  0  0  0  0  0  0
   10.9418   -3.4032   21.2053 O   0  0  0  0  0  0  0  0  0  0  0  0
    1.4797   -8.6258   16.2950 C   0  0  0  0  0  0  0  0  0  0  0  0
    9.2861   -1.2743   25.3585 C   0  0  0  0  0  0  0  0  0  0  0  0
    1.8892  -10.3985   17.7511 N   0  0  0  0  0  0  0  0  0  0  0  0
    9.6210   -0.6952   24.0976 C   0  0  0  0  0  0  0  0  0  0  0  0
    7.0792   -9.0217   17.1429 C   0  0  0  0  0  0  0  0  0  0  0  0
    3.1713  -10.1816   17.6634 C   0  0  0  0  0  0  0  0  0  0  0  0
    2.7878   -8.3822   16.2137 C   0  0  0  0  0  0  0  0  0  0  0  0
    9.4601   -2.6590   25.6528 C   0  0  0  0  0  0  0  0  0  0  0  0
   10.1182   -1.5672   23.1165 C   0  0  0  0  0  0  0  0  0  0  0  0
    1.0552   -9.6360   17.0650 C   0  0  0  0  0  0  0  0  0  0  0  0
    3.6519   -9.1783   16.9039 C   0  0  0  0  0  0  0  0  0  0  0  0
    7.8675   -7.0096   15.9415 C   0  0  0  0  0  0  0  0  0  0  0  0
    5.9733   -9.6553   17.3832 N   0  0  0  0  0  0  0  0  0  0  0  0
   10.2411   -2.9363   23.4301 C   0  0  0  0  0  0  0  0  0  0  0  0
   10.7288   -3.8197   19.9525 C   0  0  0  0  0  0  0  0  0  0  0  0
   10.1189   -5.0054   19.6987 C   0  0  0  0  0  0  0  0  0  0  0  0
  1  3  4  0
  1  7  4  0
  2 21  4  0
  2 27  4  0
  3  9  4  0
  3 10  4  0
  4  8  4  0
  4 18  4  0
  4 25  1  0
  5  9  4  0
  5 12  4  0
  6 13  1  0
  6 27  1  0
  7 28  4  0
  8 11  4  0
  9 29  4  0
 10 12  4  0
 11 24  1  0
 11 26  4  0
 12 25  1  0
 13 28  1  0
 14 20  4  0
 14 23  4  0
 15 17  4  0
 15 21  4  0
 16 19  4  0
 16 23  4  0
 17 22  4  0
 18 26  4  0
 19 24  4  0
 20 24  4  0
 22 27  4  0
 28 29  4  0
M  END
$$$$

 Created by Python create_sdf_string function

 29 33  0  0  0  0  0  0  0  0999 V2000
   10.7215   -3.3326   17.6437 C   0  0  0  0  0  0  0  0  0  0  0  0
    9.9489   -3.4675   24.6487 N   0  0  0  0  0  0  0  0  0  0  0  0
   10.0172   -4.4740   17.4101 C   0  0  0  0  0  0  0  0  0  0  0  0
    6.9051   -7.9575   16.4222 C   0  0  0  0  0  0  0  0  0  0  0  0
    8.9969   -6.3552   17.9668 N   0  0  0  0  0  0  0  0  0  0  0  0
   10.6702   -3.9051   22.4070 C   0  0  0  0  0  0  0  0  0  0  0  0
   11.0625   -3.0028   18.8894 C   0  0  0  0  0  0  0  0  0  0  0  0
    5.6180   -7.9194   16.1754 O   0  0  0  0  0  0  0  0  0  0  0  0
    9.7259   -5.3080   18.4485 C   0  0  0  0  0  0  0  0  0  0  0  0
    9.4578   -5.0200   16.3036 N   0  0  0  0  0  0  0  0  0  0  0  0
    5.0287   -8.9365   16.8223 C   0  0  0  0  0  0  0  0  0  0  0  0
    8.7742   -6.1498   16.6764 C   0  0  0  0  0  0  0  0  0  0  0  0
   10.9418   -3.4032   21.2053 O   0  0  0  0  0  0  0  0  0  0  0  0
    1.4797   -8.6258   16.2950 C   0  0  0  0  0  0  0  0  0  0  0  0
    9.2861   -1.2743   25.3585 C   0  0  0  0  0  0  0  0  0  0  0  0
    1.8892  -10.3985   17.7511 N   0  0  0  0  0  0  0  0  0  0  0  0
    9.6210   -0.6952   24.0976 C   0  0  0  0  0  0  0  0  0  0  0  0
    7.0792   -9.0217   17.1429 C   0  0  0  0  0  0  0  0  0  0  0  0
    3.1713  -10.1816   17.6634 C   0  0  0  0  0  0  0  0  0  0  0  0
    2.7878   -8.3822   16.2137 C   0  0  0  0  0  0  0  0  0  0  0  0
    9.4601   -2.6590   25.6528 C   0  0  0  0  0  0  0  0  0  0  0  0
   10.1182   -1.5672   23.1165 C   0  0  0  0  0  0  0  0  0  0  0  0
    1.0552   -9.6360   17.0650 C   0  0  0  0  0  0  0  0  0  0  0  0
    3.6519   -9.1783   16.9039 C   0  0  0  0  0  0  0  0  0  0  0  0
    7.8675   -7.0096   15.9415 C   0  0  0  0  0  0  0  0  0  0  0  0
    5.9733   -9.6553   17.3832 N   0  0  0  0  0  0  0  0  0  0  0  0
   10.2411   -2.9363   23.4301 C   0  0  0  0  0  0  0  0  0  0  0  0
   10.7288   -3.8197   19.9525 C   0  0  0  0  0  0  0  0  0  0  0  0
   10.1189   -5.0054   19.6987 C   0  0  0  0  0  0  0  0  0  0  0  0
  1  3  4  0
  1  7  4  0
  2 21  4  0
  2 27  4  0
  3  9  4  0
  3 10  4  0
  4  8  4  0
  4 18  4  0
  4 25  1  0
  5  9  4  0
  5 12  4  0
  6 13  1  0
  6 27  1  0
  7 28  4  0
  8 11  4  0
  9 29  4  0
 10 12  4  0
 11 24  1  0
 11 26  4  0
 12 25  1  0
 13 28  1  0
 14 20  4  0
 14 23  4  0
 15 17  4  0
 15 21  4  0
 16 19  4  0
 16 23  4  0
 17 22  4  0
 18 26  4  0
 19 24  4  0
 20 24  4  0
 22 27  4  0
 28 29  4  0
M  END
$$$$

 Created by Python create_sdf_string function

 29 33  0  0  0  0  0  0  0  0999 V2000
   10.7215   -3.3326   17.6437 C   0  0  0  0  0  0  0  0  0  0  0  0
    9.9489   -3.4675   24.6487 N   0  0  0  0  0  0  0  0  0  0  0  0
   10.0172   -4.4740   17.4101 C   0  0  0  0  0  0  0  0  0  0  0  0
    6.9051   -7.9575   16.4222 C   0  0  0  0  0  0  0  0  0  0  0  0
    8.9969   -6.3552   17.9668 N   0  0  0  0  0  0  0  0  0  0  0  0
   10.6702   -3.9051   22.4070 C   0  0  0  0  0  0  0  0  0  0  0  0
   11.0625   -3.0028   18.8894 C   0  0  0  0  0  0  0  0  0  0  0  0
    5.6180   -7.9194   16.1754 O   0  0  0  0  0  0  0  0  0  0  0  0
    9.7259   -5.3080   18.4485 C   0  0  0  0  0  0  0  0  0  0  0  0
    9.4578   -5.0200   16.3036 N   0  0  0  0  0  0  0  0  0  0  0  0
    5.0287   -8.9365   16.8223 C   0  0  0  0  0  0  0  0  0  0  0  0
    8.7742   -6.1498   16.6764 C   0  0  0  0  0  0  0  0  0  0  0  0
   10.9418   -3.4032   21.2053 O   0  0  0  0  0  0  0  0  0  0  0  0
    1.4797   -8.6258   16.2950 C   0  0  0  0  0  0  0  0  0  0  0  0
    9.2861   -1.2743   25.3585 C   0  0  0  0  0  0  0  0  0  0  0  0
    1.8892  -10.3985   17.7511 N   0  0  0  0  0  0  0  0  0  0  0  0
    9.6210   -0.6952   24.0976 C   0  0  0  0  0  0  0  0  0  0  0  0
    7.0792   -9.0217   17.1429 C   0  0  0  0  0  0  0  0  0  0  0  0
    3.1713  -10.1816   17.6634 C   0  0  0  0  0  0  0  0  0  0  0  0
    2.7878   -8.3822   16.2137 C   0  0  0  0  0  0  0  0  0  0  0  0
    9.4601   -2.6590   25.6528 C   0  0  0  0  0  0  0  0  0  0  0  0
   10.1182   -1.5672   23.1165 C   0  0  0  0  0  0  0  0  0  0  0  0
    1.0552   -9.6360   17.0650 C   0  0  0  0  0  0  0  0  0  0  0  0
    3.6519   -9.1783   16.9039 C   0  0  0  0  0  0  0  0  0  0  0  0
    7.8675   -7.0096   15.9415 C   0  0  0  0  0  0  0  0  0  0  0  0
    5.9733   -9.6553   17.3832 N   0  0  0  0  0  0  0  0  0  0  0  0
   10.2411   -2.9363   23.4301 C   0  0  0  0  0  0  0  0  0  0  0  0
   10.7288   -3.8197   19.9525 C   0  0  0  0  0  0  0  0  0  0  0  0
   10.1189   -5.0054   19.6987 C   0  0  0  0  0  0  0  0  0  0  0  0
  1  3  4  0
  1  7  4  0
  2 21  4  0
  2 27  4  0
  3  9  4  0
  3 10  4  0
  4  8  4  0
  4 18  4  0
  4 25  1  0
  5  9  4  0
  5 12  4  0
  6 13  1  0
  6 27  1  0
  7 28  4  0
  8 11  4  0
  9 29  4  0
 10 12  4  0
 11 24  1  0
 11 26  4  0
 12 25  1  0
 13 28  1  0
 14 20  4  0
 14 23  4  0
 15 17  4  0
 15 21  4  0
 16 19  4  0
 16 23  4  0
 17 22  4  0
 18 26  4  0
 19 24  4  0
 20 24  4  0
 22 27  4  0
 28 29  4  0
M  END
$$$$

 Created by Python create_sdf_string function

 29 33  0  0  0  0  0  0  0  0999 V2000
   10.7215   -3.3326   17.6437 C   0  0  0  0  0  0  0  0  0  0  0  0
    9.9489   -3.4675   24.6487 N   0  0  0  0  0  0  0  0  0  0  0  0
   10.0172   -4.4740   17.4101 C   0  0  0  0  0  0  0  0  0  0  0  0
    6.9051   -7.9575   16.4222 C   0  0  0  0  0  0  0  0  0  0  0  0
    8.9969   -6.3552   17.9668 N   0  0  0  0  0  0  0  0  0  0  0  0
   10.6702   -3.9051   22.4070 C   0  0  0  0  0  0  0  0  0  0  0  0
   11.0625   -3.0028   18.8894 C   0  0  0  0  0  0  0  0  0  0  0  0
    5.6180   -7.9194   16.1754 O   0  0  0  0  0  0  0  0  0  0  0  0
    9.7259   -5.3080   18.4485 C   0  0  0  0  0  0  0  0  0  0  0  0
    9.4578   -5.0200   16.3036 N   0  0  0  0  0  0  0  0  0  0  0  0
    5.0287   -8.9365   16.8223 C   0  0  0  0  0  0  0  0  0  0  0  0
    8.7742   -6.1498   16.6764 C   0  0  0  0  0  0  0  0  0  0  0  0
   10.9418   -3.4032   21.2053 O   0  0  0  0  0  0  0  0  0  0  0  0
    1.4797   -8.6258   16.2950 C   0  0  0  0  0  0  0  0  0  0  0  0
    9.2861   -1.2743   25.3585 C   0  0  0  0  0  0  0  0  0  0  0  0
    1.8892  -10.3985   17.7511 N   0  0  0  0  0  0  0  0  0  0  0  0
    9.6210   -0.6952   24.0976 C   0  0  0  0  0  0  0  0  0  0  0  0
    7.0792   -9.0217   17.1429 C   0  0  0  0  0  0  0  0  0  0  0  0
    3.1713  -10.1816   17.6634 C   0  0  0  0  0  0  0  0  0  0  0  0
    2.7878   -8.3822   16.2137 C   0  0  0  0  0  0  0  0  0  0  0  0
    9.4601   -2.6590   25.6528 C   0  0  0  0  0  0  0  0  0  0  0  0
   10.1182   -1.5672   23.1165 C   0  0  0  0  0  0  0  0  0  0  0  0
    1.0552   -9.6360   17.0650 C   0  0  0  0  0  0  0  0  0  0  0  0
    3.6519   -9.1783   16.9039 C   0  0  0  0  0  0  0  0  0  0  0  0
    7.8675   -7.0096   15.9415 C   0  0  0  0  0  0  0  0  0  0  0  0
    5.9733   -9.6553   17.3832 N   0  0  0  0  0  0  0  0  0  0  0  0
   10.2411   -2.9363   23.4301 C   0  0  0  0  0  0  0  0  0  0  0  0
   10.7288   -3.8197   19.9525 C   0  0  0  0  0  0  0  0  0  0  0  0
   10.1189   -5.0054   19.6987 C   0  0  0  0  0  0  0  0  0  0  0  0
  1  3  4  0
  1  7  4  0
  2 21  4  0
  2 27  4  0
  3  9  4  0
  3 10  4  0
  4  8  4  0
  4 18  4  0
  4 25  1  0
  5  9  4  0
  5 12  4  0
  6 13  1  0
  6 27  1  0
  7 28  4  0
  8 11  4  0
  9 29  4  0
 10 12  4  0
 11 24  1  0
 11 26  4  0
 12 25  1  0
 13 28  1  0
 14 20  4  0
 14 23  4  0
 15 17  4  0
 15 21  4  0
 16 19  4  0
 16 23  4  0
 17 22  4  0
 18 26  4  0
 19 24  4  0
 20 24  4  0
 22 27  4  0
 28 29  4  0
M  END
$$$$

 Created by Python create_sdf_string function

 29 33  0  0  0  0  0  0  0  0999 V2000
   10.7215   -3.3326   17.6437 C   0  0  0  0  0  0  0  0  0  0  0  0
    9.9489   -3.4675   24.6487 N   0  0  0  0  0  0  0  0  0  0  0  0
   10.0172   -4.4740   17.4101 C   0  0  0  0  0  0  0  0  0  0  0  0
    6.9051   -7.9575   16.4222 C   0  0  0  0  0  0  0  0  0  0  0  0
    8.9969   -6.3552   17.9668 N   0  0  0  0  0  0  0  0  0  0  0  0
   10.6702   -3.9051   22.4070 C   0  0  0  0  0  0  0  0  0  0  0  0
   11.0625   -3.0028   18.8894 C   0  0  0  0  0  0  0  0  0  0  0  0
    5.6180   -7.9194   16.1754 O   0  0  0  0  0  0  0  0  0  0  0  0
    9.7259   -5.3080   18.4485 C   0  0  0  0  0  0  0  0  0  0  0  0
    9.4578   -5.0200   16.3036 N   0  0  0  0  0  0  0  0  0  0  0  0
    5.0287   -8.9365   16.8223 C   0  0  0  0  0  0  0  0  0  0  0  0
    8.7742   -6.1498   16.6764 C   0  0  0  0  0  0  0  0  0  0  0  0
   10.9418   -3.4032   21.2053 O   0  0  0  0  0  0  0  0  0  0  0  0
    1.4797   -8.6258   16.2950 C   0  0  0  0  0  0  0  0  0  0  0  0
    9.2861   -1.2743   25.3585 C   0  0  0  0  0  0  0  0  0  0  0  0
    1.8892  -10.3985   17.7511 N   0  0  0  0  0  0  0  0  0  0  0  0
    9.6210   -0.6952   24.0976 C   0  0  0  0  0  0  0  0  0  0  0  0
    7.0792   -9.0217   17.1429 C   0  0  0  0  0  0  0  0  0  0  0  0
    3.1713  -10.1816   17.6634 C   0  0  0  0  0  0  0  0  0  0  0  0
    2.7878   -8.3822   16.2137 C   0  0  0  0  0  0  0  0  0  0  0  0
    9.4601   -2.6590   25.6528 C   0  0  0  0  0  0  0  0  0  0  0  0
   10.1182   -1.5672   23.1165 C   0  0  0  0  0  0  0  0  0  0  0  0
    1.0552   -9.6360   17.0650 C   0  0  0  0  0  0  0  0  0  0  0  0
    3.6519   -9.1783   16.9039 C   0  0  0  0  0  0  0  0  0  0  0  0
    7.8675   -7.0096   15.9415 C   0  0  0  0  0  0  0  0  0  0  0  0
    5.9733   -9.6553   17.3832 N   0  0  0  0  0  0  0  0  0  0  0  0
   10.2411   -2.9363   23.4301 C   0  0  0  0  0  0  0  0  0  0  0  0
   10.7288   -3.8197   19.9525 C   0  0  0  0  0  0  0  0  0  0  0  0
   10.1189   -5.0054   19.6987 C   0  0  0  0  0  0  0  0  0  0  0  0
  1  3  4  0
  1  7  4  0
  2 21  4  0
  2 27  4  0
  3  9  4  0
  3 10  4  0
  4  8  4  0
  4 18  4  0
  4 25  1  0
  5  9  4  0
  5 12  4  0
  6 13  1  0
  6 27  1  0
  7 28  4  0
  8 11  4  0
  9 29  4  0
 10 12  4  0
 11 24  1  0
 11 26  4  0
 12 25  1  0
 13 28  1  0
 14 20  4  0
 14 23  4  0
 15 17  4  0
 15 21  4  0
 16 19  4  0
 16 23  4  0
 17 22  4  0
 18 26  4  0
 19 24  4  0
 20 24  4  0
 22 27  4  0
 28 29  4  0
M  END
$$$$

 Created by Python create_sdf_string function

 29 33  0  0  0  0  0  0  0  0999 V2000
   10.7215   -3.3326   17.6437 C   0  0  0  0  0  0  0  0  0  0  0  0
    9.9489   -3.4675   24.6487 N   0  0  0  0  0  0  0  0  0  0  0  0
   10.0172   -4.4740   17.4101 C   0  0  0  0  0  0  0  0  0  0  0  0
    6.9051   -7.9575   16.4222 C   0  0  0  0  0  0  0  0  0  0  0  0
    8.9969   -6.3552   17.9668 N   0  0  0  0  0  0  0  0  0  0  0  0
   10.6702   -3.9051   22.4070 C   0  0  0  0  0  0  0  0  0  0  0  0
   11.0625   -3.0028   18.8894 C   0  0  0  0  0  0  0  0  0  0  0  0
    5.6180   -7.9194   16.1754 O   0  0  0  0  0  0  0  0  0  0  0  0
    9.7259   -5.3080   18.4485 C   0  0  0  0  0  0  0  0  0  0  0  0
    9.4578   -5.0200   16.3036 N   0  0  0  0  0  0  0  0  0  0  0  0
    5.0287   -8.9365   16.8223 C   0  0  0  0  0  0  0  0  0  0  0  0
    8.7742   -6.1498   16.6764 C   0  0  0  0  0  0  0  0  0  0  0  0
   10.9418   -3.4032   21.2053 O   0  0  0  0  0  0  0  0  0  0  0  0
    1.4797   -8.6258   16.2950 C   0  0  0  0  0  0  0  0  0  0  0  0
    9.2861   -1.2743   25.3585 C   0  0  0  0  0  0  0  0  0  0  0  0
    1.8892  -10.3985   17.7511 N   0  0  0  0  0  0  0  0  0  0  0  0
    9.6210   -0.6952   24.0976 C   0  0  0  0  0  0  0  0  0  0  0  0
    7.0792   -9.0217   17.1429 C   0  0  0  0  0  0  0  0  0  0  0  0
    3.1713  -10.1816   17.6634 C   0  0  0  0  0  0  0  0  0  0  0  0
    2.7878   -8.3822   16.2137 C   0  0  0  0  0  0  0  0  0  0  0  0
    9.4601   -2.6590   25.6528 C   0  0  0  0  0  0  0  0  0  0  0  0
   10.1182   -1.5672   23.1165 C   0  0  0  0  0  0  0  0  0  0  0  0
    1.0552   -9.6360   17.0650 C   0  0  0  0  0  0  0  0  0  0  0  0
    3.6519   -9.1783   16.9039 C   0  0  0  0  0  0  0  0  0  0  0  0
    7.8675   -7.0096   15.9415 C   0  0  0  0  0  0  0  0  0  0  0  0
    5.9733   -9.6553   17.3832 N   0  0  0  0  0  0  0  0  0  0  0  0
   10.2411   -2.9363   23.4301 C   0  0  0  0  0  0  0  0  0  0  0  0
   10.7288   -3.8197   19.9525 C   0  0  0  0  0  0  0  0  0  0  0  0
   10.1189   -5.0054   19.6987 C   0  0  0  0  0  0  0  0  0  0  0  0
  1  3  4  0
  1  7  4  0
  2 21  4  0
  2 27  4  0
  3  9  4  0
  3 10  4  0
  4  8  4  0
  4 18  4  0
  4 25  1  0
  5  9  4  0
  5 12  4  0
  6 13  1  0
  6 27  1  0
  7 28  4  0
  8 11  4  0
  9 29  4  0
 10 12  4  0
 11 24  1  0
 11 26  4  0
 12 25  1  0
 13 28  1  0
 14 20  4  0
 14 23  4  0
 15 17  4  0
 15 21  4  0
 16 19  4  0
 16 23  4  0
 17 22  4  0
 18 26  4  0
 19 24  4  0
 20 24  4  0
 22 27  4  0
 28 29  4  0
M  END
$$$$

 Created by Python create_sdf_string function

 29 33  0  0  0  0  0  0  0  0999 V2000
   10.7215   -3.3326   17.6437 C   0  0  0  0  0  0  0  0  0  0  0  0
    9.9489   -3.4675   24.6487 N   0  0  0  0  0  0  0  0  0  0  0  0
   10.0172   -4.4740   17.4101 C   0  0  0  0  0  0  0  0  0  0  0  0
    6.9051   -7.9575   16.4222 C   0  0  0  0  0  0  0  0  0  0  0  0
    8.9969   -6.3552   17.9668 N   0  0  0  0  0  0  0  0  0  0  0  0
   10.6702   -3.9051   22.4070 C   0  0  0  0  0  0  0  0  0  0  0  0
   11.0625   -3.0028   18.8894 C   0  0  0  0  0  0  0  0  0  0  0  0
    5.6180   -7.9194   16.1754 O   0  0  0  0  0  0  0  0  0  0  0  0
    9.7259   -5.3080   18.4485 C   0  0  0  0  0  0  0  0  0  0  0  0
    9.4578   -5.0200   16.3036 N   0  0  0  0  0  0  0  0  0  0  0  0
    5.0287   -8.9365   16.8223 C   0  0  0  0  0  0  0  0  0  0  0  0
    8.7742   -6.1498   16.6764 C   0  0  0  0  0  0  0  0  0  0  0  0
   10.9418   -3.4032   21.2053 O   0  0  0  0  0  0  0  0  0  0  0  0
    1.4797   -8.6258   16.2950 C   0  0  0  0  0  0  0  0  0  0  0  0
    9.2861   -1.2743   25.3585 C   0  0  0  0  0  0  0  0  0  0  0  0
    1.8892  -10.3985   17.7511 N   0  0  0  0  0  0  0  0  0  0  0  0
    9.6210   -0.6952   24.0976 C   0  0  0  0  0  0  0  0  0  0  0  0
    7.0792   -9.0217   17.1429 C   0  0  0  0  0  0  0  0  0  0  0  0
    3.1713  -10.1816   17.6634 C   0  0  0  0  0  0  0  0  0  0  0  0
    2.7878   -8.3822   16.2137 C   0  0  0  0  0  0  0  0  0  0  0  0
    9.4601   -2.6590   25.6528 C   0  0  0  0  0  0  0  0  0  0  0  0
   10.1182   -1.5672   23.1165 C   0  0  0  0  0  0  0  0  0  0  0  0
    1.0552   -9.6360   17.0650 C   0  0  0  0  0  0  0  0  0  0  0  0
    3.6519   -9.1783   16.9039 C   0  0  0  0  0  0  0  0  0  0  0  0
    7.8675   -7.0096   15.9415 C   0  0  0  0  0  0  0  0  0  0  0  0
    5.9733   -9.6553   17.3832 N   0  0  0  0  0  0  0  0  0  0  0  0
   10.2411   -2.9363   23.4301 C   0  0  0  0  0  0  0  0  0  0  0  0
   10.7288   -3.8197   19.9525 C   0  0  0  0  0  0  0  0  0  0  0  0
   10.1189   -5.0054   19.6987 C   0  0  0  0  0  0  0  0  0  0  0  0
  1  3  4  0
  1  7  4  0
  2 21  4  0
  2 27  4  0
  3  9  4  0
  3 10  4  0
  4  8  4  0
  4 18  4  0
  4 25  1  0
  5  9  4  0
  5 12  4  0
  6 13  1  0
  6 27  1  0
  7 28  4  0
  8 11  4  0
  9 29  4  0
 10 12  4  0
 11 24  1  0
 11 26  4  0
 12 25  1  0
 13 28  1  0
 14 20  4  0
 14 23  4  0
 15 17  4  0
 15 21  4  0
 16 19  4  0
 16 23  4  0
 17 22  4  0
 18 26  4  0
 19 24  4  0
 20 24  4  0
 22 27  4  0
 28 29  4  0
M  END
$$$$

 Created by Python create_sdf_string function

 29 33  0  0  0  0  0  0  0  0999 V2000
   10.7215   -3.3326   17.6437 C   0  0  0  0  0  0  0  0  0  0  0  0
    9.9489   -3.4675   24.6487 N   0  0  0  0  0  0  0  0  0  0  0  0
   10.0172   -4.4740   17.4101 C   0  0  0  0  0  0  0  0  0  0  0  0
    6.9051   -7.9575   16.4222 C   0  0  0  0  0  0  0  0  0  0  0  0
    8.9969   -6.3552   17.9668 N   0  0  0  0  0  0  0  0  0  0  0  0
   10.6702   -3.9051   22.4070 C   0  0  0  0  0  0  0  0  0  0  0  0
   11.0625   -3.0028   18.8894 C   0  0  0  0  0  0  0  0  0  0  0  0
    5.6180   -7.9194   16.1754 O   0  0  0  0  0  0  0  0  0  0  0  0
    9.7259   -5.3080   18.4485 C   0  0  0  0  0  0  0  0  0  0  0  0
    9.4578   -5.0200   16.3036 N   0  0  0  0  0  0  0  0  0  0  0  0
    5.0287   -8.9365   16.8223 C   0  0  0  0  0  0  0  0  0  0  0  0
    8.7742   -6.1498   16.6764 C   0  0  0  0  0  0  0  0  0  0  0  0
   10.9418   -3.4032   21.2053 O   0  0  0  0  0  0  0  0  0  0  0  0
    1.4797   -8.6258   16.2950 C   0  0  0  0  0  0  0  0  0  0  0  0
    9.2861   -1.2743   25.3585 C   0  0  0  0  0  0  0  0  0  0  0  0
    1.8892  -10.3985   17.7511 N   0  0  0  0  0  0  0  0  0  0  0  0
    9.6210   -0.6952   24.0976 C   0  0  0  0  0  0  0  0  0  0  0  0
    7.0792   -9.0217   17.1429 C   0  0  0  0  0  0  0  0  0  0  0  0
    3.1713  -10.1816   17.6634 C   0  0  0  0  0  0  0  0  0  0  0  0
    2.7878   -8.3822   16.2137 C   0  0  0  0  0  0  0  0  0  0  0  0
    9.4601   -2.6590   25.6528 C   0  0  0  0  0  0  0  0  0  0  0  0
   10.1182   -1.5672   23.1165 C   0  0  0  0  0  0  0  0  0  0  0  0
    1.0552   -9.6360   17.0650 C   0  0  0  0  0  0  0  0  0  0  0  0
    3.6519   -9.1783   16.9039 C   0  0  0  0  0  0  0  0  0  0  0  0
    7.8675   -7.0096   15.9415 C   0  0  0  0  0  0  0  0  0  0  0  0
    5.9733   -9.6553   17.3832 N   0  0  0  0  0  0  0  0  0  0  0  0
   10.2411   -2.9363   23.4301 C   0  0  0  0  0  0  0  0  0  0  0  0
   10.7288   -3.8197   19.9525 C   0  0  0  0  0  0  0  0  0  0  0  0
   10.1189   -5.0054   19.6987 C   0  0  0  0  0  0  0  0  0  0  0  0
  1  3  4  0
  1  7  4  0
  2 21  4  0
  2 27  4  0
  3  9  4  0
  3 10  4  0
  4  8  4  0
  4 18  4  0
  4 25  1  0
  5  9  4  0
  5 12  4  0
  6 13  1  0
  6 27  1  0
  7 28  4  0
  8 11  4  0
  9 29  4  0
 10 12  4  0
 11 24  1  0
 11 26  4  0
 12 25  1  0
 13 28  1  0
 14 20  4  0
 14 23  4  0
 15 17  4  0
 15 21  4  0
 16 19  4  0
 16 23  4  0
 17 22  4  0
 18 26  4  0
 19 24  4  0
 20 24  4  0
 22 27  4  0
 28 29  4  0
M  END
$$$$

 Created by Python create_sdf_string function

 29 33  0  0  0  0  0  0  0  0999 V2000
   10.7215   -3.3326   17.6437 C   0  0  0  0  0  0  0  0  0  0  0  0
    9.9489   -3.4675   24.6487 N   0  0  0  0  0  0  0  0  0  0  0  0
   10.0172   -4.4740   17.4101 C   0  0  0  0  0  0  0  0  0  0  0  0
    6.9051   -7.9575   16.4222 C   0  0  0  0  0  0  0  0  0  0  0  0
    8.9969   -6.3552   17.9668 N   0  0  0  0  0  0  0  0  0  0  0  0
   10.6702   -3.9051   22.4070 C   0  0  0  0  0  0  0  0  0  0  0  0
   11.0625   -3.0028   18.8894 C   0  0  0  0  0  0  0  0  0  0  0  0
    5.6180   -7.9194   16.1754 O   0  0  0  0  0  0  0  0  0  0  0  0
    9.7259   -5.3080   18.4485 C   0  0  0  0  0  0  0  0  0  0  0  0
    9.4578   -5.0200   16.3036 N   0  0  0  0  0  0  0  0  0  0  0  0
    5.0287   -8.9365   16.8223 C   0  0  0  0  0  0  0  0  0  0  0  0
    8.7742   -6.1498   16.6764 C   0  0  0  0  0  0  0  0  0  0  0  0
   10.9418   -3.4032   21.2053 O   0  0  0  0  0  0  0  0  0  0  0  0
    1.4797   -8.6258   16.2950 C   0  0  0  0  0  0  0  0  0  0  0  0
    9.2861   -1.2743   25.3585 C   0  0  0  0  0  0  0  0  0  0  0  0
    1.8892  -10.3985   17.7511 N   0  0  0  0  0  0  0  0  0  0  0  0
    9.6210   -0.6952   24.0976 C   0  0  0  0  0  0  0  0  0  0  0  0
    7.0792   -9.0217   17.1429 C   0  0  0  0  0  0  0  0  0  0  0  0
    3.1713  -10.1816   17.6634 C   0  0  0  0  0  0  0  0  0  0  0  0
    2.7878   -8.3822   16.2137 C   0  0  0  0  0  0  0  0  0  0  0  0
    9.4601   -2.6590   25.6528 C   0  0  0  0  0  0  0  0  0  0  0  0
   10.1182   -1.5672   23.1165 C   0  0  0  0  0  0  0  0  0  0  0  0
    1.0552   -9.6360   17.0650 C   0  0  0  0  0  0  0  0  0  0  0  0
    3.6519   -9.1783   16.9039 C   0  0  0  0  0  0  0  0  0  0  0  0
    7.8675   -7.0096   15.9415 C   0  0  0  0  0  0  0  0  0  0  0  0
    5.9733   -9.6553   17.3832 N   0  0  0  0  0  0  0  0  0  0  0  0
   10.2411   -2.9363   23.4301 C   0  0  0  0  0  0  0  0  0  0  0  0
   10.7288   -3.8197   19.9525 C   0  0  0  0  0  0  0  0  0  0  0  0
   10.1189   -5.0054   19.6987 C   0  0  0  0  0  0  0  0  0  0  0  0
  1  3  4  0
  1  7  4  0
  2 21  4  0
  2 27  4  0
  3  9  4  0
  3 10  4  0
  4  8  4  0
  4 18  4  0
  4 25  1  0
  5  9  4  0
  5 12  4  0
  6 13  1  0
  6 27  1  0
  7 28  4  0
  8 11  4  0
  9 29  4  0
 10 12  4  0
 11 24  1  0
 11 26  4  0
 12 25  1  0
 13 28  1  0
 14 20  4  0
 14 23  4  0
 15 17  4  0
 15 21  4  0
 16 19  4  0
 16 23  4  0
 17 22  4  0
 18 26  4  0
 19 24  4  0
 20 24  4  0
 22 27  4  0
 28 29  4  0
M  END
$$$$

 Created by Python create_sdf_string function

 29 33  0  0  0  0  0  0  0  0999 V2000
   10.7215   -3.3326   17.6437 C   0  0  0  0  0  0  0  0  0  0  0  0
    9.9489   -3.4675   24.6487 N   0  0  0  0  0  0  0  0  0  0  0  0
   10.0172   -4.4740   17.4101 C   0  0  0  0  0  0  0  0  0  0  0  0
    6.9051   -7.9575   16.4222 C   0  0  0  0  0  0  0  0  0  0  0  0
    8.9969   -6.3552   17.9668 N   0  0  0  0  0  0  0  0  0  0  0  0
   10.6702   -3.9051   22.4070 C   0  0  0  0  0  0  0  0  0  0  0  0
   11.0625   -3.0028   18.8894 C   0  0  0  0  0  0  0  0  0  0  0  0
    5.6180   -7.9194   16.1754 O   0  0  0  0  0  0  0  0  0  0  0  0
    9.7259   -5.3080   18.4485 C   0  0  0  0  0  0  0  0  0  0  0  0
    9.4578   -5.0200   16.3036 N   0  0  0  0  0  0  0  0  0  0  0  0
    5.0287   -8.9365   16.8223 C   0  0  0  0  0  0  0  0  0  0  0  0
    8.7742   -6.1498   16.6764 C   0  0  0  0  0  0  0  0  0  0  0  0
   10.9418   -3.4032   21.2053 O   0  0  0  0  0  0  0  0  0  0  0  0
    1.4797   -8.6258   16.2950 C   0  0  0  0  0  0  0  0  0  0  0  0
    9.2861   -1.2743   25.3585 C   0  0  0  0  0  0  0  0  0  0  0  0
    1.8892  -10.3985   17.7511 N   0  0  0  0  0  0  0  0  0  0  0  0
    9.6210   -0.6952   24.0976 C   0  0  0  0  0  0  0  0  0  0  0  0
    7.0792   -9.0217   17.1429 C   0  0  0  0  0  0  0  0  0  0  0  0
    3.1713  -10.1816   17.6634 C   0  0  0  0  0  0  0  0  0  0  0  0
    2.7878   -8.3822   16.2137 C   0  0  0  0  0  0  0  0  0  0  0  0
    9.4601   -2.6590   25.6528 C   0  0  0  0  0  0  0  0  0  0  0  0
   10.1182   -1.5672   23.1165 C   0  0  0  0  0  0  0  0  0  0  0  0
    1.0552   -9.6360   17.0650 C   0  0  0  0  0  0  0  0  0  0  0  0
    3.6519   -9.1783   16.9039 C   0  0  0  0  0  0  0  0  0  0  0  0
    7.8675   -7.0096   15.9415 C   0  0  0  0  0  0  0  0  0  0  0  0
    5.9733   -9.6553   17.3832 N   0  0  0  0  0  0  0  0  0  0  0  0
   10.2411   -2.9363   23.4301 C   0  0  0  0  0  0  0  0  0  0  0  0
   10.7288   -3.8197   19.9525 C   0  0  0  0  0  0  0  0  0  0  0  0
   10.1189   -5.0054   19.6987 C   0  0  0  0  0  0  0  0  0  0  0  0
  1  3  4  0
  1  7  4  0
  2 21  4  0
  2 27  4  0
  3  9  4  0
  3 10  4  0
  4  8  4  0
  4 18  4  0
  4 25  1  0
  5  9  4  0
  5 12  4  0
  6 13  1  0
  6 27  1  0
  7 28  4  0
  8 11  4  0
  9 29  4  0
 10 12  4  0
 11 24  1  0
 11 26  4  0
 12 25  1  0
 13 28  1  0
 14 20  4  0
 14 23  4  0
 15 17  4  0
 15 21  4  0
 16 19  4  0
 16 23  4  0
 17 22  4  0
 18 26  4  0
 19 24  4  0
 20 24  4  0
 22 27  4  0
 28 29  4  0
M  END
$$$$

 Created by Python create_sdf_string function

 29 33  0  0  0  0  0  0  0  0999 V2000
   10.7215   -3.3326   17.6437 C   0  0  0  0  0  0  0  0  0  0  0  0
    9.9489   -3.4675   24.6487 N   0  0  0  0  0  0  0  0  0  0  0  0
   10.0172   -4.4740   17.4101 C   0  0  0  0  0  0  0  0  0  0  0  0
    6.9051   -7.9575   16.4222 C   0  0  0  0  0  0  0  0  0  0  0  0
    8.9969   -6.3552   17.9668 N   0  0  0  0  0  0  0  0  0  0  0  0
   10.6702   -3.9051   22.4070 C   0  0  0  0  0  0  0  0  0  0  0  0
   11.0625   -3.0028   18.8894 C   0  0  0  0  0  0  0  0  0  0  0  0
    5.6180   -7.9194   16.1754 O   0  0  0  0  0  0  0  0  0  0  0  0
    9.7259   -5.3080   18.4485 C   0  0  0  0  0  0  0  0  0  0  0  0
    9.4578   -5.0200   16.3036 N   0  0  0  0  0  0  0  0  0  0  0  0
    5.0287   -8.9365   16.8223 C   0  0  0  0  0  0  0  0  0  0  0  0
    8.7742   -6.1498   16.6764 C   0  0  0  0  0  0  0  0  0  0  0  0
   10.9418   -3.4032   21.2053 O   0  0  0  0  0  0  0  0  0  0  0  0
    1.4797   -8.6258   16.2950 C   0  0  0  0  0  0  0  0  0  0  0  0
    9.2861   -1.2743   25.3585 C   0  0  0  0  0  0  0  0  0  0  0  0
    1.8892  -10.3985   17.7511 N   0  0  0  0  0  0  0  0  0  0  0  0
    9.6210   -0.6952   24.0976 C   0  0  0  0  0  0  0  0  0  0  0  0
    7.0792   -9.0217   17.1429 C   0  0  0  0  0  0  0  0  0  0  0  0
    3.1713  -10.1816   17.6634 C   0  0  0  0  0  0  0  0  0  0  0  0
    2.7878   -8.3822   16.2137 C   0  0  0  0  0  0  0  0  0  0  0  0
    9.4601   -2.6590   25.6528 C   0  0  0  0  0  0  0  0  0  0  0  0
   10.1182   -1.5672   23.1165 C   0  0  0  0  0  0  0  0  0  0  0  0
    1.0552   -9.6360   17.0650 C   0  0  0  0  0  0  0  0  0  0  0  0
    3.6519   -9.1783   16.9039 C   0  0  0  0  0  0  0  0  0  0  0  0
    7.8675   -7.0096   15.9415 C   0  0  0  0  0  0  0  0  0  0  0  0
    5.9733   -9.6553   17.3832 N   0  0  0  0  0  0  0  0  0  0  0  0
   10.2411   -2.9363   23.4301 C   0  0  0  0  0  0  0  0  0  0  0  0
   10.7288   -3.8197   19.9525 C   0  0  0  0  0  0  0  0  0  0  0  0
   10.1189   -5.0054   19.6987 C   0  0  0  0  0  0  0  0  0  0  0  0
  1  3  4  0
  1  7  4  0
  2 21  4  0
  2 27  4  0
  3  9  4  0
  3 10  4  0
  4  8  4  0
  4 18  4  0
  4 25  1  0
  5  9  4  0
  5 12  4  0
  6 13  1  0
  6 27  1  0
  7 28  4  0
  8 11  4  0
  9 29  4  0
 10 12  4  0
 11 24  1  0
 11 26  4  0
 12 25  1  0
 13 28  1  0
 14 20  4  0
 14 23  4  0
 15 17  4  0
 15 21  4  0
 16 19  4  0
 16 23  4  0
 17 22  4  0
 18 26  4  0
 19 24  4  0
 20 24  4  0
 22 27  4  0
 28 29  4  0
M  END
$$$$

 Created by Python create_sdf_string function

 29 33  0  0  0  0  0  0  0  0999 V2000
   10.7215   -3.3326   17.6437 C   0  0  0  0  0  0  0  0  0  0  0  0
    9.9489   -3.4675   24.6487 N   0  0  0  0  0  0  0  0  0  0  0  0
   10.0172   -4.4740   17.4101 C   0  0  0  0  0  0  0  0  0  0  0  0
    6.9051   -7.9575   16.4222 C   0  0  0  0  0  0  0  0  0  0  0  0
    8.9969   -6.3552   17.9668 N   0  0  0  0  0  0  0  0  0  0  0  0
   10.6702   -3.9051   22.4070 C   0  0  0  0  0  0  0  0  0  0  0  0
   11.0625   -3.0028   18.8894 C   0  0  0  0  0  0  0  0  0  0  0  0
    5.6180   -7.9194   16.1754 O   0  0  0  0  0  0  0  0  0  0  0  0
    9.7259   -5.3080   18.4485 C   0  0  0  0  0  0  0  0  0  0  0  0
    9.4578   -5.0200   16.3036 N   0  0  0  0  0  0  0  0  0  0  0  0
    5.0287   -8.9365   16.8223 C   0  0  0  0  0  0  0  0  0  0  0  0
    8.7742   -6.1498   16.6764 C   0  0  0  0  0  0  0  0  0  0  0  0
   10.9418   -3.4032   21.2053 O   0  0  0  0  0  0  0  0  0  0  0  0
    1.4797   -8.6258   16.2950 C   0  0  0  0  0  0  0  0  0  0  0  0
    9.2861   -1.2743   25.3585 C   0  0  0  0  0  0  0  0  0  0  0  0
    1.8892  -10.3985   17.7511 N   0  0  0  0  0  0  0  0  0  0  0  0
    9.6210   -0.6952   24.0976 C   0  0  0  0  0  0  0  0  0  0  0  0
    7.0792   -9.0217   17.1429 C   0  0  0  0  0  0  0  0  0  0  0  0
    3.1713  -10.1816   17.6634 C   0  0  0  0  0  0  0  0  0  0  0  0
    2.7878   -8.3822   16.2137 C   0  0  0  0  0  0  0  0  0  0  0  0
    9.4601   -2.6590   25.6528 C   0  0  0  0  0  0  0  0  0  0  0  0
   10.1182   -1.5672   23.1165 C   0  0  0  0  0  0  0  0  0  0  0  0
    1.0552   -9.6360   17.0650 C   0  0  0  0  0  0  0  0  0  0  0  0
    3.6519   -9.1783   16.9039 C   0  0  0  0  0  0  0  0  0  0  0  0
    7.8675   -7.0096   15.9415 C   0  0  0  0  0  0  0  0  0  0  0  0
    5.9733   -9.6553   17.3832 N   0  0  0  0  0  0  0  0  0  0  0  0
   10.2411   -2.9363   23.4301 C   0  0  0  0  0  0  0  0  0  0  0  0
   10.7288   -3.8197   19.9525 C   0  0  0  0  0  0  0  0  0  0  0  0
   10.1189   -5.0054   19.6987 C   0  0  0  0  0  0  0  0  0  0  0  0
  1  3  4  0
  1  7  4  0
  2 21  4  0
  2 27  4  0
  3  9  4  0
  3 10  4  0
  4  8  4  0
  4 18  4  0
  4 25  1  0
  5  9  4  0
  5 12  4  0
  6 13  1  0
  6 27  1  0
  7 28  4  0
  8 11  4  0
  9 29  4  0
 10 12  4  0
 11 24  1  0
 11 26  4  0
 12 25  1  0
 13 28  1  0
 14 20  4  0
 14 23  4  0
 15 17  4  0
 15 21  4  0
 16 19  4  0
 16 23  4  0
 17 22  4  0
 18 26  4  0
 19 24  4  0
 20 24  4  0
 22 27  4  0
 28 29  4  0
M  END
$$$$

 Created by Python create_sdf_string function

 29 33  0  0  0  0  0  0  0  0999 V2000
   10.7215   -3.3326   17.6437 C   0  0  0  0  0  0  0  0  0  0  0  0
    9.9489   -3.4675   24.6487 N   0  0  0  0  0  0  0  0  0  0  0  0
   10.0172   -4.4740   17.4101 C   0  0  0  0  0  0  0  0  0  0  0  0
    6.9051   -7.9575   16.4222 C   0  0  0  0  0  0  0  0  0  0  0  0
    8.9969   -6.3552   17.9668 N   0  0  0  0  0  0  0  0  0  0  0  0
   10.6702   -3.9051   22.4070 C   0  0  0  0  0  0  0  0  0  0  0  0
   11.0625   -3.0028   18.8894 C   0  0  0  0  0  0  0  0  0  0  0  0
    5.6180   -7.9194   16.1754 O   0  0  0  0  0  0  0  0  0  0  0  0
    9.7259   -5.3080   18.4485 C   0  0  0  0  0  0  0  0  0  0  0  0
    9.4578   -5.0200   16.3036 N   0  0  0  0  0  0  0  0  0  0  0  0
    5.0287   -8.9365   16.8223 C   0  0  0  0  0  0  0  0  0  0  0  0
    8.7742   -6.1498   16.6764 C   0  0  0  0  0  0  0  0  0  0  0  0
   10.9418   -3.4032   21.2053 O   0  0  0  0  0  0  0  0  0  0  0  0
    1.4797   -8.6258   16.2950 C   0  0  0  0  0  0  0  0  0  0  0  0
    9.2861   -1.2743   25.3585 C   0  0  0  0  0  0  0  0  0  0  0  0
    1.8892  -10.3985   17.7511 N   0  0  0  0  0  0  0  0  0  0  0  0
    9.6210   -0.6952   24.0976 C   0  0  0  0  0  0  0  0  0  0  0  0
    7.0792   -9.0217   17.1429 C   0  0  0  0  0  0  0  0  0  0  0  0
    3.1713  -10.1816   17.6634 C   0  0  0  0  0  0  0  0  0  0  0  0
    2.7878   -8.3822   16.2137 C   0  0  0  0  0  0  0  0  0  0  0  0
    9.4601   -2.6590   25.6528 C   0  0  0  0  0  0  0  0  0  0  0  0
   10.1182   -1.5672   23.1165 C   0  0  0  0  0  0  0  0  0  0  0  0
    1.0552   -9.6360   17.0650 C   0  0  0  0  0  0  0  0  0  0  0  0
    3.6519   -9.1783   16.9039 C   0  0  0  0  0  0  0  0  0  0  0  0
    7.8675   -7.0096   15.9415 C   0  0  0  0  0  0  0  0  0  0  0  0
    5.9733   -9.6553   17.3832 N   0  0  0  0  0  0  0  0  0  0  0  0
   10.2411   -2.9363   23.4301 C   0  0  0  0  0  0  0  0  0  0  0  0
   10.7288   -3.8197   19.9525 C   0  0  0  0  0  0  0  0  0  0  0  0
   10.1189   -5.0054   19.6987 C   0  0  0  0  0  0  0  0  0  0  0  0
  1  3  4  0
  1  7  4  0
  2 21  4  0
  2 27  4  0
  3  9  4  0
  3 10  4  0
  4  8  4  0
  4 18  4  0
  4 25  1  0
  5  9  4  0
  5 12  4  0
  6 13  1  0
  6 27  1  0
  7 28  4  0
  8 11  4  0
  9 29  4  0
 10 12  4  0
 11 24  1  0
 11 26  4  0
 12 25  1  0
 13 28  1  0
 14 20  4  0
 14 23  4  0
 15 17  4  0
 15 21  4  0
 16 19  4  0
 16 23  4  0
 17 22  4  0
 18 26  4  0
 19 24  4  0
 20 24  4  0
 22 27  4  0
 28 29  4  0
M  END
$$$$

 Created by Python create_sdf_string function

 29 33  0  0  0  0  0  0  0  0999 V2000
   10.7215   -3.3326   17.6437 C   0  0  0  0  0  0  0  0  0  0  0  0
    9.9489   -3.4675   24.6487 N   0  0  0  0  0  0  0  0  0  0  0  0
   10.0172   -4.4740   17.4101 C   0  0  0  0  0  0  0  0  0  0  0  0
    6.9051   -7.9575   16.4222 C   0  0  0  0  0  0  0  0  0  0  0  0
    8.9969   -6.3552   17.9668 N   0  0  0  0  0  0  0  0  0  0  0  0
   10.6702   -3.9051   22.4070 C   0  0  0  0  0  0  0  0  0  0  0  0
   11.0625   -3.0028   18.8894 C   0  0  0  0  0  0  0  0  0  0  0  0
    5.6180   -7.9194   16.1754 O   0  0  0  0  0  0  0  0  0  0  0  0
    9.7259   -5.3080   18.4485 C   0  0  0  0  0  0  0  0  0  0  0  0
    9.4578   -5.0200   16.3036 N   0  0  0  0  0  0  0  0  0  0  0  0
    5.0287   -8.9365   16.8223 C   0  0  0  0  0  0  0  0  0  0  0  0
    8.7742   -6.1498   16.6764 C   0  0  0  0  0  0  0  0  0  0  0  0
   10.9418   -3.4032   21.2053 O   0  0  0  0  0  0  0  0  0  0  0  0
    1.4797   -8.6258   16.2950 C   0  0  0  0  0  0  0  0  0  0  0  0
    9.2861   -1.2743   25.3585 C   0  0  0  0  0  0  0  0  0  0  0  0
    1.8892  -10.3985   17.7511 N   0  0  0  0  0  0  0  0  0  0  0  0
    9.6210   -0.6952   24.0976 C   0  0  0  0  0  0  0  0  0  0  0  0
    7.0792   -9.0217   17.1429 C   0  0  0  0  0  0  0  0  0  0  0  0
    3.1713  -10.1816   17.6634 C   0  0  0  0  0  0  0  0  0  0  0  0
    2.7878   -8.3822   16.2137 C   0  0  0  0  0  0  0  0  0  0  0  0
    9.4601   -2.6590   25.6528 C   0  0  0  0  0  0  0  0  0  0  0  0
   10.1182   -1.5672   23.1165 C   0  0  0  0  0  0  0  0  0  0  0  0
    1.0552   -9.6360   17.0650 C   0  0  0  0  0  0  0  0  0  0  0  0
    3.6519   -9.1783   16.9039 C   0  0  0  0  0  0  0  0  0  0  0  0
    7.8675   -7.0096   15.9415 C   0  0  0  0  0  0  0  0  0  0  0  0
    5.9733   -9.6553   17.3832 N   0  0  0  0  0  0  0  0  0  0  0  0
   10.2411   -2.9363   23.4301 C   0  0  0  0  0  0  0  0  0  0  0  0
   10.7288   -3.8197   19.9525 C   0  0  0  0  0  0  0  0  0  0  0  0
   10.1189   -5.0054   19.6987 C   0  0  0  0  0  0  0  0  0  0  0  0
  1  3  4  0
  1  7  4  0
  2 21  4  0
  2 27  4  0
  3  9  4  0
  3 10  4  0
  4  8  4  0
  4 18  4  0
  4 25  1  0
  5  9  4  0
  5 12  4  0
  6 13  1  0
  6 27  1  0
  7 28  4  0
  8 11  4  0
  9 29  4  0
 10 12  4  0
 11 24  1  0
 11 26  4  0
 12 25  1  0
 13 28  1  0
 14 20  4  0
 14 23  4  0
 15 17  4  0
 15 21  4  0
 16 19  4  0
 16 23  4  0
 17 22  4  0
 18 26  4  0
 19 24  4  0
 20 24  4  0
 22 27  4  0
 28 29  4  0
M  END
$$$$

 Created by Python create_sdf_string function

 29 33  0  0  0  0  0  0  0  0999 V2000
   10.7215   -3.3326   17.6437 C   0  0  0  0  0  0  0  0  0  0  0  0
    9.9489   -3.4675   24.6487 N   0  0  0  0  0  0  0  0  0  0  0  0
   10.0172   -4.4740   17.4101 C   0  0  0  0  0  0  0  0  0  0  0  0
    6.9051   -7.9575   16.4222 C   0  0  0  0  0  0  0  0  0  0  0  0
    8.9969   -6.3552   17.9668 N   0  0  0  0  0  0  0  0  0  0  0  0
   10.6702   -3.9051   22.4070 C   0  0  0  0  0  0  0  0  0  0  0  0
   11.0625   -3.0028   18.8894 C   0  0  0  0  0  0  0  0  0  0  0  0
    5.6180   -7.9194   16.1754 O   0  0  0  0  0  0  0  0  0  0  0  0
    9.7259   -5.3080   18.4485 C   0  0  0  0  0  0  0  0  0  0  0  0
    9.4578   -5.0200   16.3036 N   0  0  0  0  0  0  0  0  0  0  0  0
    5.0287   -8.9365   16.8223 C   0  0  0  0  0  0  0  0  0  0  0  0
    8.7742   -6.1498   16.6764 C   0  0  0  0  0  0  0  0  0  0  0  0
   10.9418   -3.4032   21.2053 O   0  0  0  0  0  0  0  0  0  0  0  0
    1.4797   -8.6258   16.2950 C   0  0  0  0  0  0  0  0  0  0  0  0
    9.2861   -1.2743   25.3585 C   0  0  0  0  0  0  0  0  0  0  0  0
    1.8892  -10.3985   17.7511 N   0  0  0  0  0  0  0  0  0  0  0  0
    9.6210   -0.6952   24.0976 C   0  0  0  0  0  0  0  0  0  0  0  0
    7.0792   -9.0217   17.1429 C   0  0  0  0  0  0  0  0  0  0  0  0
    3.1713  -10.1816   17.6634 C   0  0  0  0  0  0  0  0  0  0  0  0
    2.7878   -8.3822   16.2137 C   0  0  0  0  0  0  0  0  0  0  0  0
    9.4601   -2.6590   25.6528 C   0  0  0  0  0  0  0  0  0  0  0  0
   10.1182   -1.5672   23.1165 C   0  0  0  0  0  0  0  0  0  0  0  0
    1.0552   -9.6360   17.0650 C   0  0  0  0  0  0  0  0  0  0  0  0
    3.6519   -9.1783   16.9039 C   0  0  0  0  0  0  0  0  0  0  0  0
    7.8675   -7.0096   15.9415 C   0  0  0  0  0  0  0  0  0  0  0  0
    5.9733   -9.6553   17.3832 N   0  0  0  0  0  0  0  0  0  0  0  0
   10.2411   -2.9363   23.4301 C   0  0  0  0  0  0  0  0  0  0  0  0
   10.7288   -3.8197   19.9525 C   0  0  0  0  0  0  0  0  0  0  0  0
   10.1189   -5.0054   19.6987 C   0  0  0  0  0  0  0  0  0  0  0  0
  1  3  4  0
  1  7  4  0
  2 21  4  0
  2 27  4  0
  3  9  4  0
  3 10  4  0
  4  8  4  0
  4 18  4  0
  4 25  1  0
  5  9  4  0
  5 12  4  0
  6 13  1  0
  6 27  1  0
  7 28  4  0
  8 11  4  0
  9 29  4  0
 10 12  4  0
 11 24  1  0
 11 26  4  0
 12 25  1  0
 13 28  1  0
 14 20  4  0
 14 23  4  0
 15 17  4  0
 15 21  4  0
 16 19  4  0
 16 23  4  0
 17 22  4  0
 18 26  4  0
 19 24  4  0
 20 24  4  0
 22 27  4  0
 28 29  4  0
M  END
$$$$

 Created by Python create_sdf_string function

 29 33  0  0  0  0  0  0  0  0999 V2000
   10.7215   -3.3326   17.6437 C   0  0  0  0  0  0  0  0  0  0  0  0
    9.9489   -3.4675   24.6487 N   0  0  0  0  0  0  0  0  0  0  0  0
   10.0172   -4.4740   17.4101 C   0  0  0  0  0  0  0  0  0  0  0  0
    6.9051   -7.9575   16.4222 C   0  0  0  0  0  0  0  0  0  0  0  0
    8.9969   -6.3552   17.9668 N   0  0  0  0  0  0  0  0  0  0  0  0
   10.6702   -3.9051   22.4070 C   0  0  0  0  0  0  0  0  0  0  0  0
   11.0625   -3.0028   18.8894 C   0  0  0  0  0  0  0  0  0  0  0  0
    5.6180   -7.9194   16.1754 O   0  0  0  0  0  0  0  0  0  0  0  0
    9.7259   -5.3080   18.4485 C   0  0  0  0  0  0  0  0  0  0  0  0
    9.4578   -5.0200   16.3036 N   0  0  0  0  0  0  0  0  0  0  0  0
    5.0287   -8.9365   16.8223 C   0  0  0  0  0  0  0  0  0  0  0  0
    8.7742   -6.1498   16.6764 C   0  0  0  0  0  0  0  0  0  0  0  0
   10.9418   -3.4032   21.2053 O   0  0  0  0  0  0  0  0  0  0  0  0
    1.4797   -8.6258   16.2950 C   0  0  0  0  0  0  0  0  0  0  0  0
    9.2861   -1.2743   25.3585 C   0  0  0  0  0  0  0  0  0  0  0  0
    1.8892  -10.3985   17.7511 N   0  0  0  0  0  0  0  0  0  0  0  0
    9.6210   -0.6952   24.0976 C   0  0  0  0  0  0  0  0  0  0  0  0
    7.0792   -9.0217   17.1429 C   0  0  0  0  0  0  0  0  0  0  0  0
    3.1713  -10.1816   17.6634 C   0  0  0  0  0  0  0  0  0  0  0  0
    2.7878   -8.3822   16.2137 C   0  0  0  0  0  0  0  0  0  0  0  0
    9.4601   -2.6590   25.6528 C   0  0  0  0  0  0  0  0  0  0  0  0
   10.1182   -1.5672   23.1165 C   0  0  0  0  0  0  0  0  0  0  0  0
    1.0552   -9.6360   17.0650 C   0  0  0  0  0  0  0  0  0  0  0  0
    3.6519   -9.1783   16.9039 C   0  0  0  0  0  0  0  0  0  0  0  0
    7.8675   -7.0096   15.9415 C   0  0  0  0  0  0  0  0  0  0  0  0
    5.9733   -9.6553   17.3832 N   0  0  0  0  0  0  0  0  0  0  0  0
   10.2411   -2.9363   23.4301 C   0  0  0  0  0  0  0  0  0  0  0  0
   10.7288   -3.8197   19.9525 C   0  0  0  0  0  0  0  0  0  0  0  0
   10.1189   -5.0054   19.6987 C   0  0  0  0  0  0  0  0  0  0  0  0
  1  3  4  0
  1  7  4  0
  2 21  4  0
  2 27  4  0
  3  9  4  0
  3 10  4  0
  4  8  4  0
  4 18  4  0
  4 25  1  0
  5  9  4  0
  5 12  4  0
  6 13  1  0
  6 27  1  0
  7 28  4  0
  8 11  4  0
  9 29  4  0
 10 12  4  0
 11 24  1  0
 11 26  4  0
 12 25  1  0
 13 28  1  0
 14 20  4  0
 14 23  4  0
 15 17  4  0
 15 21  4  0
 16 19  4  0
 16 23  4  0
 17 22  4  0
 18 26  4  0
 19 24  4  0
 20 24  4  0
 22 27  4  0
 28 29  4  0
M  END
$$$$

 Created by Python create_sdf_string function

 29 33  0  0  0  0  0  0  0  0999 V2000
   10.7215   -3.3326   17.6437 C   0  0  0  0  0  0  0  0  0  0  0  0
    9.9489   -3.4675   24.6487 N   0  0  0  0  0  0  0  0  0  0  0  0
   10.0172   -4.4740   17.4101 C   0  0  0  0  0  0  0  0  0  0  0  0
    6.9051   -7.9575   16.4222 C   0  0  0  0  0  0  0  0  0  0  0  0
    8.9969   -6.3552   17.9668 N   0  0  0  0  0  0  0  0  0  0  0  0
   10.6702   -3.9051   22.4070 C   0  0  0  0  0  0  0  0  0  0  0  0
   11.0625   -3.0028   18.8894 C   0  0  0  0  0  0  0  0  0  0  0  0
    5.6180   -7.9194   16.1754 O   0  0  0  0  0  0  0  0  0  0  0  0
    9.7259   -5.3080   18.4485 C   0  0  0  0  0  0  0  0  0  0  0  0
    9.4578   -5.0200   16.3036 N   0  0  0  0  0  0  0  0  0  0  0  0
    5.0287   -8.9365   16.8223 C   0  0  0  0  0  0  0  0  0  0  0  0
    8.7742   -6.1498   16.6764 C   0  0  0  0  0  0  0  0  0  0  0  0
   10.9418   -3.4032   21.2053 O   0  0  0  0  0  0  0  0  0  0  0  0
    1.4797   -8.6258   16.2950 C   0  0  0  0  0  0  0  0  0  0  0  0
    9.2861   -1.2743   25.3585 C   0  0  0  0  0  0  0  0  0  0  0  0
    1.8892  -10.3985   17.7511 N   0  0  0  0  0  0  0  0  0  0  0  0
    9.6210   -0.6952   24.0976 C   0  0  0  0  0  0  0  0  0  0  0  0
    7.0792   -9.0217   17.1429 C   0  0  0  0  0  0  0  0  0  0  0  0
    3.1713  -10.1816   17.6634 C   0  0  0  0  0  0  0  0  0  0  0  0
    2.7878   -8.3822   16.2137 C   0  0  0  0  0  0  0  0  0  0  0  0
    9.4601   -2.6590   25.6528 C   0  0  0  0  0  0  0  0  0  0  0  0
   10.1182   -1.5672   23.1165 C   0  0  0  0  0  0  0  0  0  0  0  0
    1.0552   -9.6360   17.0650 C   0  0  0  0  0  0  0  0  0  0  0  0
    3.6519   -9.1783   16.9039 C   0  0  0  0  0  0  0  0  0  0  0  0
    7.8675   -7.0096   15.9415 C   0  0  0  0  0  0  0  0  0  0  0  0
    5.9733   -9.6553   17.3832 N   0  0  0  0  0  0  0  0  0  0  0  0
   10.2411   -2.9363   23.4301 C   0  0  0  0  0  0  0  0  0  0  0  0
   10.7288   -3.8197   19.9525 C   0  0  0  0  0  0  0  0  0  0  0  0
   10.1189   -5.0054   19.6987 C   0  0  0  0  0  0  0  0  0  0  0  0
  1  3  4  0
  1  7  4  0
  2 21  4  0
  2 27  4  0
  3  9  4  0
  3 10  4  0
  4  8  4  0
  4 18  4  0
  4 25  1  0
  5  9  4  0
  5 12  4  0
  6 13  1  0
  6 27  1  0
  7 28  4  0
  8 11  4  0
  9 29  4  0
 10 12  4  0
 11 24  1  0
 11 26  4  0
 12 25  1  0
 13 28  1  0
 14 20  4  0
 14 23  4  0
 15 17  4  0
 15 21  4  0
 16 19  4  0
 16 23  4  0
 17 22  4  0
 18 26  4  0
 19 24  4  0
 20 24  4  0
 22 27  4  0
 28 29  4  0
M  END
$$$$

 Created by Python create_sdf_string function

 29 33  0  0  0  0  0  0  0  0999 V2000
   10.7215   -3.3326   17.6437 C   0  0  0  0  0  0  0  0  0  0  0  0
    9.9489   -3.4675   24.6487 N   0  0  0  0  0  0  0  0  0  0  0  0
   10.0172   -4.4740   17.4101 C   0  0  0  0  0  0  0  0  0  0  0  0
    6.9051   -7.9575   16.4222 C   0  0  0  0  0  0  0  0  0  0  0  0
    8.9969   -6.3552   17.9668 N   0  0  0  0  0  0  0  0  0  0  0  0
   10.6702   -3.9051   22.4070 C   0  0  0  0  0  0  0  0  0  0  0  0
   11.0625   -3.0028   18.8894 C   0  0  0  0  0  0  0  0  0  0  0  0
    5.6180   -7.9194   16.1754 O   0  0  0  0  0  0  0  0  0  0  0  0
    9.7259   -5.3080   18.4485 C   0  0  0  0  0  0  0  0  0  0  0  0
    9.4578   -5.0200   16.3036 N   0  0  0  0  0  0  0  0  0  0  0  0
    5.0287   -8.9365   16.8223 C   0  0  0  0  0  0  0  0  0  0  0  0
    8.7742   -6.1498   16.6764 C   0  0  0  0  0  0  0  0  0  0  0  0
   10.9418   -3.4032   21.2053 O   0  0  0  0  0  0  0  0  0  0  0  0
    1.4797   -8.6258   16.2950 C   0  0  0  0  0  0  0  0  0  0  0  0
    9.2861   -1.2743   25.3585 C   0  0  0  0  0  0  0  0  0  0  0  0
    1.8892  -10.3985   17.7511 N   0  0  0  0  0  0  0  0  0  0  0  0
    9.6210   -0.6952   24.0976 C   0  0  0  0  0  0  0  0  0  0  0  0
    7.0792   -9.0217   17.1429 C   0  0  0  0  0  0  0  0  0  0  0  0
    3.1713  -10.1816   17.6634 C   0  0  0  0  0  0  0  0  0  0  0  0
    2.7878   -8.3822   16.2137 C   0  0  0  0  0  0  0  0  0  0  0  0
    9.4601   -2.6590   25.6528 C   0  0  0  0  0  0  0  0  0  0  0  0
   10.1182   -1.5672   23.1165 C   0  0  0  0  0  0  0  0  0  0  0  0
    1.0552   -9.6360   17.0650 C   0  0  0  0  0  0  0  0  0  0  0  0
    3.6519   -9.1783   16.9039 C   0  0  0  0  0  0  0  0  0  0  0  0
    7.8675   -7.0096   15.9415 C   0  0  0  0  0  0  0  0  0  0  0  0
    5.9733   -9.6553   17.3832 N   0  0  0  0  0  0  0  0  0  0  0  0
   10.2411   -2.9363   23.4301 C   0  0  0  0  0  0  0  0  0  0  0  0
   10.7288   -3.8197   19.9525 C   0  0  0  0  0  0  0  0  0  0  0  0
   10.1189   -5.0054   19.6987 C   0  0  0  0  0  0  0  0  0  0  0  0
  1  3  4  0
  1  7  4  0
  2 21  4  0
  2 27  4  0
  3  9  4  0
  3 10  4  0
  4  8  4  0
  4 18  4  0
  4 25  1  0
  5  9  4  0
  5 12  4  0
  6 13  1  0
  6 27  1  0
  7 28  4  0
  8 11  4  0
  9 29  4  0
 10 12  4  0
 11 24  1  0
 11 26  4  0
 12 25  1  0
 13 28  1  0
 14 20  4  0
 14 23  4  0
 15 17  4  0
 15 21  4  0
 16 19  4  0
 16 23  4  0
 17 22  4  0
 18 26  4  0
 19 24  4  0
 20 24  4  0
 22 27  4  0
 28 29  4  0
M  END
$$$$

 Created by Python create_sdf_string function

 29 33  0  0  0  0  0  0  0  0999 V2000
   10.7215   -3.3326   17.6437 C   0  0  0  0  0  0  0  0  0  0  0  0
    9.9489   -3.4675   24.6487 N   0  0  0  0  0  0  0  0  0  0  0  0
   10.0172   -4.4740   17.4101 C   0  0  0  0  0  0  0  0  0  0  0  0
    6.9051   -7.9575   16.4222 C   0  0  0  0  0  0  0  0  0  0  0  0
    8.9969   -6.3552   17.9668 N   0  0  0  0  0  0  0  0  0  0  0  0
   10.6702   -3.9051   22.4070 C   0  0  0  0  0  0  0  0  0  0  0  0
   11.0625   -3.0028   18.8894 C   0  0  0  0  0  0  0  0  0  0  0  0
    5.6180   -7.9194   16.1754 O   0  0  0  0  0  0  0  0  0  0  0  0
    9.7259   -5.3080   18.4485 C   0  0  0  0  0  0  0  0  0  0  0  0
    9.4578   -5.0200   16.3036 N   0  0  0  0  0  0  0  0  0  0  0  0
    5.0287   -8.9365   16.8223 C   0  0  0  0  0  0  0  0  0  0  0  0
    8.7742   -6.1498   16.6764 C   0  0  0  0  0  0  0  0  0  0  0  0
   10.9418   -3.4032   21.2053 O   0  0  0  0  0  0  0  0  0  0  0  0
    1.4797   -8.6258   16.2950 C   0  0  0  0  0  0  0  0  0  0  0  0
    9.2861   -1.2743   25.3585 C   0  0  0  0  0  0  0  0  0  0  0  0
    1.8892  -10.3985   17.7511 N   0  0  0  0  0  0  0  0  0  0  0  0
    9.6210   -0.6952   24.0976 C   0  0  0  0  0  0  0  0  0  0  0  0
    7.0792   -9.0217   17.1429 C   0  0  0  0  0  0  0  0  0  0  0  0
    3.1713  -10.1816   17.6634 C   0  0  0  0  0  0  0  0  0  0  0  0
    2.7878   -8.3822   16.2137 C   0  0  0  0  0  0  0  0  0  0  0  0
    9.4601   -2.6590   25.6528 C   0  0  0  0  0  0  0  0  0  0  0  0
   10.1182   -1.5672   23.1165 C   0  0  0  0  0  0  0  0  0  0  0  0
    1.0552   -9.6360   17.0650 C   0  0  0  0  0  0  0  0  0  0  0  0
    3.6519   -9.1783   16.9039 C   0  0  0  0  0  0  0  0  0  0  0  0
    7.8675   -7.0096   15.9415 C   0  0  0  0  0  0  0  0  0  0  0  0
    5.9733   -9.6553   17.3832 N   0  0  0  0  0  0  0  0  0  0  0  0
   10.2411   -2.9363   23.4301 C   0  0  0  0  0  0  0  0  0  0  0  0
   10.7288   -3.8197   19.9525 C   0  0  0  0  0  0  0  0  0  0  0  0
   10.1189   -5.0054   19.6987 C   0  0  0  0  0  0  0  0  0  0  0  0
  1  3  4  0
  1  7  4  0
  2 21  4  0
  2 27  4  0
  3  9  4  0
  3 10  4  0
  4  8  4  0
  4 18  4  0
  4 25  1  0
  5  9  4  0
  5 12  4  0
  6 13  1  0
  6 27  1  0
  7 28  4  0
  8 11  4  0
  9 29  4  0
 10 12  4  0
 11 24  1  0
 11 26  4  0
 12 25  1  0
 13 28  1  0
 14 20  4  0
 14 23  4  0
 15 17  4  0
 15 21  4  0
 16 19  4  0
 16 23  4  0
 17 22  4  0
 18 26  4  0
 19 24  4  0
 20 24  4  0
 22 27  4  0
 28 29  4  0
M  END
$$$$

 Created by Python create_sdf_string function

 29 33  0  0  0  0  0  0  0  0999 V2000
   10.7215   -3.3326   17.6437 C   0  0  0  0  0  0  0  0  0  0  0  0
    9.9489   -3.4675   24.6487 N   0  0  0  0  0  0  0  0  0  0  0  0
   10.0172   -4.4740   17.4101 C   0  0  0  0  0  0  0  0  0  0  0  0
    6.9051   -7.9575   16.4222 C   0  0  0  0  0  0  0  0  0  0  0  0
    8.9969   -6.3552   17.9668 N   0  0  0  0  0  0  0  0  0  0  0  0
   10.6702   -3.9051   22.4070 C   0  0  0  0  0  0  0  0  0  0  0  0
   11.0625   -3.0028   18.8894 C   0  0  0  0  0  0  0  0  0  0  0  0
    5.6180   -7.9194   16.1754 O   0  0  0  0  0  0  0  0  0  0  0  0
    9.7259   -5.3080   18.4485 C   0  0  0  0  0  0  0  0  0  0  0  0
    9.4578   -5.0200   16.3036 N   0  0  0  0  0  0  0  0  0  0  0  0
    5.0287   -8.9365   16.8223 C   0  0  0  0  0  0  0  0  0  0  0  0
    8.7742   -6.1498   16.6764 C   0  0  0  0  0  0  0  0  0  0  0  0
   10.9418   -3.4032   21.2053 O   0  0  0  0  0  0  0  0  0  0  0  0
    1.4797   -8.6258   16.2950 C   0  0  0  0  0  0  0  0  0  0  0  0
    9.2861   -1.2743   25.3585 C   0  0  0  0  0  0  0  0  0  0  0  0
    1.8892  -10.3985   17.7511 N   0  0  0  0  0  0  0  0  0  0  0  0
    9.6210   -0.6952   24.0976 C   0  0  0  0  0  0  0  0  0  0  0  0
    7.0792   -9.0217   17.1429 C   0  0  0  0  0  0  0  0  0  0  0  0
    3.1713  -10.1816   17.6634 C   0  0  0  0  0  0  0  0  0  0  0  0
    2.7878   -8.3822   16.2137 C   0  0  0  0  0  0  0  0  0  0  0  0
    9.4601   -2.6590   25.6528 C   0  0  0  0  0  0  0  0  0  0  0  0
   10.1182   -1.5672   23.1165 C   0  0  0  0  0  0  0  0  0  0  0  0
    1.0552   -9.6360   17.0650 C   0  0  0  0  0  0  0  0  0  0  0  0
    3.6519   -9.1783   16.9039 C   0  0  0  0  0  0  0  0  0  0  0  0
    7.8675   -7.0096   15.9415 C   0  0  0  0  0  0  0  0  0  0  0  0
    5.9733   -9.6553   17.3832 N   0  0  0  0  0  0  0  0  0  0  0  0
   10.2411   -2.9363   23.4301 C   0  0  0  0  0  0  0  0  0  0  0  0
   10.7288   -3.8197   19.9525 C   0  0  0  0  0  0  0  0  0  0  0  0
   10.1189   -5.0054   19.6987 C   0  0  0  0  0  0  0  0  0  0  0  0
  1  3  4  0
  1  7  4  0
  2 21  4  0
  2 27  4  0
  3  9  4  0
  3 10  4  0
  4  8  4  0
  4 18  4  0
  4 25  1  0
  5  9  4  0
  5 12  4  0
  6 13  1  0
  6 27  1  0
  7 28  4  0
  8 11  4  0
  9 29  4  0
 10 12  4  0
 11 24  1  0
 11 26  4  0
 12 25  1  0
 13 28  1  0
 14 20  4  0
 14 23  4  0
 15 17  4  0
 15 21  4  0
 16 19  4  0
 16 23  4  0
 17 22  4  0
 18 26  4  0
 19 24  4  0
 20 24  4  0
 22 27  4  0
 28 29  4  0
M  END
$$$$

 Created by Python create_sdf_string function

 29 33  0  0  0  0  0  0  0  0999 V2000
   10.7215   -3.3326   17.6437 C   0  0  0  0  0  0  0  0  0  0  0  0
    9.9489   -3.4675   24.6487 N   0  0  0  0  0  0  0  0  0  0  0  0
   10.0172   -4.4740   17.4101 C   0  0  0  0  0  0  0  0  0  0  0  0
    6.9051   -7.9575   16.4222 C   0  0  0  0  0  0  0  0  0  0  0  0
    8.9969   -6.3552   17.9668 N   0  0  0  0  0  0  0  0  0  0  0  0
   10.6702   -3.9051   22.4070 C   0  0  0  0  0  0  0  0  0  0  0  0
   11.0625   -3.0028   18.8894 C   0  0  0  0  0  0  0  0  0  0  0  0
    5.6180   -7.9194   16.1754 O   0  0  0  0  0  0  0  0  0  0  0  0
    9.7259   -5.3080   18.4485 C   0  0  0  0  0  0  0  0  0  0  0  0
    9.4578   -5.0200   16.3036 N   0  0  0  0  0  0  0  0  0  0  0  0
    5.0287   -8.9365   16.8223 C   0  0  0  0  0  0  0  0  0  0  0  0
    8.7742   -6.1498   16.6764 C   0  0  0  0  0  0  0  0  0  0  0  0
   10.9418   -3.4032   21.2053 O   0  0  0  0  0  0  0  0  0  0  0  0
    1.4797   -8.6258   16.2950 C   0  0  0  0  0  0  0  0  0  0  0  0
    9.2861   -1.2743   25.3585 C   0  0  0  0  0  0  0  0  0  0  0  0
    1.8892  -10.3985   17.7511 N   0  0  0  0  0  0  0  0  0  0  0  0
    9.6210   -0.6952   24.0976 C   0  0  0  0  0  0  0  0  0  0  0  0
    7.0792   -9.0217   17.1429 C   0  0  0  0  0  0  0  0  0  0  0  0
    3.1713  -10.1816   17.6634 C   0  0  0  0  0  0  0  0  0  0  0  0
    2.7878   -8.3822   16.2137 C   0  0  0  0  0  0  0  0  0  0  0  0
    9.4601   -2.6590   25.6528 C   0  0  0  0  0  0  0  0  0  0  0  0
   10.1182   -1.5672   23.1165 C   0  0  0  0  0  0  0  0  0  0  0  0
    1.0552   -9.6360   17.0650 C   0  0  0  0  0  0  0  0  0  0  0  0
    3.6519   -9.1783   16.9039 C   0  0  0  0  0  0  0  0  0  0  0  0
    7.8675   -7.0096   15.9415 C   0  0  0  0  0  0  0  0  0  0  0  0
    5.9733   -9.6553   17.3832 N   0  0  0  0  0  0  0  0  0  0  0  0
   10.2411   -2.9363   23.4301 C   0  0  0  0  0  0  0  0  0  0  0  0
   10.7288   -3.8197   19.9525 C   0  0  0  0  0  0  0  0  0  0  0  0
   10.1189   -5.0054   19.6987 C   0  0  0  0  0  0  0  0  0  0  0  0
  1  3  4  0
  1  7  4  0
  2 21  4  0
  2 27  4  0
  3  9  4  0
  3 10  4  0
  4  8  4  0
  4 18  4  0
  4 25  1  0
  5  9  4  0
  5 12  4  0
  6 13  1  0
  6 27  1  0
  7 28  4  0
  8 11  4  0
  9 29  4  0
 10 12  4  0
 11 24  1  0
 11 26  4  0
 12 25  1  0
 13 28  1  0
 14 20  4  0
 14 23  4  0
 15 17  4  0
 15 21  4  0
 16 19  4  0
 16 23  4  0
 17 22  4  0
 18 26  4  0
 19 24  4  0
 20 24  4  0
 22 27  4  0
 28 29  4  0
M  END
$$$$

 Created by Python create_sdf_string function

 29 33  0  0  0  0  0  0  0  0999 V2000
   10.7215   -3.3326   17.6437 C   0  0  0  0  0  0  0  0  0  0  0  0
    9.9489   -3.4675   24.6487 N   0  0  0  0  0  0  0  0  0  0  0  0
   10.0172   -4.4740   17.4101 C   0  0  0  0  0  0  0  0  0  0  0  0
    6.9051   -7.9575   16.4222 C   0  0  0  0  0  0  0  0  0  0  0  0
    8.9969   -6.3552   17.9668 N   0  0  0  0  0  0  0  0  0  0  0  0
   10.6702   -3.9051   22.4070 C   0  0  0  0  0  0  0  0  0  0  0  0
   11.0625   -3.0028   18.8894 C   0  0  0  0  0  0  0  0  0  0  0  0
    5.6180   -7.9194   16.1754 O   0  0  0  0  0  0  0  0  0  0  0  0
    9.7259   -5.3080   18.4485 C   0  0  0  0  0  0  0  0  0  0  0  0
    9.4578   -5.0200   16.3036 N   0  0  0  0  0  0  0  0  0  0  0  0
    5.0287   -8.9365   16.8223 C   0  0  0  0  0  0  0  0  0  0  0  0
    8.7742   -6.1498   16.6764 C   0  0  0  0  0  0  0  0  0  0  0  0
   10.9418   -3.4032   21.2053 O   0  0  0  0  0  0  0  0  0  0  0  0
    1.4797   -8.6258   16.2950 C   0  0  0  0  0  0  0  0  0  0  0  0
    9.2861   -1.2743   25.3585 C   0  0  0  0  0  0  0  0  0  0  0  0
    1.8892  -10.3985   17.7511 N   0  0  0  0  0  0  0  0  0  0  0  0
    9.6210   -0.6952   24.0976 C   0  0  0  0  0  0  0  0  0  0  0  0
    7.0792   -9.0217   17.1429 C   0  0  0  0  0  0  0  0  0  0  0  0
    3.1713  -10.1816   17.6634 C   0  0  0  0  0  0  0  0  0  0  0  0
    2.7878   -8.3822   16.2137 C   0  0  0  0  0  0  0  0  0  0  0  0
    9.4601   -2.6590   25.6528 C   0  0  0  0  0  0  0  0  0  0  0  0
   10.1182   -1.5672   23.1165 C   0  0  0  0  0  0  0  0  0  0  0  0
    1.0552   -9.6360   17.0650 C   0  0  0  0  0  0  0  0  0  0  0  0
    3.6519   -9.1783   16.9039 C   0  0  0  0  0  0  0  0  0  0  0  0
    7.8675   -7.0096   15.9415 C   0  0  0  0  0  0  0  0  0  0  0  0
    5.9733   -9.6553   17.3832 N   0  0  0  0  0  0  0  0  0  0  0  0
   10.2411   -2.9363   23.4301 C   0  0  0  0  0  0  0  0  0  0  0  0
   10.7288   -3.8197   19.9525 C   0  0  0  0  0  0  0  0  0  0  0  0
   10.1189   -5.0054   19.6987 C   0  0  0  0  0  0  0  0  0  0  0  0
  1  3  4  0
  1  7  4  0
  2 21  4  0
  2 27  4  0
  3  9  4  0
  3 10  4  0
  4  8  4  0
  4 18  4  0
  4 25  1  0
  5  9  4  0
  5 12  4  0
  6 13  1  0
  6 27  1  0
  7 28  4  0
  8 11  4  0
  9 29  4  0
 10 12  4  0
 11 24  1  0
 11 26  4  0
 12 25  1  0
 13 28  1  0
 14 20  4  0
 14 23  4  0
 15 17  4  0
 15 21  4  0
 16 19  4  0
 16 23  4  0
 17 22  4  0
 18 26  4  0
 19 24  4  0
 20 24  4  0
 22 27  4  0
 28 29  4  0
M  END
$$$$

 Created by Python create_sdf_string function

 29 33  0  0  0  0  0  0  0  0999 V2000
   10.7215   -3.3326   17.6437 C   0  0  0  0  0  0  0  0  0  0  0  0
    9.9489   -3.4675   24.6487 N   0  0  0  0  0  0  0  0  0  0  0  0
   10.0172   -4.4740   17.4101 C   0  0  0  0  0  0  0  0  0  0  0  0
    6.9051   -7.9575   16.4222 C   0  0  0  0  0  0  0  0  0  0  0  0
    8.9969   -6.3552   17.9668 N   0  0  0  0  0  0  0  0  0  0  0  0
   10.6702   -3.9051   22.4070 C   0  0  0  0  0  0  0  0  0  0  0  0
   11.0625   -3.0028   18.8894 C   0  0  0  0  0  0  0  0  0  0  0  0
    5.6180   -7.9194   16.1754 O   0  0  0  0  0  0  0  0  0  0  0  0
    9.7259   -5.3080   18.4485 C   0  0  0  0  0  0  0  0  0  0  0  0
    9.4578   -5.0200   16.3036 N   0  0  0  0  0  0  0  0  0  0  0  0
    5.0287   -8.9365   16.8223 C   0  0  0  0  0  0  0  0  0  0  0  0
    8.7742   -6.1498   16.6764 C   0  0  0  0  0  0  0  0  0  0  0  0
   10.9418   -3.4032   21.2053 O   0  0  0  0  0  0  0  0  0  0  0  0
    1.4797   -8.6258   16.2950 C   0  0  0  0  0  0  0  0  0  0  0  0
    9.2861   -1.2743   25.3585 C   0  0  0  0  0  0  0  0  0  0  0  0
    1.8892  -10.3985   17.7511 N   0  0  0  0  0  0  0  0  0  0  0  0
    9.6210   -0.6952   24.0976 C   0  0  0  0  0  0  0  0  0  0  0  0
    7.0792   -9.0217   17.1429 C   0  0  0  0  0  0  0  0  0  0  0  0
    3.1713  -10.1816   17.6634 C   0  0  0  0  0  0  0  0  0  0  0  0
    2.7878   -8.3822   16.2137 C   0  0  0  0  0  0  0  0  0  0  0  0
    9.4601   -2.6590   25.6528 C   0  0  0  0  0  0  0  0  0  0  0  0
   10.1182   -1.5672   23.1165 C   0  0  0  0  0  0  0  0  0  0  0  0
    1.0552   -9.6360   17.0650 C   0  0  0  0  0  0  0  0  0  0  0  0
    3.6519   -9.1783   16.9039 C   0  0  0  0  0  0  0  0  0  0  0  0
    7.8675   -7.0096   15.9415 C   0  0  0  0  0  0  0  0  0  0  0  0
    5.9733   -9.6553   17.3832 N   0  0  0  0  0  0  0  0  0  0  0  0
   10.2411   -2.9363   23.4301 C   0  0  0  0  0  0  0  0  0  0  0  0
   10.7288   -3.8197   19.9525 C   0  0  0  0  0  0  0  0  0  0  0  0
   10.1189   -5.0054   19.6987 C   0  0  0  0  0  0  0  0  0  0  0  0
  1  3  4  0
  1  7  4  0
  2 21  4  0
  2 27  4  0
  3  9  4  0
  3 10  4  0
  4  8  4  0
  4 18  4  0
  4 25  1  0
  5  9  4  0
  5 12  4  0
  6 13  1  0
  6 27  1  0
  7 28  4  0
  8 11  4  0
  9 29  4  0
 10 12  4  0
 11 24  1  0
 11 26  4  0
 12 25  1  0
 13 28  1  0
 14 20  4  0
 14 23  4  0
 15 17  4  0
 15 21  4  0
 16 19  4  0
 16 23  4  0
 17 22  4  0
 18 26  4  0
 19 24  4  0
 20 24  4  0
 22 27  4  0
 28 29  4  0
M  END
$$$$

 Created by Python create_sdf_string function

 29 33  0  0  0  0  0  0  0  0999 V2000
   10.7215   -3.3326   17.6437 C   0  0  0  0  0  0  0  0  0  0  0  0
    9.9489   -3.4675   24.6487 N   0  0  0  0  0  0  0  0  0  0  0  0
   10.0172   -4.4740   17.4101 C   0  0  0  0  0  0  0  0  0  0  0  0
    6.9051   -7.9575   16.4222 C   0  0  0  0  0  0  0  0  0  0  0  0
    8.9969   -6.3552   17.9668 N   0  0  0  0  0  0  0  0  0  0  0  0
   10.6702   -3.9051   22.4070 C   0  0  0  0  0  0  0  0  0  0  0  0
   11.0625   -3.0028   18.8894 C   0  0  0  0  0  0  0  0  0  0  0  0
    5.6180   -7.9194   16.1754 O   0  0  0  0  0  0  0  0  0  0  0  0
    9.7259   -5.3080   18.4485 C   0  0  0  0  0  0  0  0  0  0  0  0
    9.4578   -5.0200   16.3036 N   0  0  0  0  0  0  0  0  0  0  0  0
    5.0287   -8.9365   16.8223 C   0  0  0  0  0  0  0  0  0  0  0  0
    8.7742   -6.1498   16.6764 C   0  0  0  0  0  0  0  0  0  0  0  0
   10.9418   -3.4032   21.2053 O   0  0  0  0  0  0  0  0  0  0  0  0
    1.4797   -8.6258   16.2950 C   0  0  0  0  0  0  0  0  0  0  0  0
    9.2861   -1.2743   25.3585 C   0  0  0  0  0  0  0  0  0  0  0  0
    1.8892  -10.3985   17.7511 N   0  0  0  0  0  0  0  0  0  0  0  0
    9.6210   -0.6952   24.0976 C   0  0  0  0  0  0  0  0  0  0  0  0
    7.0792   -9.0217   17.1429 C   0  0  0  0  0  0  0  0  0  0  0  0
    3.1713  -10.1816   17.6634 C   0  0  0  0  0  0  0  0  0  0  0  0
    2.7878   -8.3822   16.2137 C   0  0  0  0  0  0  0  0  0  0  0  0
    9.4601   -2.6590   25.6528 C   0  0  0  0  0  0  0  0  0  0  0  0
   10.1182   -1.5672   23.1165 C   0  0  0  0  0  0  0  0  0  0  0  0
    1.0552   -9.6360   17.0650 C   0  0  0  0  0  0  0  0  0  0  0  0
    3.6519   -9.1783   16.9039 C   0  0  0  0  0  0  0  0  0  0  0  0
    7.8675   -7.0096   15.9415 C   0  0  0  0  0  0  0  0  0  0  0  0
    5.9733   -9.6553   17.3832 N   0  0  0  0  0  0  0  0  0  0  0  0
   10.2411   -2.9363   23.4301 C   0  0  0  0  0  0  0  0  0  0  0  0
   10.7288   -3.8197   19.9525 C   0  0  0  0  0  0  0  0  0  0  0  0
   10.1189   -5.0054   19.6987 C   0  0  0  0  0  0  0  0  0  0  0  0
  1  3  4  0
  1  7  4  0
  2 21  4  0
  2 27  4  0
  3  9  4  0
  3 10  4  0
  4  8  4  0
  4 18  4  0
  4 25  1  0
  5  9  4  0
  5 12  4  0
  6 13  1  0
  6 27  1  0
  7 28  4  0
  8 11  4  0
  9 29  4  0
 10 12  4  0
 11 24  1  0
 11 26  4  0
 12 25  1  0
 13 28  1  0
 14 20  4  0
 14 23  4  0
 15 17  4  0
 15 21  4  0
 16 19  4  0
 16 23  4  0
 17 22  4  0
 18 26  4  0
 19 24  4  0
 20 24  4  0
 22 27  4  0
 28 29  4  0
M  END
$$$$

 Created by Python create_sdf_string function

 29 33  0  0  0  0  0  0  0  0999 V2000
   10.7215   -3.3326   17.6437 C   0  0  0  0  0  0  0  0  0  0  0  0
    9.9489   -3.4675   24.6487 N   0  0  0  0  0  0  0  0  0  0  0  0
   10.0172   -4.4740   17.4101 C   0  0  0  0  0  0  0  0  0  0  0  0
    6.9051   -7.9575   16.4222 C   0  0  0  0  0  0  0  0  0  0  0  0
    8.9969   -6.3552   17.9668 N   0  0  0  0  0  0  0  0  0  0  0  0
   10.6702   -3.9051   22.4070 C   0  0  0  0  0  0  0  0  0  0  0  0
   11.0625   -3.0028   18.8894 C   0  0  0  0  0  0  0  0  0  0  0  0
    5.6180   -7.9194   16.1754 O   0  0  0  0  0  0  0  0  0  0  0  0
    9.7259   -5.3080   18.4485 C   0  0  0  0  0  0  0  0  0  0  0  0
    9.4578   -5.0200   16.3036 N   0  0  0  0  0  0  0  0  0  0  0  0
    5.0287   -8.9365   16.8223 C   0  0  0  0  0  0  0  0  0  0  0  0
    8.7742   -6.1498   16.6764 C   0  0  0  0  0  0  0  0  0  0  0  0
   10.9418   -3.4032   21.2053 O   0  0  0  0  0  0  0  0  0  0  0  0
    1.4797   -8.6258   16.2950 C   0  0  0  0  0  0  0  0  0  0  0  0
    9.2861   -1.2743   25.3585 C   0  0  0  0  0  0  0  0  0  0  0  0
    1.8892  -10.3985   17.7511 N   0  0  0  0  0  0  0  0  0  0  0  0
    9.6210   -0.6952   24.0976 C   0  0  0  0  0  0  0  0  0  0  0  0
    7.0792   -9.0217   17.1429 C   0  0  0  0  0  0  0  0  0  0  0  0
    3.1713  -10.1816   17.6634 C   0  0  0  0  0  0  0  0  0  0  0  0
    2.7878   -8.3822   16.2137 C   0  0  0  0  0  0  0  0  0  0  0  0
    9.4601   -2.6590   25.6528 C   0  0  0  0  0  0  0  0  0  0  0  0
   10.1182   -1.5672   23.1165 C   0  0  0  0  0  0  0  0  0  0  0  0
    1.0552   -9.6360   17.0650 C   0  0  0  0  0  0  0  0  0  0  0  0
    3.6519   -9.1783   16.9039 C   0  0  0  0  0  0  0  0  0  0  0  0
    7.8675   -7.0096   15.9415 C   0  0  0  0  0  0  0  0  0  0  0  0
    5.9733   -9.6553   17.3832 N   0  0  0  0  0  0  0  0  0  0  0  0
   10.2411   -2.9363   23.4301 C   0  0  0  0  0  0  0  0  0  0  0  0
   10.7288   -3.8197   19.9525 C   0  0  0  0  0  0  0  0  0  0  0  0
   10.1189   -5.0054   19.6987 C   0  0  0  0  0  0  0  0  0  0  0  0
  1  3  4  0
  1  7  4  0
  2 21  4  0
  2 27  4  0
  3  9  4  0
  3 10  4  0
  4  8  4  0
  4 18  4  0
  4 25  1  0
  5  9  4  0
  5 12  4  0
  6 13  1  0
  6 27  1  0
  7 28  4  0
  8 11  4  0
  9 29  4  0
 10 12  4  0
 11 24  1  0
 11 26  4  0
 12 25  1  0
 13 28  1  0
 14 20  4  0
 14 23  4  0
 15 17  4  0
 15 21  4  0
 16 19  4  0
 16 23  4  0
 17 22  4  0
 18 26  4  0
 19 24  4  0
 20 24  4  0
 22 27  4  0
 28 29  4  0
M  END
$$$$

 Created by Python create_sdf_string function

 29 33  0  0  0  0  0  0  0  0999 V2000
   10.7215   -3.3326   17.6437 C   0  0  0  0  0  0  0  0  0  0  0  0
    9.9489   -3.4675   24.6487 N   0  0  0  0  0  0  0  0  0  0  0  0
   10.0172   -4.4740   17.4101 C   0  0  0  0  0  0  0  0  0  0  0  0
    6.9051   -7.9575   16.4222 C   0  0  0  0  0  0  0  0  0  0  0  0
    8.9969   -6.3552   17.9668 N   0  0  0  0  0  0  0  0  0  0  0  0
   10.6702   -3.9051   22.4070 C   0  0  0  0  0  0  0  0  0  0  0  0
   11.0625   -3.0028   18.8894 C   0  0  0  0  0  0  0  0  0  0  0  0
    5.6180   -7.9194   16.1754 O   0  0  0  0  0  0  0  0  0  0  0  0
    9.7259   -5.3080   18.4485 C   0  0  0  0  0  0  0  0  0  0  0  0
    9.4578   -5.0200   16.3036 N   0  0  0  0  0  0  0  0  0  0  0  0
    5.0287   -8.9365   16.8223 C   0  0  0  0  0  0  0  0  0  0  0  0
    8.7742   -6.1498   16.6764 C   0  0  0  0  0  0  0  0  0  0  0  0
   10.9418   -3.4032   21.2053 O   0  0  0  0  0  0  0  0  0  0  0  0
    1.4797   -8.6258   16.2950 C   0  0  0  0  0  0  0  0  0  0  0  0
    9.2861   -1.2743   25.3585 C   0  0  0  0  0  0  0  0  0  0  0  0
    1.8892  -10.3985   17.7511 N   0  0  0  0  0  0  0  0  0  0  0  0
    9.6210   -0.6952   24.0976 C   0  0  0  0  0  0  0  0  0  0  0  0
    7.0792   -9.0217   17.1429 C   0  0  0  0  0  0  0  0  0  0  0  0
    3.1713  -10.1816   17.6634 C   0  0  0  0  0  0  0  0  0  0  0  0
    2.7878   -8.3822   16.2137 C   0  0  0  0  0  0  0  0  0  0  0  0
    9.4601   -2.6590   25.6528 C   0  0  0  0  0  0  0  0  0  0  0  0
   10.1182   -1.5672   23.1165 C   0  0  0  0  0  0  0  0  0  0  0  0
    1.0552   -9.6360   17.0650 C   0  0  0  0  0  0  0  0  0  0  0  0
    3.6519   -9.1783   16.9039 C   0  0  0  0  0  0  0  0  0  0  0  0
    7.8675   -7.0096   15.9415 C   0  0  0  0  0  0  0  0  0  0  0  0
    5.9733   -9.6553   17.3832 N   0  0  0  0  0  0  0  0  0  0  0  0
   10.2411   -2.9363   23.4301 C   0  0  0  0  0  0  0  0  0  0  0  0
   10.7288   -3.8197   19.9525 C   0  0  0  0  0  0  0  0  0  0  0  0
   10.1189   -5.0054   19.6987 C   0  0  0  0  0  0  0  0  0  0  0  0
  1  3  4  0
  1  7  4  0
  2 21  4  0
  2 27  4  0
  3  9  4  0
  3 10  4  0
  4  8  4  0
  4 18  4  0
  4 25  1  0
  5  9  4  0
  5 12  4  0
  6 13  1  0
  6 27  1  0
  7 28  4  0
  8 11  4  0
  9 29  4  0
 10 12  4  0
 11 24  1  0
 11 26  4  0
 12 25  1  0
 13 28  1  0
 14 20  4  0
 14 23  4  0
 15 17  4  0
 15 21  4  0
 16 19  4  0
 16 23  4  0
 17 22  4  0
 18 26  4  0
 19 24  4  0
 20 24  4  0
 22 27  4  0
 28 29  4  0
M  END
$$$$

 Created by Python create_sdf_string function

 29 33  0  0  0  0  0  0  0  0999 V2000
   10.7215   -3.3326   17.6437 C   0  0  0  0  0  0  0  0  0  0  0  0
    9.9489   -3.4675   24.6487 N   0  0  0  0  0  0  0  0  0  0  0  0
   10.0172   -4.4740   17.4101 C   0  0  0  0  0  0  0  0  0  0  0  0
    6.9051   -7.9575   16.4222 C   0  0  0  0  0  0  0  0  0  0  0  0
    8.9969   -6.3552   17.9668 N   0  0  0  0  0  0  0  0  0  0  0  0
   10.6702   -3.9051   22.4070 C   0  0  0  0  0  0  0  0  0  0  0  0
   11.0625   -3.0028   18.8894 C   0  0  0  0  0  0  0  0  0  0  0  0
    5.6180   -7.9194   16.1754 O   0  0  0  0  0  0  0  0  0  0  0  0
    9.7259   -5.3080   18.4485 C   0  0  0  0  0  0  0  0  0  0  0  0
    9.4578   -5.0200   16.3036 N   0  0  0  0  0  0  0  0  0  0  0  0
    5.0287   -8.9365   16.8223 C   0  0  0  0  0  0  0  0  0  0  0  0
    8.7742   -6.1498   16.6764 C   0  0  0  0  0  0  0  0  0  0  0  0
   10.9418   -3.4032   21.2053 O   0  0  0  0  0  0  0  0  0  0  0  0
    1.4797   -8.6258   16.2950 C   0  0  0  0  0  0  0  0  0  0  0  0
    9.2861   -1.2743   25.3585 C   0  0  0  0  0  0  0  0  0  0  0  0
    1.8892  -10.3985   17.7511 N   0  0  0  0  0  0  0  0  0  0  0  0
    9.6210   -0.6952   24.0976 C   0  0  0  0  0  0  0  0  0  0  0  0
    7.0792   -9.0217   17.1429 C   0  0  0  0  0  0  0  0  0  0  0  0
    3.1713  -10.1816   17.6634 C   0  0  0  0  0  0  0  0  0  0  0  0
    2.7878   -8.3822   16.2137 C   0  0  0  0  0  0  0  0  0  0  0  0
    9.4601   -2.6590   25.6528 C   0  0  0  0  0  0  0  0  0  0  0  0
   10.1182   -1.5672   23.1165 C   0  0  0  0  0  0  0  0  0  0  0  0
    1.0552   -9.6360   17.0650 C   0  0  0  0  0  0  0  0  0  0  0  0
    3.6519   -9.1783   16.9039 C   0  0  0  0  0  0  0  0  0  0  0  0
    7.8675   -7.0096   15.9415 C   0  0  0  0  0  0  0  0  0  0  0  0
    5.9733   -9.6553   17.3832 N   0  0  0  0  0  0  0  0  0  0  0  0
   10.2411   -2.9363   23.4301 C   0  0  0  0  0  0  0  0  0  0  0  0
   10.7288   -3.8197   19.9525 C   0  0  0  0  0  0  0  0  0  0  0  0
   10.1189   -5.0054   19.6987 C   0  0  0  0  0  0  0  0  0  0  0  0
  1  3  4  0
  1  7  4  0
  2 21  4  0
  2 27  4  0
  3  9  4  0
  3 10  4  0
  4  8  4  0
  4 18  4  0
  4 25  1  0
  5  9  4  0
  5 12  4  0
  6 13  1  0
  6 27  1  0
  7 28  4  0
  8 11  4  0
  9 29  4  0
 10 12  4  0
 11 24  1  0
 11 26  4  0
 12 25  1  0
 13 28  1  0
 14 20  4  0
 14 23  4  0
 15 17  4  0
 15 21  4  0
 16 19  4  0
 16 23  4  0
 17 22  4  0
 18 26  4  0
 19 24  4  0
 20 24  4  0
 22 27  4  0
 28 29  4  0
M  END
$$$$

 Created by Python create_sdf_string function

 29 33  0  0  0  0  0  0  0  0999 V2000
   10.7215   -3.3326   17.6437 C   0  0  0  0  0  0  0  0  0  0  0  0
    9.9489   -3.4675   24.6487 N   0  0  0  0  0  0  0  0  0  0  0  0
   10.0172   -4.4740   17.4101 C   0  0  0  0  0  0  0  0  0  0  0  0
    6.9051   -7.9575   16.4222 C   0  0  0  0  0  0  0  0  0  0  0  0
    8.9969   -6.3552   17.9668 N   0  0  0  0  0  0  0  0  0  0  0  0
   10.6702   -3.9051   22.4070 C   0  0  0  0  0  0  0  0  0  0  0  0
   11.0625   -3.0028   18.8894 C   0  0  0  0  0  0  0  0  0  0  0  0
    5.6180   -7.9194   16.1754 O   0  0  0  0  0  0  0  0  0  0  0  0
    9.7259   -5.3080   18.4485 C   0  0  0  0  0  0  0  0  0  0  0  0
    9.4578   -5.0200   16.3036 N   0  0  0  0  0  0  0  0  0  0  0  0
    5.0287   -8.9365   16.8223 C   0  0  0  0  0  0  0  0  0  0  0  0
    8.7742   -6.1498   16.6764 C   0  0  0  0  0  0  0  0  0  0  0  0
   10.9418   -3.4032   21.2053 O   0  0  0  0  0  0  0  0  0  0  0  0
    1.4797   -8.6258   16.2950 C   0  0  0  0  0  0  0  0  0  0  0  0
    9.2861   -1.2743   25.3585 C   0  0  0  0  0  0  0  0  0  0  0  0
    1.8892  -10.3985   17.7511 N   0  0  0  0  0  0  0  0  0  0  0  0
    9.6210   -0.6952   24.0976 C   0  0  0  0  0  0  0  0  0  0  0  0
    7.0792   -9.0217   17.1429 C   0  0  0  0  0  0  0  0  0  0  0  0
    3.1713  -10.1816   17.6634 C   0  0  0  0  0  0  0  0  0  0  0  0
    2.7878   -8.3822   16.2137 C   0  0  0  0  0  0  0  0  0  0  0  0
    9.4601   -2.6590   25.6528 C   0  0  0  0  0  0  0  0  0  0  0  0
   10.1182   -1.5672   23.1165 C   0  0  0  0  0  0  0  0  0  0  0  0
    1.0552   -9.6360   17.0650 C   0  0  0  0  0  0  0  0  0  0  0  0
    3.6519   -9.1783   16.9039 C   0  0  0  0  0  0  0  0  0  0  0  0
    7.8675   -7.0096   15.9415 C   0  0  0  0  0  0  0  0  0  0  0  0
    5.9733   -9.6553   17.3832 N   0  0  0  0  0  0  0  0  0  0  0  0
   10.2411   -2.9363   23.4301 C   0  0  0  0  0  0  0  0  0  0  0  0
   10.7288   -3.8197   19.9525 C   0  0  0  0  0  0  0  0  0  0  0  0
   10.1189   -5.0054   19.6987 C   0  0  0  0  0  0  0  0  0  0  0  0
  1  3  4  0
  1  7  4  0
  2 21  4  0
  2 27  4  0
  3  9  4  0
  3 10  4  0
  4  8  4  0
  4 18  4  0
  4 25  1  0
  5  9  4  0
  5 12  4  0
  6 13  1  0
  6 27  1  0
  7 28  4  0
  8 11  4  0
  9 29  4  0
 10 12  4  0
 11 24  1  0
 11 26  4  0
 12 25  1  0
 13 28  1  0
 14 20  4  0
 14 23  4  0
 15 17  4  0
 15 21  4  0
 16 19  4  0
 16 23  4  0
 17 22  4  0
 18 26  4  0
 19 24  4  0
 20 24  4  0
 22 27  4  0
 28 29  4  0
M  END
$$$$

 Created by Python create_sdf_string function

 29 33  0  0  0  0  0  0  0  0999 V2000
   10.7215   -3.3326   17.6437 C   0  0  0  0  0  0  0  0  0  0  0  0
    9.9489   -3.4675   24.6487 N   0  0  0  0  0  0  0  0  0  0  0  0
   10.0172   -4.4740   17.4101 C   0  0  0  0  0  0  0  0  0  0  0  0
    6.9051   -7.9575   16.4222 C   0  0  0  0  0  0  0  0  0  0  0  0
    8.9969   -6.3552   17.9668 N   0  0  0  0  0  0  0  0  0  0  0  0
   10.6702   -3.9051   22.4070 C   0  0  0  0  0  0  0  0  0  0  0  0
   11.0625   -3.0028   18.8894 C   0  0  0  0  0  0  0  0  0  0  0  0
    5.6180   -7.9194   16.1754 O   0  0  0  0  0  0  0  0  0  0  0  0
    9.7259   -5.3080   18.4485 C   0  0  0  0  0  0  0  0  0  0  0  0
    9.4578   -5.0200   16.3036 N   0  0  0  0  0  0  0  0  0  0  0  0
    5.0287   -8.9365   16.8223 C   0  0  0  0  0  0  0  0  0  0  0  0
    8.7742   -6.1498   16.6764 C   0  0  0  0  0  0  0  0  0  0  0  0
   10.9418   -3.4032   21.2053 O   0  0  0  0  0  0  0  0  0  0  0  0
    1.4797   -8.6258   16.2950 C   0  0  0  0  0  0  0  0  0  0  0  0
    9.2861   -1.2743   25.3585 C   0  0  0  0  0  0  0  0  0  0  0  0
    1.8892  -10.3985   17.7511 N   0  0  0  0  0  0  0  0  0  0  0  0
    9.6210   -0.6952   24.0976 C   0  0  0  0  0  0  0  0  0  0  0  0
    7.0792   -9.0217   17.1429 C   0  0  0  0  0  0  0  0  0  0  0  0
    3.1713  -10.1816   17.6634 C   0  0  0  0  0  0  0  0  0  0  0  0
    2.7878   -8.3822   16.2137 C   0  0  0  0  0  0  0  0  0  0  0  0
    9.4601   -2.6590   25.6528 C   0  0  0  0  0  0  0  0  0  0  0  0
   10.1182   -1.5672   23.1165 C   0  0  0  0  0  0  0  0  0  0  0  0
    1.0552   -9.6360   17.0650 C   0  0  0  0  0  0  0  0  0  0  0  0
    3.6519   -9.1783   16.9039 C   0  0  0  0  0  0  0  0  0  0  0  0
    7.8675   -7.0096   15.9415 C   0  0  0  0  0  0  0  0  0  0  0  0
    5.9733   -9.6553   17.3832 N   0  0  0  0  0  0  0  0  0  0  0  0
   10.2411   -2.9363   23.4301 C   0  0  0  0  0  0  0  0  0  0  0  0
   10.7288   -3.8197   19.9525 C   0  0  0  0  0  0  0  0  0  0  0  0
   10.1189   -5.0054   19.6987 C   0  0  0  0  0  0  0  0  0  0  0  0
  1  3  4  0
  1  7  4  0
  2 21  4  0
  2 27  4  0
  3  9  4  0
  3 10  4  0
  4  8  4  0
  4 18  4  0
  4 25  1  0
  5  9  4  0
  5 12  4  0
  6 13  1  0
  6 27  1  0
  7 28  4  0
  8 11  4  0
  9 29  4  0
 10 12  4  0
 11 24  1  0
 11 26  4  0
 12 25  1  0
 13 28  1  0
 14 20  4  0
 14 23  4  0
 15 17  4  0
 15 21  4  0
 16 19  4  0
 16 23  4  0
 17 22  4  0
 18 26  4  0
 19 24  4  0
 20 24  4  0
 22 27  4  0
 28 29  4  0
M  END
$$$$

 Created by Python create_sdf_string function

 29 33  0  0  0  0  0  0  0  0999 V2000
   10.7215   -3.3326   17.6437 C   0  0  0  0  0  0  0  0  0  0  0  0
    9.9489   -3.4675   24.6487 N   0  0  0  0  0  0  0  0  0  0  0  0
   10.0172   -4.4740   17.4101 C   0  0  0  0  0  0  0  0  0  0  0  0
    6.9051   -7.9575   16.4222 C   0  0  0  0  0  0  0  0  0  0  0  0
    8.9969   -6.3552   17.9668 N   0  0  0  0  0  0  0  0  0  0  0  0
   10.6702   -3.9051   22.4070 C   0  0  0  0  0  0  0  0  0  0  0  0
   11.0625   -3.0028   18.8894 C   0  0  0  0  0  0  0  0  0  0  0  0
    5.6180   -7.9194   16.1754 O   0  0  0  0  0  0  0  0  0  0  0  0
    9.7259   -5.3080   18.4485 C   0  0  0  0  0  0  0  0  0  0  0  0
    9.4578   -5.0200   16.3036 N   0  0  0  0  0  0  0  0  0  0  0  0
    5.0287   -8.9365   16.8223 C   0  0  0  0  0  0  0  0  0  0  0  0
    8.7742   -6.1498   16.6764 C   0  0  0  0  0  0  0  0  0  0  0  0
   10.9418   -3.4032   21.2053 O   0  0  0  0  0  0  0  0  0  0  0  0
    1.4797   -8.6258   16.2950 C   0  0  0  0  0  0  0  0  0  0  0  0
    9.2861   -1.2743   25.3585 C   0  0  0  0  0  0  0  0  0  0  0  0
    1.8892  -10.3985   17.7511 N   0  0  0  0  0  0  0  0  0  0  0  0
    9.6210   -0.6952   24.0976 C   0  0  0  0  0  0  0  0  0  0  0  0
    7.0792   -9.0217   17.1429 C   0  0  0  0  0  0  0  0  0  0  0  0
    3.1713  -10.1816   17.6634 C   0  0  0  0  0  0  0  0  0  0  0  0
    2.7878   -8.3822   16.2137 C   0  0  0  0  0  0  0  0  0  0  0  0
    9.4601   -2.6590   25.6528 C   0  0  0  0  0  0  0  0  0  0  0  0
   10.1182   -1.5672   23.1165 C   0  0  0  0  0  0  0  0  0  0  0  0
    1.0552   -9.6360   17.0650 C   0  0  0  0  0  0  0  0  0  0  0  0
    3.6519   -9.1783   16.9039 C   0  0  0  0  0  0  0  0  0  0  0  0
    7.8675   -7.0096   15.9415 C   0  0  0  0  0  0  0  0  0  0  0  0
    5.9733   -9.6553   17.3832 N   0  0  0  0  0  0  0  0  0  0  0  0
   10.2411   -2.9363   23.4301 C   0  0  0  0  0  0  0  0  0  0  0  0
   10.7288   -3.8197   19.9525 C   0  0  0  0  0  0  0  0  0  0  0  0
   10.1189   -5.0054   19.6987 C   0  0  0  0  0  0  0  0  0  0  0  0
  1  3  4  0
  1  7  4  0
  2 21  4  0
  2 27  4  0
  3  9  4  0
  3 10  4  0
  4  8  4  0
  4 18  4  0
  4 25  1  0
  5  9  4  0
  5 12  4  0
  6 13  1  0
  6 27  1  0
  7 28  4  0
  8 11  4  0
  9 29  4  0
 10 12  4  0
 11 24  1  0
 11 26  4  0
 12 25  1  0
 13 28  1  0
 14 20  4  0
 14 23  4  0
 15 17  4  0
 15 21  4  0
 16 19  4  0
 16 23  4  0
 17 22  4  0
 18 26  4  0
 19 24  4  0
 20 24  4  0
 22 27  4  0
 28 29  4  0
M  END
$$$$

 Created by Python create_sdf_string function

 29 33  0  0  0  0  0  0  0  0999 V2000
   10.7215   -3.3326   17.6437 C   0  0  0  0  0  0  0  0  0  0  0  0
    9.9489   -3.4675   24.6487 N   0  0  0  0  0  0  0  0  0  0  0  0
   10.0172   -4.4740   17.4101 C   0  0  0  0  0  0  0  0  0  0  0  0
    6.9051   -7.9575   16.4222 C   0  0  0  0  0  0  0  0  0  0  0  0
    8.9969   -6.3552   17.9668 N   0  0  0  0  0  0  0  0  0  0  0  0
   10.6702   -3.9051   22.4070 C   0  0  0  0  0  0  0  0  0  0  0  0
   11.0625   -3.0028   18.8894 C   0  0  0  0  0  0  0  0  0  0  0  0
    5.6180   -7.9194   16.1754 O   0  0  0  0  0  0  0  0  0  0  0  0
    9.7259   -5.3080   18.4485 C   0  0  0  0  0  0  0  0  0  0  0  0
    9.4578   -5.0200   16.3036 N   0  0  0  0  0  0  0  0  0  0  0  0
    5.0287   -8.9365   16.8223 C   0  0  0  0  0  0  0  0  0  0  0  0
    8.7742   -6.1498   16.6764 C   0  0  0  0  0  0  0  0  0  0  0  0
   10.9418   -3.4032   21.2053 O   0  0  0  0  0  0  0  0  0  0  0  0
    1.4797   -8.6258   16.2950 C   0  0  0  0  0  0  0  0  0  0  0  0
    9.2861   -1.2743   25.3585 C   0  0  0  0  0  0  0  0  0  0  0  0
    1.8892  -10.3985   17.7511 N   0  0  0  0  0  0  0  0  0  0  0  0
    9.6210   -0.6952   24.0976 C   0  0  0  0  0  0  0  0  0  0  0  0
    7.0792   -9.0217   17.1429 C   0  0  0  0  0  0  0  0  0  0  0  0
    3.1713  -10.1816   17.6634 C   0  0  0  0  0  0  0  0  0  0  0  0
    2.7878   -8.3822   16.2137 C   0  0  0  0  0  0  0  0  0  0  0  0
    9.4601   -2.6590   25.6528 C   0  0  0  0  0  0  0  0  0  0  0  0
   10.1182   -1.5672   23.1165 C   0  0  0  0  0  0  0  0  0  0  0  0
    1.0552   -9.6360   17.0650 C   0  0  0  0  0  0  0  0  0  0  0  0
    3.6519   -9.1783   16.9039 C   0  0  0  0  0  0  0  0  0  0  0  0
    7.8675   -7.0096   15.9415 C   0  0  0  0  0  0  0  0  0  0  0  0
    5.9733   -9.6553   17.3832 N   0  0  0  0  0  0  0  0  0  0  0  0
   10.2411   -2.9363   23.4301 C   0  0  0  0  0  0  0  0  0  0  0  0
   10.7288   -3.8197   19.9525 C   0  0  0  0  0  0  0  0  0  0  0  0
   10.1189   -5.0054   19.6987 C   0  0  0  0  0  0  0  0  0  0  0  0
  1  3  4  0
  1  7  4  0
  2 21  4  0
  2 27  4  0
  3  9  4  0
  3 10  4  0
  4  8  4  0
  4 18  4  0
  4 25  1  0
  5  9  4  0
  5 12  4  0
  6 13  1  0
  6 27  1  0
  7 28  4  0
  8 11  4  0
  9 29  4  0
 10 12  4  0
 11 24  1  0
 11 26  4  0
 12 25  1  0
 13 28  1  0
 14 20  4  0
 14 23  4  0
 15 17  4  0
 15 21  4  0
 16 19  4  0
 16 23  4  0
 17 22  4  0
 18 26  4  0
 19 24  4  0
 20 24  4  0
 22 27  4  0
 28 29  4  0
M  END
$$$$

 Created by Python create_sdf_string function

 29 33  0  0  0  0  0  0  0  0999 V2000
   10.7215   -3.3326   17.6437 C   0  0  0  0  0  0  0  0  0  0  0  0
    9.9489   -3.4675   24.6487 N   0  0  0  0  0  0  0  0  0  0  0  0
   10.0172   -4.4740   17.4101 C   0  0  0  0  0  0  0  0  0  0  0  0
    6.9051   -7.9575   16.4222 C   0  0  0  0  0  0  0  0  0  0  0  0
    8.9969   -6.3552   17.9668 N   0  0  0  0  0  0  0  0  0  0  0  0
   10.6702   -3.9051   22.4070 C   0  0  0  0  0  0  0  0  0  0  0  0
   11.0625   -3.0028   18.8894 C   0  0  0  0  0  0  0  0  0  0  0  0
    5.6180   -7.9194   16.1754 O   0  0  0  0  0  0  0  0  0  0  0  0
    9.7259   -5.3080   18.4485 C   0  0  0  0  0  0  0  0  0  0  0  0
    9.4578   -5.0200   16.3036 N   0  0  0  0  0  0  0  0  0  0  0  0
    5.0287   -8.9365   16.8223 C   0  0  0  0  0  0  0  0  0  0  0  0
    8.7742   -6.1498   16.6764 C   0  0  0  0  0  0  0  0  0  0  0  0
   10.9418   -3.4032   21.2053 O   0  0  0  0  0  0  0  0  0  0  0  0
    1.4797   -8.6258   16.2950 C   0  0  0  0  0  0  0  0  0  0  0  0
    9.2861   -1.2743   25.3585 C   0  0  0  0  0  0  0  0  0  0  0  0
    1.8892  -10.3985   17.7511 N   0  0  0  0  0  0  0  0  0  0  0  0
    9.6210   -0.6952   24.0976 C   0  0  0  0  0  0  0  0  0  0  0  0
    7.0792   -9.0217   17.1429 C   0  0  0  0  0  0  0  0  0  0  0  0
    3.1713  -10.1816   17.6634 C   0  0  0  0  0  0  0  0  0  0  0  0
    2.7878   -8.3822   16.2137 C   0  0  0  0  0  0  0  0  0  0  0  0
    9.4601   -2.6590   25.6528 C   0  0  0  0  0  0  0  0  0  0  0  0
   10.1182   -1.5672   23.1165 C   0  0  0  0  0  0  0  0  0  0  0  0
    1.0552   -9.6360   17.0650 C   0  0  0  0  0  0  0  0  0  0  0  0
    3.6519   -9.1783   16.9039 C   0  0  0  0  0  0  0  0  0  0  0  0
    7.8675   -7.0096   15.9415 C   0  0  0  0  0  0  0  0  0  0  0  0
    5.9733   -9.6553   17.3832 N   0  0  0  0  0  0  0  0  0  0  0  0
   10.2411   -2.9363   23.4301 C   0  0  0  0  0  0  0  0  0  0  0  0
   10.7288   -3.8197   19.9525 C   0  0  0  0  0  0  0  0  0  0  0  0
   10.1189   -5.0054   19.6987 C   0  0  0  0  0  0  0  0  0  0  0  0
  1  3  4  0
  1  7  4  0
  2 21  4  0
  2 27  4  0
  3  9  4  0
  3 10  4  0
  4  8  4  0
  4 18  4  0
  4 25  1  0
  5  9  4  0
  5 12  4  0
  6 13  1  0
  6 27  1  0
  7 28  4  0
  8 11  4  0
  9 29  4  0
 10 12  4  0
 11 24  1  0
 11 26  4  0
 12 25  1  0
 13 28  1  0
 14 20  4  0
 14 23  4  0
 15 17  4  0
 15 21  4  0
 16 19  4  0
 16 23  4  0
 17 22  4  0
 18 26  4  0
 19 24  4  0
 20 24  4  0
 22 27  4  0
 28 29  4  0
M  END
$$$$

 Created by Python create_sdf_string function

 29 33  0  0  0  0  0  0  0  0999 V2000
   10.7215   -3.3326   17.6437 C   0  0  0  0  0  0  0  0  0  0  0  0
    9.9489   -3.4675   24.6487 N   0  0  0  0  0  0  0  0  0  0  0  0
   10.0172   -4.4740   17.4101 C   0  0  0  0  0  0  0  0  0  0  0  0
    6.9051   -7.9575   16.4222 C   0  0  0  0  0  0  0  0  0  0  0  0
    8.9969   -6.3552   17.9668 N   0  0  0  0  0  0  0  0  0  0  0  0
   10.6702   -3.9051   22.4070 C   0  0  0  0  0  0  0  0  0  0  0  0
   11.0625   -3.0028   18.8894 C   0  0  0  0  0  0  0  0  0  0  0  0
    5.6180   -7.9194   16.1754 O   0  0  0  0  0  0  0  0  0  0  0  0
    9.7259   -5.3080   18.4485 C   0  0  0  0  0  0  0  0  0  0  0  0
    9.4578   -5.0200   16.3036 N   0  0  0  0  0  0  0  0  0  0  0  0
    5.0287   -8.9365   16.8223 C   0  0  0  0  0  0  0  0  0  0  0  0
    8.7742   -6.1498   16.6764 C   0  0  0  0  0  0  0  0  0  0  0  0
   10.9418   -3.4032   21.2053 O   0  0  0  0  0  0  0  0  0  0  0  0
    1.4797   -8.6258   16.2950 C   0  0  0  0  0  0  0  0  0  0  0  0
    9.2861   -1.2743   25.3585 C   0  0  0  0  0  0  0  0  0  0  0  0
    1.8892  -10.3985   17.7511 N   0  0  0  0  0  0  0  0  0  0  0  0
    9.6210   -0.6952   24.0976 C   0  0  0  0  0  0  0  0  0  0  0  0
    7.0792   -9.0217   17.1429 C   0  0  0  0  0  0  0  0  0  0  0  0
    3.1713  -10.1816   17.6634 C   0  0  0  0  0  0  0  0  0  0  0  0
    2.7878   -8.3822   16.2137 C   0  0  0  0  0  0  0  0  0  0  0  0
    9.4601   -2.6590   25.6528 C   0  0  0  0  0  0  0  0  0  0  0  0
   10.1182   -1.5672   23.1165 C   0  0  0  0  0  0  0  0  0  0  0  0
    1.0552   -9.6360   17.0650 C   0  0  0  0  0  0  0  0  0  0  0  0
    3.6519   -9.1783   16.9039 C   0  0  0  0  0  0  0  0  0  0  0  0
    7.8675   -7.0096   15.9415 C   0  0  0  0  0  0  0  0  0  0  0  0
    5.9733   -9.6553   17.3832 N   0  0  0  0  0  0  0  0  0  0  0  0
   10.2411   -2.9363   23.4301 C   0  0  0  0  0  0  0  0  0  0  0  0
   10.7288   -3.8197   19.9525 C   0  0  0  0  0  0  0  0  0  0  0  0
   10.1189   -5.0054   19.6987 C   0  0  0  0  0  0  0  0  0  0  0  0
  1  3  4  0
  1  7  4  0
  2 21  4  0
  2 27  4  0
  3  9  4  0
  3 10  4  0
  4  8  4  0
  4 18  4  0
  4 25  1  0
  5  9  4  0
  5 12  4  0
  6 13  1  0
  6 27  1  0
  7 28  4  0
  8 11  4  0
  9 29  4  0
 10 12  4  0
 11 24  1  0
 11 26  4  0
 12 25  1  0
 13 28  1  0
 14 20  4  0
 14 23  4  0
 15 17  4  0
 15 21  4  0
 16 19  4  0
 16 23  4  0
 17 22  4  0
 18 26  4  0
 19 24  4  0
 20 24  4  0
 22 27  4  0
 28 29  4  0
M  END
$$$$

 Created by Python create_sdf_string function

 29 33  0  0  0  0  0  0  0  0999 V2000
   10.7215   -3.3326   17.6437 C   0  0  0  0  0  0  0  0  0  0  0  0
    9.9489   -3.4675   24.6487 N   0  0  0  0  0  0  0  0  0  0  0  0
   10.0172   -4.4740   17.4101 C   0  0  0  0  0  0  0  0  0  0  0  0
    6.9051   -7.9575   16.4222 C   0  0  0  0  0  0  0  0  0  0  0  0
    8.9969   -6.3552   17.9668 N   0  0  0  0  0  0  0  0  0  0  0  0
   10.6702   -3.9051   22.4070 C   0  0  0  0  0  0  0  0  0  0  0  0
   11.0625   -3.0028   18.8894 C   0  0  0  0  0  0  0  0  0  0  0  0
    5.6180   -7.9194   16.1754 O   0  0  0  0  0  0  0  0  0  0  0  0
    9.7259   -5.3080   18.4485 C   0  0  0  0  0  0  0  0  0  0  0  0
    9.4578   -5.0200   16.3036 N   0  0  0  0  0  0  0  0  0  0  0  0
    5.0287   -8.9365   16.8223 C   0  0  0  0  0  0  0  0  0  0  0  0
    8.7742   -6.1498   16.6764 C   0  0  0  0  0  0  0  0  0  0  0  0
   10.9418   -3.4032   21.2053 O   0  0  0  0  0  0  0  0  0  0  0  0
    1.4797   -8.6258   16.2950 C   0  0  0  0  0  0  0  0  0  0  0  0
    9.2861   -1.2743   25.3585 C   0  0  0  0  0  0  0  0  0  0  0  0
    1.8892  -10.3985   17.7511 N   0  0  0  0  0  0  0  0  0  0  0  0
    9.6210   -0.6952   24.0976 C   0  0  0  0  0  0  0  0  0  0  0  0
    7.0792   -9.0217   17.1429 C   0  0  0  0  0  0  0  0  0  0  0  0
    3.1713  -10.1816   17.6634 C   0  0  0  0  0  0  0  0  0  0  0  0
    2.7878   -8.3822   16.2137 C   0  0  0  0  0  0  0  0  0  0  0  0
    9.4601   -2.6590   25.6528 C   0  0  0  0  0  0  0  0  0  0  0  0
   10.1182   -1.5672   23.1165 C   0  0  0  0  0  0  0  0  0  0  0  0
    1.0552   -9.6360   17.0650 C   0  0  0  0  0  0  0  0  0  0  0  0
    3.6519   -9.1783   16.9039 C   0  0  0  0  0  0  0  0  0  0  0  0
    7.8675   -7.0096   15.9415 C   0  0  0  0  0  0  0  0  0  0  0  0
    5.9733   -9.6553   17.3832 N   0  0  0  0  0  0  0  0  0  0  0  0
   10.2411   -2.9363   23.4301 C   0  0  0  0  0  0  0  0  0  0  0  0
   10.7288   -3.8197   19.9525 C   0  0  0  0  0  0  0  0  0  0  0  0
   10.1189   -5.0054   19.6987 C   0  0  0  0  0  0  0  0  0  0  0  0
  1  3  4  0
  1  7  4  0
  2 21  4  0
  2 27  4  0
  3  9  4  0
  3 10  4  0
  4  8  4  0
  4 18  4  0
  4 25  1  0
  5  9  4  0
  5 12  4  0
  6 13  1  0
  6 27  1  0
  7 28  4  0
  8 11  4  0
  9 29  4  0
 10 12  4  0
 11 24  1  0
 11 26  4  0
 12 25  1  0
 13 28  1  0
 14 20  4  0
 14 23  4  0
 15 17  4  0
 15 21  4  0
 16 19  4  0
 16 23  4  0
 17 22  4  0
 18 26  4  0
 19 24  4  0
 20 24  4  0
 22 27  4  0
 28 29  4  0
M  END
$$$$

 Created by Python create_sdf_string function

 29 33  0  0  0  0  0  0  0  0999 V2000
   10.7215   -3.3326   17.6437 C   0  0  0  0  0  0  0  0  0  0  0  0
    9.9489   -3.4675   24.6487 N   0  0  0  0  0  0  0  0  0  0  0  0
   10.0172   -4.4740   17.4101 C   0  0  0  0  0  0  0  0  0  0  0  0
    6.9051   -7.9575   16.4222 C   0  0  0  0  0  0  0  0  0  0  0  0
    8.9969   -6.3552   17.9668 N   0  0  0  0  0  0  0  0  0  0  0  0
   10.6702   -3.9051   22.4070 C   0  0  0  0  0  0  0  0  0  0  0  0
   11.0625   -3.0028   18.8894 C   0  0  0  0  0  0  0  0  0  0  0  0
    5.6180   -7.9194   16.1754 O   0  0  0  0  0  0  0  0  0  0  0  0
    9.7259   -5.3080   18.4485 C   0  0  0  0  0  0  0  0  0  0  0  0
    9.4578   -5.0200   16.3036 N   0  0  0  0  0  0  0  0  0  0  0  0
    5.0287   -8.9365   16.8223 C   0  0  0  0  0  0  0  0  0  0  0  0
    8.7742   -6.1498   16.6764 C   0  0  0  0  0  0  0  0  0  0  0  0
   10.9418   -3.4032   21.2053 O   0  0  0  0  0  0  0  0  0  0  0  0
    1.4797   -8.6258   16.2950 C   0  0  0  0  0  0  0  0  0  0  0  0
    9.2861   -1.2743   25.3585 C   0  0  0  0  0  0  0  0  0  0  0  0
    1.8892  -10.3985   17.7511 N   0  0  0  0  0  0  0  0  0  0  0  0
    9.6210   -0.6952   24.0976 C   0  0  0  0  0  0  0  0  0  0  0  0
    7.0792   -9.0217   17.1429 C   0  0  0  0  0  0  0  0  0  0  0  0
    3.1713  -10.1816   17.6634 C   0  0  0  0  0  0  0  0  0  0  0  0
    2.7878   -8.3822   16.2137 C   0  0  0  0  0  0  0  0  0  0  0  0
    9.4601   -2.6590   25.6528 C   0  0  0  0  0  0  0  0  0  0  0  0
   10.1182   -1.5672   23.1165 C   0  0  0  0  0  0  0  0  0  0  0  0
    1.0552   -9.6360   17.0650 C   0  0  0  0  0  0  0  0  0  0  0  0
    3.6519   -9.1783   16.9039 C   0  0  0  0  0  0  0  0  0  0  0  0
    7.8675   -7.0096   15.9415 C   0  0  0  0  0  0  0  0  0  0  0  0
    5.9733   -9.6553   17.3832 N   0  0  0  0  0  0  0  0  0  0  0  0
   10.2411   -2.9363   23.4301 C   0  0  0  0  0  0  0  0  0  0  0  0
   10.7288   -3.8197   19.9525 C   0  0  0  0  0  0  0  0  0  0  0  0
   10.1189   -5.0054   19.6987 C   0  0  0  0  0  0  0  0  0  0  0  0
  1  3  4  0
  1  7  4  0
  2 21  4  0
  2 27  4  0
  3  9  4  0
  3 10  4  0
  4  8  4  0
  4 18  4  0
  4 25  1  0
  5  9  4  0
  5 12  4  0
  6 13  1  0
  6 27  1  0
  7 28  4  0
  8 11  4  0
  9 29  4  0
 10 12  4  0
 11 24  1  0
 11 26  4  0
 12 25  1  0
 13 28  1  0
 14 20  4  0
 14 23  4  0
 15 17  4  0
 15 21  4  0
 16 19  4  0
 16 23  4  0
 17 22  4  0
 18 26  4  0
 19 24  4  0
 20 24  4  0
 22 27  4  0
 28 29  4  0
M  END
$$$$

 Created by Python create_sdf_string function

 29 33  0  0  0  0  0  0  0  0999 V2000
   10.7215   -3.3326   17.6437 C   0  0  0  0  0  0  0  0  0  0  0  0
    9.9489   -3.4675   24.6487 N   0  0  0  0  0  0  0  0  0  0  0  0
   10.0172   -4.4740   17.4101 C   0  0  0  0  0  0  0  0  0  0  0  0
    6.9051   -7.9575   16.4222 C   0  0  0  0  0  0  0  0  0  0  0  0
    8.9969   -6.3552   17.9668 N   0  0  0  0  0  0  0  0  0  0  0  0
   10.6702   -3.9051   22.4070 C   0  0  0  0  0  0  0  0  0  0  0  0
   11.0625   -3.0028   18.8894 C   0  0  0  0  0  0  0  0  0  0  0  0
    5.6180   -7.9194   16.1754 O   0  0  0  0  0  0  0  0  0  0  0  0
    9.7259   -5.3080   18.4485 C   0  0  0  0  0  0  0  0  0  0  0  0
    9.4578   -5.0200   16.3036 N   0  0  0  0  0  0  0  0  0  0  0  0
    5.0287   -8.9365   16.8223 C   0  0  0  0  0  0  0  0  0  0  0  0
    8.7742   -6.1498   16.6764 C   0  0  0  0  0  0  0  0  0  0  0  0
   10.9418   -3.4032   21.2053 O   0  0  0  0  0  0  0  0  0  0  0  0
    1.4797   -8.6258   16.2950 C   0  0  0  0  0  0  0  0  0  0  0  0
    9.2861   -1.2743   25.3585 C   0  0  0  0  0  0  0  0  0  0  0  0
    1.8892  -10.3985   17.7511 N   0  0  0  0  0  0  0  0  0  0  0  0
    9.6210   -0.6952   24.0976 C   0  0  0  0  0  0  0  0  0  0  0  0
    7.0792   -9.0217   17.1429 C   0  0  0  0  0  0  0  0  0  0  0  0
    3.1713  -10.1816   17.6634 C   0  0  0  0  0  0  0  0  0  0  0  0
    2.7878   -8.3822   16.2137 C   0  0  0  0  0  0  0  0  0  0  0  0
    9.4601   -2.6590   25.6528 C   0  0  0  0  0  0  0  0  0  0  0  0
   10.1182   -1.5672   23.1165 C   0  0  0  0  0  0  0  0  0  0  0  0
    1.0552   -9.6360   17.0650 C   0  0  0  0  0  0  0  0  0  0  0  0
    3.6519   -9.1783   16.9039 C   0  0  0  0  0  0  0  0  0  0  0  0
    7.8675   -7.0096   15.9415 C   0  0  0  0  0  0  0  0  0  0  0  0
    5.9733   -9.6553   17.3832 N   0  0  0  0  0  0  0  0  0  0  0  0
   10.2411   -2.9363   23.4301 C   0  0  0  0  0  0  0  0  0  0  0  0
   10.7288   -3.8197   19.9525 C   0  0  0  0  0  0  0  0  0  0  0  0
   10.1189   -5.0054   19.6987 C   0  0  0  0  0  0  0  0  0  0  0  0
  1  3  4  0
  1  7  4  0
  2 21  4  0
  2 27  4  0
  3  9  4  0
  3 10  4  0
  4  8  4  0
  4 18  4  0
  4 25  1  0
  5  9  4  0
  5 12  4  0
  6 13  1  0
  6 27  1  0
  7 28  4  0
  8 11  4  0
  9 29  4  0
 10 12  4  0
 11 24  1  0
 11 26  4  0
 12 25  1  0
 13 28  1  0
 14 20  4  0
 14 23  4  0
 15 17  4  0
 15 21  4  0
 16 19  4  0
 16 23  4  0
 17 22  4  0
 18 26  4  0
 19 24  4  0
 20 24  4  0
 22 27  4  0
 28 29  4  0
M  END
$$$$

 Created by Python create_sdf_string function

 29 33  0  0  0  0  0  0  0  0999 V2000
   10.7215   -3.3326   17.6437 C   0  0  0  0  0  0  0  0  0  0  0  0
    9.9489   -3.4675   24.6487 N   0  0  0  0  0  0  0  0  0  0  0  0
   10.0172   -4.4740   17.4101 C   0  0  0  0  0  0  0  0  0  0  0  0
    6.9051   -7.9575   16.4222 C   0  0  0  0  0  0  0  0  0  0  0  0
    8.9969   -6.3552   17.9668 N   0  0  0  0  0  0  0  0  0  0  0  0
   10.6702   -3.9051   22.4070 C   0  0  0  0  0  0  0  0  0  0  0  0
   11.0625   -3.0028   18.8894 C   0  0  0  0  0  0  0  0  0  0  0  0
    5.6180   -7.9194   16.1754 O   0  0  0  0  0  0  0  0  0  0  0  0
    9.7259   -5.3080   18.4485 C   0  0  0  0  0  0  0  0  0  0  0  0
    9.4578   -5.0200   16.3036 N   0  0  0  0  0  0  0  0  0  0  0  0
    5.0287   -8.9365   16.8223 C   0  0  0  0  0  0  0  0  0  0  0  0
    8.7742   -6.1498   16.6764 C   0  0  0  0  0  0  0  0  0  0  0  0
   10.9418   -3.4032   21.2053 O   0  0  0  0  0  0  0  0  0  0  0  0
    1.4797   -8.6258   16.2950 C   0  0  0  0  0  0  0  0  0  0  0  0
    9.2861   -1.2743   25.3585 C   0  0  0  0  0  0  0  0  0  0  0  0
    1.8892  -10.3985   17.7511 N   0  0  0  0  0  0  0  0  0  0  0  0
    9.6210   -0.6952   24.0976 C   0  0  0  0  0  0  0  0  0  0  0  0
    7.0792   -9.0217   17.1429 C   0  0  0  0  0  0  0  0  0  0  0  0
    3.1713  -10.1816   17.6634 C   0  0  0  0  0  0  0  0  0  0  0  0
    2.7878   -8.3822   16.2137 C   0  0  0  0  0  0  0  0  0  0  0  0
    9.4601   -2.6590   25.6528 C   0  0  0  0  0  0  0  0  0  0  0  0
   10.1182   -1.5672   23.1165 C   0  0  0  0  0  0  0  0  0  0  0  0
    1.0552   -9.6360   17.0650 C   0  0  0  0  0  0  0  0  0  0  0  0
    3.6519   -9.1783   16.9039 C   0  0  0  0  0  0  0  0  0  0  0  0
    7.8675   -7.0096   15.9415 C   0  0  0  0  0  0  0  0  0  0  0  0
    5.9733   -9.6553   17.3832 N   0  0  0  0  0  0  0  0  0  0  0  0
   10.2411   -2.9363   23.4301 C   0  0  0  0  0  0  0  0  0  0  0  0
   10.7288   -3.8197   19.9525 C   0  0  0  0  0  0  0  0  0  0  0  0
   10.1189   -5.0054   19.6987 C   0  0  0  0  0  0  0  0  0  0  0  0
  1  3  4  0
  1  7  4  0
  2 21  4  0
  2 27  4  0
  3  9  4  0
  3 10  4  0
  4  8  4  0
  4 18  4  0
  4 25  1  0
  5  9  4  0
  5 12  4  0
  6 13  1  0
  6 27  1  0
  7 28  4  0
  8 11  4  0
  9 29  4  0
 10 12  4  0
 11 24  1  0
 11 26  4  0
 12 25  1  0
 13 28  1  0
 14 20  4  0
 14 23  4  0
 15 17  4  0
 15 21  4  0
 16 19  4  0
 16 23  4  0
 17 22  4  0
 18 26  4  0
 19 24  4  0
 20 24  4  0
 22 27  4  0
 28 29  4  0
M  END
$$$$

 Created by Python create_sdf_string function

 29 33  0  0  0  0  0  0  0  0999 V2000
   10.7215   -3.3326   17.6437 C   0  0  0  0  0  0  0  0  0  0  0  0
    9.9489   -3.4675   24.6487 N   0  0  0  0  0  0  0  0  0  0  0  0
   10.0172   -4.4740   17.4101 C   0  0  0  0  0  0  0  0  0  0  0  0
    6.9051   -7.9575   16.4222 C   0  0  0  0  0  0  0  0  0  0  0  0
    8.9969   -6.3552   17.9668 N   0  0  0  0  0  0  0  0  0  0  0  0
   10.6702   -3.9051   22.4070 C   0  0  0  0  0  0  0  0  0  0  0  0
   11.0625   -3.0028   18.8894 C   0  0  0  0  0  0  0  0  0  0  0  0
    5.6180   -7.9194   16.1754 O   0  0  0  0  0  0  0  0  0  0  0  0
    9.7259   -5.3080   18.4485 C   0  0  0  0  0  0  0  0  0  0  0  0
    9.4578   -5.0200   16.3036 N   0  0  0  0  0  0  0  0  0  0  0  0
    5.0287   -8.9365   16.8223 C   0  0  0  0  0  0  0  0  0  0  0  0
    8.7742   -6.1498   16.6764 C   0  0  0  0  0  0  0  0  0  0  0  0
   10.9418   -3.4032   21.2053 O   0  0  0  0  0  0  0  0  0  0  0  0
    1.4797   -8.6258   16.2950 C   0  0  0  0  0  0  0  0  0  0  0  0
    9.2861   -1.2743   25.3585 C   0  0  0  0  0  0  0  0  0  0  0  0
    1.8892  -10.3985   17.7511 N   0  0  0  0  0  0  0  0  0  0  0  0
    9.6210   -0.6952   24.0976 C   0  0  0  0  0  0  0  0  0  0  0  0
    7.0792   -9.0217   17.1429 C   0  0  0  0  0  0  0  0  0  0  0  0
    3.1713  -10.1816   17.6634 C   0  0  0  0  0  0  0  0  0  0  0  0
    2.7878   -8.3822   16.2137 C   0  0  0  0  0  0  0  0  0  0  0  0
    9.4601   -2.6590   25.6528 C   0  0  0  0  0  0  0  0  0  0  0  0
   10.1182   -1.5672   23.1165 C   0  0  0  0  0  0  0  0  0  0  0  0
    1.0552   -9.6360   17.0650 C   0  0  0  0  0  0  0  0  0  0  0  0
    3.6519   -9.1783   16.9039 C   0  0  0  0  0  0  0  0  0  0  0  0
    7.8675   -7.0096   15.9415 C   0  0  0  0  0  0  0  0  0  0  0  0
    5.9733   -9.6553   17.3832 N   0  0  0  0  0  0  0  0  0  0  0  0
   10.2411   -2.9363   23.4301 C   0  0  0  0  0  0  0  0  0  0  0  0
   10.7288   -3.8197   19.9525 C   0  0  0  0  0  0  0  0  0  0  0  0
   10.1189   -5.0054   19.6987 C   0  0  0  0  0  0  0  0  0  0  0  0
  1  3  4  0
  1  7  4  0
  2 21  4  0
  2 27  4  0
  3  9  4  0
  3 10  4  0
  4  8  4  0
  4 18  4  0
  4 25  1  0
  5  9  4  0
  5 12  4  0
  6 13  1  0
  6 27  1  0
  7 28  4  0
  8 11  4  0
  9 29  4  0
 10 12  4  0
 11 24  1  0
 11 26  4  0
 12 25  1  0
 13 28  1  0
 14 20  4  0
 14 23  4  0
 15 17  4  0
 15 21  4  0
 16 19  4  0
 16 23  4  0
 17 22  4  0
 18 26  4  0
 19 24  4  0
 20 24  4  0
 22 27  4  0
 28 29  4  0
M  END
$$$$

 Created by Python create_sdf_string function

 29 33  0  0  0  0  0  0  0  0999 V2000
   10.7215   -3.3326   17.6437 C   0  0  0  0  0  0  0  0  0  0  0  0
    9.9489   -3.4675   24.6487 N   0  0  0  0  0  0  0  0  0  0  0  0
   10.0172   -4.4740   17.4101 C   0  0  0  0  0  0  0  0  0  0  0  0
    6.9051   -7.9575   16.4222 C   0  0  0  0  0  0  0  0  0  0  0  0
    8.9969   -6.3552   17.9668 N   0  0  0  0  0  0  0  0  0  0  0  0
   10.6702   -3.9051   22.4070 C   0  0  0  0  0  0  0  0  0  0  0  0
   11.0625   -3.0028   18.8894 C   0  0  0  0  0  0  0  0  0  0  0  0
    5.6180   -7.9194   16.1754 O   0  0  0  0  0  0  0  0  0  0  0  0
    9.7259   -5.3080   18.4485 C   0  0  0  0  0  0  0  0  0  0  0  0
    9.4578   -5.0200   16.3036 N   0  0  0  0  0  0  0  0  0  0  0  0
    5.0287   -8.9365   16.8223 C   0  0  0  0  0  0  0  0  0  0  0  0
    8.7742   -6.1498   16.6764 C   0  0  0  0  0  0  0  0  0  0  0  0
   10.9418   -3.4032   21.2053 O   0  0  0  0  0  0  0  0  0  0  0  0
    1.4797   -8.6258   16.2950 C   0  0  0  0  0  0  0  0  0  0  0  0
    9.2861   -1.2743   25.3585 C   0  0  0  0  0  0  0  0  0  0  0  0
    1.8892  -10.3985   17.7511 N   0  0  0  0  0  0  0  0  0  0  0  0
    9.6210   -0.6952   24.0976 C   0  0  0  0  0  0  0  0  0  0  0  0
    7.0792   -9.0217   17.1429 C   0  0  0  0  0  0  0  0  0  0  0  0
    3.1713  -10.1816   17.6634 C   0  0  0  0  0  0  0  0  0  0  0  0
    2.7878   -8.3822   16.2137 C   0  0  0  0  0  0  0  0  0  0  0  0
    9.4601   -2.6590   25.6528 C   0  0  0  0  0  0  0  0  0  0  0  0
   10.1182   -1.5672   23.1165 C   0  0  0  0  0  0  0  0  0  0  0  0
    1.0552   -9.6360   17.0650 C   0  0  0  0  0  0  0  0  0  0  0  0
    3.6519   -9.1783   16.9039 C   0  0  0  0  0  0  0  0  0  0  0  0
    7.8675   -7.0096   15.9415 C   0  0  0  0  0  0  0  0  0  0  0  0
    5.9733   -9.6553   17.3832 N   0  0  0  0  0  0  0  0  0  0  0  0
   10.2411   -2.9363   23.4301 C   0  0  0  0  0  0  0  0  0  0  0  0
   10.7288   -3.8197   19.9525 C   0  0  0  0  0  0  0  0  0  0  0  0
   10.1189   -5.0054   19.6987 C   0  0  0  0  0  0  0  0  0  0  0  0
  1  3  4  0
  1  7  4  0
  2 21  4  0
  2 27  4  0
  3  9  4  0
  3 10  4  0
  4  8  4  0
  4 18  4  0
  4 25  1  0
  5  9  4  0
  5 12  4  0
  6 13  1  0
  6 27  1  0
  7 28  4  0
  8 11  4  0
  9 29  4  0
 10 12  4  0
 11 24  1  0
 11 26  4  0
 12 25  1  0
 13 28  1  0
 14 20  4  0
 14 23  4  0
 15 17  4  0
 15 21  4  0
 16 19  4  0
 16 23  4  0
 17 22  4  0
 18 26  4  0
 19 24  4  0
 20 24  4  0
 22 27  4  0
 28 29  4  0
M  END
$$$$

 Created by Python create_sdf_string function

 29 33  0  0  0  0  0  0  0  0999 V2000
   10.7215   -3.3326   17.6437 C   0  0  0  0  0  0  0  0  0  0  0  0
    9.9489   -3.4675   24.6487 N   0  0  0  0  0  0  0  0  0  0  0  0
   10.0172   -4.4740   17.4101 C   0  0  0  0  0  0  0  0  0  0  0  0
    6.9051   -7.9575   16.4222 C   0  0  0  0  0  0  0  0  0  0  0  0
    8.9969   -6.3552   17.9668 N   0  0  0  0  0  0  0  0  0  0  0  0
   10.6702   -3.9051   22.4070 C   0  0  0  0  0  0  0  0  0  0  0  0
   11.0625   -3.0028   18.8894 C   0  0  0  0  0  0  0  0  0  0  0  0
    5.6180   -7.9194   16.1754 O   0  0  0  0  0  0  0  0  0  0  0  0
    9.7259   -5.3080   18.4485 C   0  0  0  0  0  0  0  0  0  0  0  0
    9.4578   -5.0200   16.3036 N   0  0  0  0  0  0  0  0  0  0  0  0
    5.0287   -8.9365   16.8223 C   0  0  0  0  0  0  0  0  0  0  0  0
    8.7742   -6.1498   16.6764 C   0  0  0  0  0  0  0  0  0  0  0  0
   10.9418   -3.4032   21.2053 O   0  0  0  0  0  0  0  0  0  0  0  0
    1.4797   -8.6258   16.2950 C   0  0  0  0  0  0  0  0  0  0  0  0
    9.2861   -1.2743   25.3585 C   0  0  0  0  0  0  0  0  0  0  0  0
    1.8892  -10.3985   17.7511 N   0  0  0  0  0  0  0  0  0  0  0  0
    9.6210   -0.6952   24.0976 C   0  0  0  0  0  0  0  0  0  0  0  0
    7.0792   -9.0217   17.1429 C   0  0  0  0  0  0  0  0  0  0  0  0
    3.1713  -10.1816   17.6634 C   0  0  0  0  0  0  0  0  0  0  0  0
    2.7878   -8.3822   16.2137 C   0  0  0  0  0  0  0  0  0  0  0  0
    9.4601   -2.6590   25.6528 C   0  0  0  0  0  0  0  0  0  0  0  0
   10.1182   -1.5672   23.1165 C   0  0  0  0  0  0  0  0  0  0  0  0
    1.0552   -9.6360   17.0650 C   0  0  0  0  0  0  0  0  0  0  0  0
    3.6519   -9.1783   16.9039 C   0  0  0  0  0  0  0  0  0  0  0  0
    7.8675   -7.0096   15.9415 C   0  0  0  0  0  0  0  0  0  0  0  0
    5.9733   -9.6553   17.3832 N   0  0  0  0  0  0  0  0  0  0  0  0
   10.2411   -2.9363   23.4301 C   0  0  0  0  0  0  0  0  0  0  0  0
   10.7288   -3.8197   19.9525 C   0  0  0  0  0  0  0  0  0  0  0  0
   10.1189   -5.0054   19.6987 C   0  0  0  0  0  0  0  0  0  0  0  0
  1  3  4  0
  1  7  4  0
  2 21  4  0
  2 27  4  0
  3  9  4  0
  3 10  4  0
  4  8  4  0
  4 18  4  0
  4 25  1  0
  5  9  4  0
  5 12  4  0
  6 13  1  0
  6 27  1  0
  7 28  4  0
  8 11  4  0
  9 29  4  0
 10 12  4  0
 11 24  1  0
 11 26  4  0
 12 25  1  0
 13 28  1  0
 14 20  4  0
 14 23  4  0
 15 17  4  0
 15 21  4  0
 16 19  4  0
 16 23  4  0
 17 22  4  0
 18 26  4  0
 19 24  4  0
 20 24  4  0
 22 27  4  0
 28 29  4  0
M  END
$$$$

 Created by Python create_sdf_string function

 29 33  0  0  0  0  0  0  0  0999 V2000
   10.7215   -3.3326   17.6437 C   0  0  0  0  0  0  0  0  0  0  0  0
    9.9489   -3.4675   24.6487 N   0  0  0  0  0  0  0  0  0  0  0  0
   10.0172   -4.4740   17.4101 C   0  0  0  0  0  0  0  0  0  0  0  0
    6.9051   -7.9575   16.4222 C   0  0  0  0  0  0  0  0  0  0  0  0
    8.9969   -6.3552   17.9668 N   0  0  0  0  0  0  0  0  0  0  0  0
   10.6702   -3.9051   22.4070 C   0  0  0  0  0  0  0  0  0  0  0  0
   11.0625   -3.0028   18.8894 C   0  0  0  0  0  0  0  0  0  0  0  0
    5.6180   -7.9194   16.1754 O   0  0  0  0  0  0  0  0  0  0  0  0
    9.7259   -5.3080   18.4485 C   0  0  0  0  0  0  0  0  0  0  0  0
    9.4578   -5.0200   16.3036 N   0  0  0  0  0  0  0  0  0  0  0  0
    5.0287   -8.9365   16.8223 C   0  0  0  0  0  0  0  0  0  0  0  0
    8.7742   -6.1498   16.6764 C   0  0  0  0  0  0  0  0  0  0  0  0
   10.9418   -3.4032   21.2053 O   0  0  0  0  0  0  0  0  0  0  0  0
    1.4797   -8.6258   16.2950 C   0  0  0  0  0  0  0  0  0  0  0  0
    9.2861   -1.2743   25.3585 C   0  0  0  0  0  0  0  0  0  0  0  0
    1.8892  -10.3985   17.7511 N   0  0  0  0  0  0  0  0  0  0  0  0
    9.6210   -0.6952   24.0976 C   0  0  0  0  0  0  0  0  0  0  0  0
    7.0792   -9.0217   17.1429 C   0  0  0  0  0  0  0  0  0  0  0  0
    3.1713  -10.1816   17.6634 C   0  0  0  0  0  0  0  0  0  0  0  0
    2.7878   -8.3822   16.2137 C   0  0  0  0  0  0  0  0  0  0  0  0
    9.4601   -2.6590   25.6528 C   0  0  0  0  0  0  0  0  0  0  0  0
   10.1182   -1.5672   23.1165 C   0  0  0  0  0  0  0  0  0  0  0  0
    1.0552   -9.6360   17.0650 C   0  0  0  0  0  0  0  0  0  0  0  0
    3.6519   -9.1783   16.9039 C   0  0  0  0  0  0  0  0  0  0  0  0
    7.8675   -7.0096   15.9415 C   0  0  0  0  0  0  0  0  0  0  0  0
    5.9733   -9.6553   17.3832 N   0  0  0  0  0  0  0  0  0  0  0  0
   10.2411   -2.9363   23.4301 C   0  0  0  0  0  0  0  0  0  0  0  0
   10.7288   -3.8197   19.9525 C   0  0  0  0  0  0  0  0  0  0  0  0
   10.1189   -5.0054   19.6987 C   0  0  0  0  0  0  0  0  0  0  0  0
  1  3  4  0
  1  7  4  0
  2 21  4  0
  2 27  4  0
  3  9  4  0
  3 10  4  0
  4  8  4  0
  4 18  4  0
  4 25  1  0
  5  9  4  0
  5 12  4  0
  6 13  1  0
  6 27  1  0
  7 28  4  0
  8 11  4  0
  9 29  4  0
 10 12  4  0
 11 24  1  0
 11 26  4  0
 12 25  1  0
 13 28  1  0
 14 20  4  0
 14 23  4  0
 15 17  4  0
 15 21  4  0
 16 19  4  0
 16 23  4  0
 17 22  4  0
 18 26  4  0
 19 24  4  0
 20 24  4  0
 22 27  4  0
 28 29  4  0
M  END
$$$$

 Created by Python create_sdf_string function

 29 33  0  0  0  0  0  0  0  0999 V2000
   10.7215   -3.3326   17.6437 C   0  0  0  0  0  0  0  0  0  0  0  0
    9.9489   -3.4675   24.6487 N   0  0  0  0  0  0  0  0  0  0  0  0
   10.0172   -4.4740   17.4101 C   0  0  0  0  0  0  0  0  0  0  0  0
    6.9051   -7.9575   16.4222 C   0  0  0  0  0  0  0  0  0  0  0  0
    8.9969   -6.3552   17.9668 N   0  0  0  0  0  0  0  0  0  0  0  0
   10.6702   -3.9051   22.4070 C   0  0  0  0  0  0  0  0  0  0  0  0
   11.0625   -3.0028   18.8894 C   0  0  0  0  0  0  0  0  0  0  0  0
    5.6180   -7.9194   16.1754 O   0  0  0  0  0  0  0  0  0  0  0  0
    9.7259   -5.3080   18.4485 C   0  0  0  0  0  0  0  0  0  0  0  0
    9.4578   -5.0200   16.3036 N   0  0  0  0  0  0  0  0  0  0  0  0
    5.0287   -8.9365   16.8223 C   0  0  0  0  0  0  0  0  0  0  0  0
    8.7742   -6.1498   16.6764 C   0  0  0  0  0  0  0  0  0  0  0  0
   10.9418   -3.4032   21.2053 O   0  0  0  0  0  0  0  0  0  0  0  0
    1.4797   -8.6258   16.2950 C   0  0  0  0  0  0  0  0  0  0  0  0
    9.2861   -1.2743   25.3585 C   0  0  0  0  0  0  0  0  0  0  0  0
    1.8892  -10.3985   17.7511 N   0  0  0  0  0  0  0  0  0  0  0  0
    9.6210   -0.6952   24.0976 C   0  0  0  0  0  0  0  0  0  0  0  0
    7.0792   -9.0217   17.1429 C   0  0  0  0  0  0  0  0  0  0  0  0
    3.1713  -10.1816   17.6634 C   0  0  0  0  0  0  0  0  0  0  0  0
    2.7878   -8.3822   16.2137 C   0  0  0  0  0  0  0  0  0  0  0  0
    9.4601   -2.6590   25.6528 C   0  0  0  0  0  0  0  0  0  0  0  0
   10.1182   -1.5672   23.1165 C   0  0  0  0  0  0  0  0  0  0  0  0
    1.0552   -9.6360   17.0650 C   0  0  0  0  0  0  0  0  0  0  0  0
    3.6519   -9.1783   16.9039 C   0  0  0  0  0  0  0  0  0  0  0  0
    7.8675   -7.0096   15.9415 C   0  0  0  0  0  0  0  0  0  0  0  0
    5.9733   -9.6553   17.3832 N   0  0  0  0  0  0  0  0  0  0  0  0
   10.2411   -2.9363   23.4301 C   0  0  0  0  0  0  0  0  0  0  0  0
   10.7288   -3.8197   19.9525 C   0  0  0  0  0  0  0  0  0  0  0  0
   10.1189   -5.0054   19.6987 C   0  0  0  0  0  0  0  0  0  0  0  0
  1  3  4  0
  1  7  4  0
  2 21  4  0
  2 27  4  0
  3  9  4  0
  3 10  4  0
  4  8  4  0
  4 18  4  0
  4 25  1  0
  5  9  4  0
  5 12  4  0
  6 13  1  0
  6 27  1  0
  7 28  4  0
  8 11  4  0
  9 29  4  0
 10 12  4  0
 11 24  1  0
 11 26  4  0
 12 25  1  0
 13 28  1  0
 14 20  4  0
 14 23  4  0
 15 17  4  0
 15 21  4  0
 16 19  4  0
 16 23  4  0
 17 22  4  0
 18 26  4  0
 19 24  4  0
 20 24  4  0
 22 27  4  0
 28 29  4  0
M  END
$$$$

 Created by Python create_sdf_string function

 29 33  0  0  0  0  0  0  0  0999 V2000
   10.7215   -3.3326   17.6437 C   0  0  0  0  0  0  0  0  0  0  0  0
    9.9489   -3.4675   24.6487 N   0  0  0  0  0  0  0  0  0  0  0  0
   10.0172   -4.4740   17.4101 C   0  0  0  0  0  0  0  0  0  0  0  0
    6.9051   -7.9575   16.4222 C   0  0  0  0  0  0  0  0  0  0  0  0
    8.9969   -6.3552   17.9668 N   0  0  0  0  0  0  0  0  0  0  0  0
   10.6702   -3.9051   22.4070 C   0  0  0  0  0  0  0  0  0  0  0  0
   11.0625   -3.0028   18.8894 C   0  0  0  0  0  0  0  0  0  0  0  0
    5.6180   -7.9194   16.1754 O   0  0  0  0  0  0  0  0  0  0  0  0
    9.7259   -5.3080   18.4485 C   0  0  0  0  0  0  0  0  0  0  0  0
    9.4578   -5.0200   16.3036 N   0  0  0  0  0  0  0  0  0  0  0  0
    5.0287   -8.9365   16.8223 C   0  0  0  0  0  0  0  0  0  0  0  0
    8.7742   -6.1498   16.6764 C   0  0  0  0  0  0  0  0  0  0  0  0
   10.9418   -3.4032   21.2053 O   0  0  0  0  0  0  0  0  0  0  0  0
    1.4797   -8.6258   16.2950 C   0  0  0  0  0  0  0  0  0  0  0  0
    9.2861   -1.2743   25.3585 C   0  0  0  0  0  0  0  0  0  0  0  0
    1.8892  -10.3985   17.7511 N   0  0  0  0  0  0  0  0  0  0  0  0
    9.6210   -0.6952   24.0976 C   0  0  0  0  0  0  0  0  0  0  0  0
    7.0792   -9.0217   17.1429 C   0  0  0  0  0  0  0  0  0  0  0  0
    3.1713  -10.1816   17.6634 C   0  0  0  0  0  0  0  0  0  0  0  0
    2.7878   -8.3822   16.2137 C   0  0  0  0  0  0  0  0  0  0  0  0
    9.4601   -2.6590   25.6528 C   0  0  0  0  0  0  0  0  0  0  0  0
   10.1182   -1.5672   23.1165 C   0  0  0  0  0  0  0  0  0  0  0  0
    1.0552   -9.6360   17.0650 C   0  0  0  0  0  0  0  0  0  0  0  0
    3.6519   -9.1783   16.9039 C   0  0  0  0  0  0  0  0  0  0  0  0
    7.8675   -7.0096   15.9415 C   0  0  0  0  0  0  0  0  0  0  0  0
    5.9733   -9.6553   17.3832 N   0  0  0  0  0  0  0  0  0  0  0  0
   10.2411   -2.9363   23.4301 C   0  0  0  0  0  0  0  0  0  0  0  0
   10.7288   -3.8197   19.9525 C   0  0  0  0  0  0  0  0  0  0  0  0
   10.1189   -5.0054   19.6987 C   0  0  0  0  0  0  0  0  0  0  0  0
  1  3  4  0
  1  7  4  0
  2 21  4  0
  2 27  4  0
  3  9  4  0
  3 10  4  0
  4  8  4  0
  4 18  4  0
  4 25  1  0
  5  9  4  0
  5 12  4  0
  6 13  1  0
  6 27  1  0
  7 28  4  0
  8 11  4  0
  9 29  4  0
 10 12  4  0
 11 24  1  0
 11 26  4  0
 12 25  1  0
 13 28  1  0
 14 20  4  0
 14 23  4  0
 15 17  4  0
 15 21  4  0
 16 19  4  0
 16 23  4  0
 17 22  4  0
 18 26  4  0
 19 24  4  0
 20 24  4  0
 22 27  4  0
 28 29  4  0
M  END
$$$$

 Created by Python create_sdf_string function

 29 33  0  0  0  0  0  0  0  0999 V2000
   10.7215   -3.3326   17.6437 C   0  0  0  0  0  0  0  0  0  0  0  0
    9.9489   -3.4675   24.6487 N   0  0  0  0  0  0  0  0  0  0  0  0
   10.0172   -4.4740   17.4101 C   0  0  0  0  0  0  0  0  0  0  0  0
    6.9051   -7.9575   16.4222 C   0  0  0  0  0  0  0  0  0  0  0  0
    8.9969   -6.3552   17.9668 N   0  0  0  0  0  0  0  0  0  0  0  0
   10.6702   -3.9051   22.4070 C   0  0  0  0  0  0  0  0  0  0  0  0
   11.0625   -3.0028   18.8894 C   0  0  0  0  0  0  0  0  0  0  0  0
    5.6180   -7.9194   16.1754 O   0  0  0  0  0  0  0  0  0  0  0  0
    9.7259   -5.3080   18.4485 C   0  0  0  0  0  0  0  0  0  0  0  0
    9.4578   -5.0200   16.3036 N   0  0  0  0  0  0  0  0  0  0  0  0
    5.0287   -8.9365   16.8223 C   0  0  0  0  0  0  0  0  0  0  0  0
    8.7742   -6.1498   16.6764 C   0  0  0  0  0  0  0  0  0  0  0  0
   10.9418   -3.4032   21.2053 O   0  0  0  0  0  0  0  0  0  0  0  0
    1.4797   -8.6258   16.2950 C   0  0  0  0  0  0  0  0  0  0  0  0
    9.2861   -1.2743   25.3585 C   0  0  0  0  0  0  0  0  0  0  0  0
    1.8892  -10.3985   17.7511 N   0  0  0  0  0  0  0  0  0  0  0  0
    9.6210   -0.6952   24.0976 C   0  0  0  0  0  0  0  0  0  0  0  0
    7.0792   -9.0217   17.1429 C   0  0  0  0  0  0  0  0  0  0  0  0
    3.1713  -10.1816   17.6634 C   0  0  0  0  0  0  0  0  0  0  0  0
    2.7878   -8.3822   16.2137 C   0  0  0  0  0  0  0  0  0  0  0  0
    9.4601   -2.6590   25.6528 C   0  0  0  0  0  0  0  0  0  0  0  0
   10.1182   -1.5672   23.1165 C   0  0  0  0  0  0  0  0  0  0  0  0
    1.0552   -9.6360   17.0650 C   0  0  0  0  0  0  0  0  0  0  0  0
    3.6519   -9.1783   16.9039 C   0  0  0  0  0  0  0  0  0  0  0  0
    7.8675   -7.0096   15.9415 C   0  0  0  0  0  0  0  0  0  0  0  0
    5.9733   -9.6553   17.3832 N   0  0  0  0  0  0  0  0  0  0  0  0
   10.2411   -2.9363   23.4301 C   0  0  0  0  0  0  0  0  0  0  0  0
   10.7288   -3.8197   19.9525 C   0  0  0  0  0  0  0  0  0  0  0  0
   10.1189   -5.0054   19.6987 C   0  0  0  0  0  0  0  0  0  0  0  0
  1  3  4  0
  1  7  4  0
  2 21  4  0
  2 27  4  0
  3  9  4  0
  3 10  4  0
  4  8  4  0
  4 18  4  0
  4 25  1  0
  5  9  4  0
  5 12  4  0
  6 13  1  0
  6 27  1  0
  7 28  4  0
  8 11  4  0
  9 29  4  0
 10 12  4  0
 11 24  1  0
 11 26  4  0
 12 25  1  0
 13 28  1  0
 14 20  4  0
 14 23  4  0
 15 17  4  0
 15 21  4  0
 16 19  4  0
 16 23  4  0
 17 22  4  0
 18 26  4  0
 19 24  4  0
 20 24  4  0
 22 27  4  0
 28 29  4  0
M  END
$$$$

 Created by Python create_sdf_string function

 29 33  0  0  0  0  0  0  0  0999 V2000
   10.7215   -3.3326   17.6437 C   0  0  0  0  0  0  0  0  0  0  0  0
    9.9489   -3.4675   24.6487 N   0  0  0  0  0  0  0  0  0  0  0  0
   10.0172   -4.4740   17.4101 C   0  0  0  0  0  0  0  0  0  0  0  0
    6.9051   -7.9575   16.4222 C   0  0  0  0  0  0  0  0  0  0  0  0
    8.9969   -6.3552   17.9668 N   0  0  0  0  0  0  0  0  0  0  0  0
   10.6702   -3.9051   22.4070 C   0  0  0  0  0  0  0  0  0  0  0  0
   11.0625   -3.0028   18.8894 C   0  0  0  0  0  0  0  0  0  0  0  0
    5.6180   -7.9194   16.1754 O   0  0  0  0  0  0  0  0  0  0  0  0
    9.7259   -5.3080   18.4485 C   0  0  0  0  0  0  0  0  0  0  0  0
    9.4578   -5.0200   16.3036 N   0  0  0  0  0  0  0  0  0  0  0  0
    5.0287   -8.9365   16.8223 C   0  0  0  0  0  0  0  0  0  0  0  0
    8.7742   -6.1498   16.6764 C   0  0  0  0  0  0  0  0  0  0  0  0
   10.9418   -3.4032   21.2053 O   0  0  0  0  0  0  0  0  0  0  0  0
    1.4797   -8.6258   16.2950 C   0  0  0  0  0  0  0  0  0  0  0  0
    9.2861   -1.2743   25.3585 C   0  0  0  0  0  0  0  0  0  0  0  0
    1.8892  -10.3985   17.7511 N   0  0  0  0  0  0  0  0  0  0  0  0
    9.6210   -0.6952   24.0976 C   0  0  0  0  0  0  0  0  0  0  0  0
    7.0792   -9.0217   17.1429 C   0  0  0  0  0  0  0  0  0  0  0  0
    3.1713  -10.1816   17.6634 C   0  0  0  0  0  0  0  0  0  0  0  0
    2.7878   -8.3822   16.2137 C   0  0  0  0  0  0  0  0  0  0  0  0
    9.4601   -2.6590   25.6528 C   0  0  0  0  0  0  0  0  0  0  0  0
   10.1182   -1.5672   23.1165 C   0  0  0  0  0  0  0  0  0  0  0  0
    1.0552   -9.6360   17.0650 C   0  0  0  0  0  0  0  0  0  0  0  0
    3.6519   -9.1783   16.9039 C   0  0  0  0  0  0  0  0  0  0  0  0
    7.8675   -7.0096   15.9415 C   0  0  0  0  0  0  0  0  0  0  0  0
    5.9733   -9.6553   17.3832 N   0  0  0  0  0  0  0  0  0  0  0  0
   10.2411   -2.9363   23.4301 C   0  0  0  0  0  0  0  0  0  0  0  0
   10.7288   -3.8197   19.9525 C   0  0  0  0  0  0  0  0  0  0  0  0
   10.1189   -5.0054   19.6987 C   0  0  0  0  0  0  0  0  0  0  0  0
  1  3  4  0
  1  7  4  0
  2 21  4  0
  2 27  4  0
  3  9  4  0
  3 10  4  0
  4  8  4  0
  4 18  4  0
  4 25  1  0
  5  9  4  0
  5 12  4  0
  6 13  1  0
  6 27  1  0
  7 28  4  0
  8 11  4  0
  9 29  4  0
 10 12  4  0
 11 24  1  0
 11 26  4  0
 12 25  1  0
 13 28  1  0
 14 20  4  0
 14 23  4  0
 15 17  4  0
 15 21  4  0
 16 19  4  0
 16 23  4  0
 17 22  4  0
 18 26  4  0
 19 24  4  0
 20 24  4  0
 22 27  4  0
 28 29  4  0
M  END
$$$$

 Created by Python create_sdf_string function

 29 33  0  0  0  0  0  0  0  0999 V2000
   10.7215   -3.3326   17.6437 C   0  0  0  0  0  0  0  0  0  0  0  0
    9.9489   -3.4675   24.6487 N   0  0  0  0  0  0  0  0  0  0  0  0
   10.0172   -4.4740   17.4101 C   0  0  0  0  0  0  0  0  0  0  0  0
    6.9051   -7.9575   16.4222 C   0  0  0  0  0  0  0  0  0  0  0  0
    8.9969   -6.3552   17.9668 N   0  0  0  0  0  0  0  0  0  0  0  0
   10.6702   -3.9051   22.4070 C   0  0  0  0  0  0  0  0  0  0  0  0
   11.0625   -3.0028   18.8894 C   0  0  0  0  0  0  0  0  0  0  0  0
    5.6180   -7.9194   16.1754 O   0  0  0  0  0  0  0  0  0  0  0  0
    9.7259   -5.3080   18.4485 C   0  0  0  0  0  0  0  0  0  0  0  0
    9.4578   -5.0200   16.3036 N   0  0  0  0  0  0  0  0  0  0  0  0
    5.0287   -8.9365   16.8223 C   0  0  0  0  0  0  0  0  0  0  0  0
    8.7742   -6.1498   16.6764 C   0  0  0  0  0  0  0  0  0  0  0  0
   10.9418   -3.4032   21.2053 O   0  0  0  0  0  0  0  0  0  0  0  0
    1.4797   -8.6258   16.2950 C   0  0  0  0  0  0  0  0  0  0  0  0
    9.2861   -1.2743   25.3585 C   0  0  0  0  0  0  0  0  0  0  0  0
    1.8892  -10.3985   17.7511 N   0  0  0  0  0  0  0  0  0  0  0  0
    9.6210   -0.6952   24.0976 C   0  0  0  0  0  0  0  0  0  0  0  0
    7.0792   -9.0217   17.1429 C   0  0  0  0  0  0  0  0  0  0  0  0
    3.1713  -10.1816   17.6634 C   0  0  0  0  0  0  0  0  0  0  0  0
    2.7878   -8.3822   16.2137 C   0  0  0  0  0  0  0  0  0  0  0  0
    9.4601   -2.6590   25.6528 C   0  0  0  0  0  0  0  0  0  0  0  0
   10.1182   -1.5672   23.1165 C   0  0  0  0  0  0  0  0  0  0  0  0
    1.0552   -9.6360   17.0650 C   0  0  0  0  0  0  0  0  0  0  0  0
    3.6519   -9.1783   16.9039 C   0  0  0  0  0  0  0  0  0  0  0  0
    7.8675   -7.0096   15.9415 C   0  0  0  0  0  0  0  0  0  0  0  0
    5.9733   -9.6553   17.3832 N   0  0  0  0  0  0  0  0  0  0  0  0
   10.2411   -2.9363   23.4301 C   0  0  0  0  0  0  0  0  0  0  0  0
   10.7288   -3.8197   19.9525 C   0  0  0  0  0  0  0  0  0  0  0  0
   10.1189   -5.0054   19.6987 C   0  0  0  0  0  0  0  0  0  0  0  0
  1  3  4  0
  1  7  4  0
  2 21  4  0
  2 27  4  0
  3  9  4  0
  3 10  4  0
  4  8  4  0
  4 18  4  0
  4 25  1  0
  5  9  4  0
  5 12  4  0
  6 13  1  0
  6 27  1  0
  7 28  4  0
  8 11  4  0
  9 29  4  0
 10 12  4  0
 11 24  1  0
 11 26  4  0
 12 25  1  0
 13 28  1  0
 14 20  4  0
 14 23  4  0
 15 17  4  0
 15 21  4  0
 16 19  4  0
 16 23  4  0
 17 22  4  0
 18 26  4  0
 19 24  4  0
 20 24  4  0
 22 27  4  0
 28 29  4  0
M  END
$$$$

 Created by Python create_sdf_string function

 29 33  0  0  0  0  0  0  0  0999 V2000
   10.7215   -3.3326   17.6437 C   0  0  0  0  0  0  0  0  0  0  0  0
    9.9489   -3.4675   24.6487 N   0  0  0  0  0  0  0  0  0  0  0  0
   10.0172   -4.4740   17.4101 C   0  0  0  0  0  0  0  0  0  0  0  0
    6.9051   -7.9575   16.4222 C   0  0  0  0  0  0  0  0  0  0  0  0
    8.9969   -6.3552   17.9668 N   0  0  0  0  0  0  0  0  0  0  0  0
   10.6702   -3.9051   22.4070 C   0  0  0  0  0  0  0  0  0  0  0  0
   11.0625   -3.0028   18.8894 C   0  0  0  0  0  0  0  0  0  0  0  0
    5.6180   -7.9194   16.1754 O   0  0  0  0  0  0  0  0  0  0  0  0
    9.7259   -5.3080   18.4485 C   0  0  0  0  0  0  0  0  0  0  0  0
    9.4578   -5.0200   16.3036 N   0  0  0  0  0  0  0  0  0  0  0  0
    5.0287   -8.9365   16.8223 C   0  0  0  0  0  0  0  0  0  0  0  0
    8.7742   -6.1498   16.6764 C   0  0  0  0  0  0  0  0  0  0  0  0
   10.9418   -3.4032   21.2053 O   0  0  0  0  0  0  0  0  0  0  0  0
    1.4797   -8.6258   16.2950 C   0  0  0  0  0  0  0  0  0  0  0  0
    9.2861   -1.2743   25.3585 C   0  0  0  0  0  0  0  0  0  0  0  0
    1.8892  -10.3985   17.7511 N   0  0  0  0  0  0  0  0  0  0  0  0
    9.6210   -0.6952   24.0976 C   0  0  0  0  0  0  0  0  0  0  0  0
    7.0792   -9.0217   17.1429 C   0  0  0  0  0  0  0  0  0  0  0  0
    3.1713  -10.1816   17.6634 C   0  0  0  0  0  0  0  0  0  0  0  0
    2.7878   -8.3822   16.2137 C   0  0  0  0  0  0  0  0  0  0  0  0
    9.4601   -2.6590   25.6528 C   0  0  0  0  0  0  0  0  0  0  0  0
   10.1182   -1.5672   23.1165 C   0  0  0  0  0  0  0  0  0  0  0  0
    1.0552   -9.6360   17.0650 C   0  0  0  0  0  0  0  0  0  0  0  0
    3.6519   -9.1783   16.9039 C   0  0  0  0  0  0  0  0  0  0  0  0
    7.8675   -7.0096   15.9415 C   0  0  0  0  0  0  0  0  0  0  0  0
    5.9733   -9.6553   17.3832 N   0  0  0  0  0  0  0  0  0  0  0  0
   10.2411   -2.9363   23.4301 C   0  0  0  0  0  0  0  0  0  0  0  0
   10.7288   -3.8197   19.9525 C   0  0  0  0  0  0  0  0  0  0  0  0
   10.1189   -5.0054   19.6987 C   0  0  0  0  0  0  0  0  0  0  0  0
  1  3  4  0
  1  7  4  0
  2 21  4  0
  2 27  4  0
  3  9  4  0
  3 10  4  0
  4  8  4  0
  4 18  4  0
  4 25  1  0
  5  9  4  0
  5 12  4  0
  6 13  1  0
  6 27  1  0
  7 28  4  0
  8 11  4  0
  9 29  4  0
 10 12  4  0
 11 24  1  0
 11 26  4  0
 12 25  1  0
 13 28  1  0
 14 20  4  0
 14 23  4  0
 15 17  4  0
 15 21  4  0
 16 19  4  0
 16 23  4  0
 17 22  4  0
 18 26  4  0
 19 24  4  0
 20 24  4  0
 22 27  4  0
 28 29  4  0
M  END
$$$$

 Created by Python create_sdf_string function

 29 33  0  0  0  0  0  0  0  0999 V2000
   10.7215   -3.3326   17.6437 C   0  0  0  0  0  0  0  0  0  0  0  0
    9.9489   -3.4675   24.6487 N   0  0  0  0  0  0  0  0  0  0  0  0
   10.0172   -4.4740   17.4101 C   0  0  0  0  0  0  0  0  0  0  0  0
    6.9051   -7.9575   16.4222 C   0  0  0  0  0  0  0  0  0  0  0  0
    8.9969   -6.3552   17.9668 N   0  0  0  0  0  0  0  0  0  0  0  0
   10.6702   -3.9051   22.4070 C   0  0  0  0  0  0  0  0  0  0  0  0
   11.0625   -3.0028   18.8894 C   0  0  0  0  0  0  0  0  0  0  0  0
    5.6180   -7.9194   16.1754 O   0  0  0  0  0  0  0  0  0  0  0  0
    9.7259   -5.3080   18.4485 C   0  0  0  0  0  0  0  0  0  0  0  0
    9.4578   -5.0200   16.3036 N   0  0  0  0  0  0  0  0  0  0  0  0
    5.0287   -8.9365   16.8223 C   0  0  0  0  0  0  0  0  0  0  0  0
    8.7742   -6.1498   16.6764 C   0  0  0  0  0  0  0  0  0  0  0  0
   10.9418   -3.4032   21.2053 O   0  0  0  0  0  0  0  0  0  0  0  0
    1.4797   -8.6258   16.2950 C   0  0  0  0  0  0  0  0  0  0  0  0
    9.2861   -1.2743   25.3585 C   0  0  0  0  0  0  0  0  0  0  0  0
    1.8892  -10.3985   17.7511 N   0  0  0  0  0  0  0  0  0  0  0  0
    9.6210   -0.6952   24.0976 C   0  0  0  0  0  0  0  0  0  0  0  0
    7.0792   -9.0217   17.1429 C   0  0  0  0  0  0  0  0  0  0  0  0
    3.1713  -10.1816   17.6634 C   0  0  0  0  0  0  0  0  0  0  0  0
    2.7878   -8.3822   16.2137 C   0  0  0  0  0  0  0  0  0  0  0  0
    9.4601   -2.6590   25.6528 C   0  0  0  0  0  0  0  0  0  0  0  0
   10.1182   -1.5672   23.1165 C   0  0  0  0  0  0  0  0  0  0  0  0
    1.0552   -9.6360   17.0650 C   0  0  0  0  0  0  0  0  0  0  0  0
    3.6519   -9.1783   16.9039 C   0  0  0  0  0  0  0  0  0  0  0  0
    7.8675   -7.0096   15.9415 C   0  0  0  0  0  0  0  0  0  0  0  0
    5.9733   -9.6553   17.3832 N   0  0  0  0  0  0  0  0  0  0  0  0
   10.2411   -2.9363   23.4301 C   0  0  0  0  0  0  0  0  0  0  0  0
   10.7288   -3.8197   19.9525 C   0  0  0  0  0  0  0  0  0  0  0  0
   10.1189   -5.0054   19.6987 C   0  0  0  0  0  0  0  0  0  0  0  0
  1  3  4  0
  1  7  4  0
  2 21  4  0
  2 27  4  0
  3  9  4  0
  3 10  4  0
  4  8  4  0
  4 18  4  0
  4 25  1  0
  5  9  4  0
  5 12  4  0
  6 13  1  0
  6 27  1  0
  7 28  4  0
  8 11  4  0
  9 29  4  0
 10 12  4  0
 11 24  1  0
 11 26  4  0
 12 25  1  0
 13 28  1  0
 14 20  4  0
 14 23  4  0
 15 17  4  0
 15 21  4  0
 16 19  4  0
 16 23  4  0
 17 22  4  0
 18 26  4  0
 19 24  4  0
 20 24  4  0
 22 27  4  0
 28 29  4  0
M  END
$$$$

 Created by Python create_sdf_string function

 29 33  0  0  0  0  0  0  0  0999 V2000
   10.7215   -3.3326   17.6437 C   0  0  0  0  0  0  0  0  0  0  0  0
    9.9489   -3.4675   24.6487 N   0  0  0  0  0  0  0  0  0  0  0  0
   10.0172   -4.4740   17.4101 C   0  0  0  0  0  0  0  0  0  0  0  0
    6.9051   -7.9575   16.4222 C   0  0  0  0  0  0  0  0  0  0  0  0
    8.9969   -6.3552   17.9668 N   0  0  0  0  0  0  0  0  0  0  0  0
   10.6702   -3.9051   22.4070 C   0  0  0  0  0  0  0  0  0  0  0  0
   11.0625   -3.0028   18.8894 C   0  0  0  0  0  0  0  0  0  0  0  0
    5.6180   -7.9194   16.1754 O   0  0  0  0  0  0  0  0  0  0  0  0
    9.7259   -5.3080   18.4485 C   0  0  0  0  0  0  0  0  0  0  0  0
    9.4578   -5.0200   16.3036 N   0  0  0  0  0  0  0  0  0  0  0  0
    5.0287   -8.9365   16.8223 C   0  0  0  0  0  0  0  0  0  0  0  0
    8.7742   -6.1498   16.6764 C   0  0  0  0  0  0  0  0  0  0  0  0
   10.9418   -3.4032   21.2053 O   0  0  0  0  0  0  0  0  0  0  0  0
    1.4797   -8.6258   16.2950 C   0  0  0  0  0  0  0  0  0  0  0  0
    9.2861   -1.2743   25.3585 C   0  0  0  0  0  0  0  0  0  0  0  0
    1.8892  -10.3985   17.7511 N   0  0  0  0  0  0  0  0  0  0  0  0
    9.6210   -0.6952   24.0976 C   0  0  0  0  0  0  0  0  0  0  0  0
    7.0792   -9.0217   17.1429 C   0  0  0  0  0  0  0  0  0  0  0  0
    3.1713  -10.1816   17.6634 C   0  0  0  0  0  0  0  0  0  0  0  0
    2.7878   -8.3822   16.2137 C   0  0  0  0  0  0  0  0  0  0  0  0
    9.4601   -2.6590   25.6528 C   0  0  0  0  0  0  0  0  0  0  0  0
   10.1182   -1.5672   23.1165 C   0  0  0  0  0  0  0  0  0  0  0  0
    1.0552   -9.6360   17.0650 C   0  0  0  0  0  0  0  0  0  0  0  0
    3.6519   -9.1783   16.9039 C   0  0  0  0  0  0  0  0  0  0  0  0
    7.8675   -7.0096   15.9415 C   0  0  0  0  0  0  0  0  0  0  0  0
    5.9733   -9.6553   17.3832 N   0  0  0  0  0  0  0  0  0  0  0  0
   10.2411   -2.9363   23.4301 C   0  0  0  0  0  0  0  0  0  0  0  0
   10.7288   -3.8197   19.9525 C   0  0  0  0  0  0  0  0  0  0  0  0
   10.1189   -5.0054   19.6987 C   0  0  0  0  0  0  0  0  0  0  0  0
  1  3  4  0
  1  7  4  0
  2 21  4  0
  2 27  4  0
  3  9  4  0
  3 10  4  0
  4  8  4  0
  4 18  4  0
  4 25  1  0
  5  9  4  0
  5 12  4  0
  6 13  1  0
  6 27  1  0
  7 28  4  0
  8 11  4  0
  9 29  4  0
 10 12  4  0
 11 24  1  0
 11 26  4  0
 12 25  1  0
 13 28  1  0
 14 20  4  0
 14 23  4  0
 15 17  4  0
 15 21  4  0
 16 19  4  0
 16 23  4  0
 17 22  4  0
 18 26  4  0
 19 24  4  0
 20 24  4  0
 22 27  4  0
 28 29  4  0
M  END
$$$$

 Created by Python create_sdf_string function

 29 33  0  0  0  0  0  0  0  0999 V2000
   10.7215   -3.3326   17.6437 C   0  0  0  0  0  0  0  0  0  0  0  0
    9.9489   -3.4675   24.6487 N   0  0  0  0  0  0  0  0  0  0  0  0
   10.0172   -4.4740   17.4101 C   0  0  0  0  0  0  0  0  0  0  0  0
    6.9051   -7.9575   16.4222 C   0  0  0  0  0  0  0  0  0  0  0  0
    8.9969   -6.3552   17.9668 N   0  0  0  0  0  0  0  0  0  0  0  0
   10.6702   -3.9051   22.4070 C   0  0  0  0  0  0  0  0  0  0  0  0
   11.0625   -3.0028   18.8894 C   0  0  0  0  0  0  0  0  0  0  0  0
    5.6180   -7.9194   16.1754 O   0  0  0  0  0  0  0  0  0  0  0  0
    9.7259   -5.3080   18.4485 C   0  0  0  0  0  0  0  0  0  0  0  0
    9.4578   -5.0200   16.3036 N   0  0  0  0  0  0  0  0  0  0  0  0
    5.0287   -8.9365   16.8223 C   0  0  0  0  0  0  0  0  0  0  0  0
    8.7742   -6.1498   16.6764 C   0  0  0  0  0  0  0  0  0  0  0  0
   10.9418   -3.4032   21.2053 O   0  0  0  0  0  0  0  0  0  0  0  0
    1.4797   -8.6258   16.2950 C   0  0  0  0  0  0  0  0  0  0  0  0
    9.2861   -1.2743   25.3585 C   0  0  0  0  0  0  0  0  0  0  0  0
    1.8892  -10.3985   17.7511 N   0  0  0  0  0  0  0  0  0  0  0  0
    9.6210   -0.6952   24.0976 C   0  0  0  0  0  0  0  0  0  0  0  0
    7.0792   -9.0217   17.1429 C   0  0  0  0  0  0  0  0  0  0  0  0
    3.1713  -10.1816   17.6634 C   0  0  0  0  0  0  0  0  0  0  0  0
    2.7878   -8.3822   16.2137 C   0  0  0  0  0  0  0  0  0  0  0  0
    9.4601   -2.6590   25.6528 C   0  0  0  0  0  0  0  0  0  0  0  0
   10.1182   -1.5672   23.1165 C   0  0  0  0  0  0  0  0  0  0  0  0
    1.0552   -9.6360   17.0650 C   0  0  0  0  0  0  0  0  0  0  0  0
    3.6519   -9.1783   16.9039 C   0  0  0  0  0  0  0  0  0  0  0  0
    7.8675   -7.0096   15.9415 C   0  0  0  0  0  0  0  0  0  0  0  0
    5.9733   -9.6553   17.3832 N   0  0  0  0  0  0  0  0  0  0  0  0
   10.2411   -2.9363   23.4301 C   0  0  0  0  0  0  0  0  0  0  0  0
   10.7288   -3.8197   19.9525 C   0  0  0  0  0  0  0  0  0  0  0  0
   10.1189   -5.0054   19.6987 C   0  0  0  0  0  0  0  0  0  0  0  0
  1  3  4  0
  1  7  4  0
  2 21  4  0
  2 27  4  0
  3  9  4  0
  3 10  4  0
  4  8  4  0
  4 18  4  0
  4 25  1  0
  5  9  4  0
  5 12  4  0
  6 13  1  0
  6 27  1  0
  7 28  4  0
  8 11  4  0
  9 29  4  0
 10 12  4  0
 11 24  1  0
 11 26  4  0
 12 25  1  0
 13 28  1  0
 14 20  4  0
 14 23  4  0
 15 17  4  0
 15 21  4  0
 16 19  4  0
 16 23  4  0
 17 22  4  0
 18 26  4  0
 19 24  4  0
 20 24  4  0
 22 27  4  0
 28 29  4  0
M  END
$$$$

 Created by Python create_sdf_string function

 29 33  0  0  0  0  0  0  0  0999 V2000
   10.7215   -3.3326   17.6437 C   0  0  0  0  0  0  0  0  0  0  0  0
    9.9489   -3.4675   24.6487 N   0  0  0  0  0  0  0  0  0  0  0  0
   10.0172   -4.4740   17.4101 C   0  0  0  0  0  0  0  0  0  0  0  0
    6.9051   -7.9575   16.4222 C   0  0  0  0  0  0  0  0  0  0  0  0
    8.9969   -6.3552   17.9668 N   0  0  0  0  0  0  0  0  0  0  0  0
   10.6702   -3.9051   22.4070 C   0  0  0  0  0  0  0  0  0  0  0  0
   11.0625   -3.0028   18.8894 C   0  0  0  0  0  0  0  0  0  0  0  0
    5.6180   -7.9194   16.1754 O   0  0  0  0  0  0  0  0  0  0  0  0
    9.7259   -5.3080   18.4485 C   0  0  0  0  0  0  0  0  0  0  0  0
    9.4578   -5.0200   16.3036 N   0  0  0  0  0  0  0  0  0  0  0  0
    5.0287   -8.9365   16.8223 C   0  0  0  0  0  0  0  0  0  0  0  0
    8.7742   -6.1498   16.6764 C   0  0  0  0  0  0  0  0  0  0  0  0
   10.9418   -3.4032   21.2053 O   0  0  0  0  0  0  0  0  0  0  0  0
    1.4797   -8.6258   16.2950 C   0  0  0  0  0  0  0  0  0  0  0  0
    9.2861   -1.2743   25.3585 C   0  0  0  0  0  0  0  0  0  0  0  0
    1.8892  -10.3985   17.7511 N   0  0  0  0  0  0  0  0  0  0  0  0
    9.6210   -0.6952   24.0976 C   0  0  0  0  0  0  0  0  0  0  0  0
    7.0792   -9.0217   17.1429 C   0  0  0  0  0  0  0  0  0  0  0  0
    3.1713  -10.1816   17.6634 C   0  0  0  0  0  0  0  0  0  0  0  0
    2.7878   -8.3822   16.2137 C   0  0  0  0  0  0  0  0  0  0  0  0
    9.4601   -2.6590   25.6528 C   0  0  0  0  0  0  0  0  0  0  0  0
   10.1182   -1.5672   23.1165 C   0  0  0  0  0  0  0  0  0  0  0  0
    1.0552   -9.6360   17.0650 C   0  0  0  0  0  0  0  0  0  0  0  0
    3.6519   -9.1783   16.9039 C   0  0  0  0  0  0  0  0  0  0  0  0
    7.8675   -7.0096   15.9415 C   0  0  0  0  0  0  0  0  0  0  0  0
    5.9733   -9.6553   17.3832 N   0  0  0  0  0  0  0  0  0  0  0  0
   10.2411   -2.9363   23.4301 C   0  0  0  0  0  0  0  0  0  0  0  0
   10.7288   -3.8197   19.9525 C   0  0  0  0  0  0  0  0  0  0  0  0
   10.1189   -5.0054   19.6987 C   0  0  0  0  0  0  0  0  0  0  0  0
  1  3  4  0
  1  7  4  0
  2 21  4  0
  2 27  4  0
  3  9  4  0
  3 10  4  0
  4  8  4  0
  4 18  4  0
  4 25  1  0
  5  9  4  0
  5 12  4  0
  6 13  1  0
  6 27  1  0
  7 28  4  0
  8 11  4  0
  9 29  4  0
 10 12  4  0
 11 24  1  0
 11 26  4  0
 12 25  1  0
 13 28  1  0
 14 20  4  0
 14 23  4  0
 15 17  4  0
 15 21  4  0
 16 19  4  0
 16 23  4  0
 17 22  4  0
 18 26  4  0
 19 24  4  0
 20 24  4  0
 22 27  4  0
 28 29  4  0
M  END
$$$$

 Created by Python create_sdf_string function

 29 33  0  0  0  0  0  0  0  0999 V2000
   10.7215   -3.3326   17.6437 C   0  0  0  0  0  0  0  0  0  0  0  0
    9.9489   -3.4675   24.6487 N   0  0  0  0  0  0  0  0  0  0  0  0
   10.0172   -4.4740   17.4101 C   0  0  0  0  0  0  0  0  0  0  0  0
    6.9051   -7.9575   16.4222 C   0  0  0  0  0  0  0  0  0  0  0  0
    8.9969   -6.3552   17.9668 N   0  0  0  0  0  0  0  0  0  0  0  0
   10.6702   -3.9051   22.4070 C   0  0  0  0  0  0  0  0  0  0  0  0
   11.0625   -3.0028   18.8894 C   0  0  0  0  0  0  0  0  0  0  0  0
    5.6180   -7.9194   16.1754 O   0  0  0  0  0  0  0  0  0  0  0  0
    9.7259   -5.3080   18.4485 C   0  0  0  0  0  0  0  0  0  0  0  0
    9.4578   -5.0200   16.3036 N   0  0  0  0  0  0  0  0  0  0  0  0
    5.0287   -8.9365   16.8223 C   0  0  0  0  0  0  0  0  0  0  0  0
    8.7742   -6.1498   16.6764 C   0  0  0  0  0  0  0  0  0  0  0  0
   10.9418   -3.4032   21.2053 O   0  0  0  0  0  0  0  0  0  0  0  0
    1.4797   -8.6258   16.2950 C   0  0  0  0  0  0  0  0  0  0  0  0
    9.2861   -1.2743   25.3585 C   0  0  0  0  0  0  0  0  0  0  0  0
    1.8892  -10.3985   17.7511 N   0  0  0  0  0  0  0  0  0  0  0  0
    9.6210   -0.6952   24.0976 C   0  0  0  0  0  0  0  0  0  0  0  0
    7.0792   -9.0217   17.1429 C   0  0  0  0  0  0  0  0  0  0  0  0
    3.1713  -10.1816   17.6634 C   0  0  0  0  0  0  0  0  0  0  0  0
    2.7878   -8.3822   16.2137 C   0  0  0  0  0  0  0  0  0  0  0  0
    9.4601   -2.6590   25.6528 C   0  0  0  0  0  0  0  0  0  0  0  0
   10.1182   -1.5672   23.1165 C   0  0  0  0  0  0  0  0  0  0  0  0
    1.0552   -9.6360   17.0650 C   0  0  0  0  0  0  0  0  0  0  0  0
    3.6519   -9.1783   16.9039 C   0  0  0  0  0  0  0  0  0  0  0  0
    7.8675   -7.0096   15.9415 C   0  0  0  0  0  0  0  0  0  0  0  0
    5.9733   -9.6553   17.3832 N   0  0  0  0  0  0  0  0  0  0  0  0
   10.2411   -2.9363   23.4301 C   0  0  0  0  0  0  0  0  0  0  0  0
   10.7288   -3.8197   19.9525 C   0  0  0  0  0  0  0  0  0  0  0  0
   10.1189   -5.0054   19.6987 C   0  0  0  0  0  0  0  0  0  0  0  0
  1  3  4  0
  1  7  4  0
  2 21  4  0
  2 27  4  0
  3  9  4  0
  3 10  4  0
  4  8  4  0
  4 18  4  0
  4 25  1  0
  5  9  4  0
  5 12  4  0
  6 13  1  0
  6 27  1  0
  7 28  4  0
  8 11  4  0
  9 29  4  0
 10 12  4  0
 11 24  1  0
 11 26  4  0
 12 25  1  0
 13 28  1  0
 14 20  4  0
 14 23  4  0
 15 17  4  0
 15 21  4  0
 16 19  4  0
 16 23  4  0
 17 22  4  0
 18 26  4  0
 19 24  4  0
 20 24  4  0
 22 27  4  0
 28 29  4  0
M  END
$$$$

 Created by Python create_sdf_string function

 29 33  0  0  0  0  0  0  0  0999 V2000
   10.7215   -3.3326   17.6437 C   0  0  0  0  0  0  0  0  0  0  0  0
    9.9489   -3.4675   24.6487 N   0  0  0  0  0  0  0  0  0  0  0  0
   10.0172   -4.4740   17.4101 C   0  0  0  0  0  0  0  0  0  0  0  0
    6.9051   -7.9575   16.4222 C   0  0  0  0  0  0  0  0  0  0  0  0
    8.9969   -6.3552   17.9668 N   0  0  0  0  0  0  0  0  0  0  0  0
   10.6702   -3.9051   22.4070 C   0  0  0  0  0  0  0  0  0  0  0  0
   11.0625   -3.0028   18.8894 C   0  0  0  0  0  0  0  0  0  0  0  0
    5.6180   -7.9194   16.1754 O   0  0  0  0  0  0  0  0  0  0  0  0
    9.7259   -5.3080   18.4485 C   0  0  0  0  0  0  0  0  0  0  0  0
    9.4578   -5.0200   16.3036 N   0  0  0  0  0  0  0  0  0  0  0  0
    5.0287   -8.9365   16.8223 C   0  0  0  0  0  0  0  0  0  0  0  0
    8.7742   -6.1498   16.6764 C   0  0  0  0  0  0  0  0  0  0  0  0
   10.9418   -3.4032   21.2053 O   0  0  0  0  0  0  0  0  0  0  0  0
    1.4797   -8.6258   16.2950 C   0  0  0  0  0  0  0  0  0  0  0  0
    9.2861   -1.2743   25.3585 C   0  0  0  0  0  0  0  0  0  0  0  0
    1.8892  -10.3985   17.7511 N   0  0  0  0  0  0  0  0  0  0  0  0
    9.6210   -0.6952   24.0976 C   0  0  0  0  0  0  0  0  0  0  0  0
    7.0792   -9.0217   17.1429 C   0  0  0  0  0  0  0  0  0  0  0  0
    3.1713  -10.1816   17.6634 C   0  0  0  0  0  0  0  0  0  0  0  0
    2.7878   -8.3822   16.2137 C   0  0  0  0  0  0  0  0  0  0  0  0
    9.4601   -2.6590   25.6528 C   0  0  0  0  0  0  0  0  0  0  0  0
   10.1182   -1.5672   23.1165 C   0  0  0  0  0  0  0  0  0  0  0  0
    1.0552   -9.6360   17.0650 C   0  0  0  0  0  0  0  0  0  0  0  0
    3.6519   -9.1783   16.9039 C   0  0  0  0  0  0  0  0  0  0  0  0
    7.8675   -7.0096   15.9415 C   0  0  0  0  0  0  0  0  0  0  0  0
    5.9733   -9.6553   17.3832 N   0  0  0  0  0  0  0  0  0  0  0  0
   10.2411   -2.9363   23.4301 C   0  0  0  0  0  0  0  0  0  0  0  0
   10.7288   -3.8197   19.9525 C   0  0  0  0  0  0  0  0  0  0  0  0
   10.1189   -5.0054   19.6987 C   0  0  0  0  0  0  0  0  0  0  0  0
  1  3  4  0
  1  7  4  0
  2 21  4  0
  2 27  4  0
  3  9  4  0
  3 10  4  0
  4  8  4  0
  4 18  4  0
  4 25  1  0
  5  9  4  0
  5 12  4  0
  6 13  1  0
  6 27  1  0
  7 28  4  0
  8 11  4  0
  9 29  4  0
 10 12  4  0
 11 24  1  0
 11 26  4  0
 12 25  1  0
 13 28  1  0
 14 20  4  0
 14 23  4  0
 15 17  4  0
 15 21  4  0
 16 19  4  0
 16 23  4  0
 17 22  4  0
 18 26  4  0
 19 24  4  0
 20 24  4  0
 22 27  4  0
 28 29  4  0
M  END
$$$$

 Created by Python create_sdf_string function

 29 33  0  0  0  0  0  0  0  0999 V2000
   10.7215   -3.3326   17.6437 C   0  0  0  0  0  0  0  0  0  0  0  0
    9.9489   -3.4675   24.6487 N   0  0  0  0  0  0  0  0  0  0  0  0
   10.0172   -4.4740   17.4101 C   0  0  0  0  0  0  0  0  0  0  0  0
    6.9051   -7.9575   16.4222 C   0  0  0  0  0  0  0  0  0  0  0  0
    8.9969   -6.3552   17.9668 N   0  0  0  0  0  0  0  0  0  0  0  0
   10.6702   -3.9051   22.4070 C   0  0  0  0  0  0  0  0  0  0  0  0
   11.0625   -3.0028   18.8894 C   0  0  0  0  0  0  0  0  0  0  0  0
    5.6180   -7.9194   16.1754 O   0  0  0  0  0  0  0  0  0  0  0  0
    9.7259   -5.3080   18.4485 C   0  0  0  0  0  0  0  0  0  0  0  0
    9.4578   -5.0200   16.3036 N   0  0  0  0  0  0  0  0  0  0  0  0
    5.0287   -8.9365   16.8223 C   0  0  0  0  0  0  0  0  0  0  0  0
    8.7742   -6.1498   16.6764 C   0  0  0  0  0  0  0  0  0  0  0  0
   10.9418   -3.4032   21.2053 O   0  0  0  0  0  0  0  0  0  0  0  0
    1.4797   -8.6258   16.2950 C   0  0  0  0  0  0  0  0  0  0  0  0
    9.2861   -1.2743   25.3585 C   0  0  0  0  0  0  0  0  0  0  0  0
    1.8892  -10.3985   17.7511 N   0  0  0  0  0  0  0  0  0  0  0  0
    9.6210   -0.6952   24.0976 C   0  0  0  0  0  0  0  0  0  0  0  0
    7.0792   -9.0217   17.1429 C   0  0  0  0  0  0  0  0  0  0  0  0
    3.1713  -10.1816   17.6634 C   0  0  0  0  0  0  0  0  0  0  0  0
    2.7878   -8.3822   16.2137 C   0  0  0  0  0  0  0  0  0  0  0  0
    9.4601   -2.6590   25.6528 C   0  0  0  0  0  0  0  0  0  0  0  0
   10.1182   -1.5672   23.1165 C   0  0  0  0  0  0  0  0  0  0  0  0
    1.0552   -9.6360   17.0650 C   0  0  0  0  0  0  0  0  0  0  0  0
    3.6519   -9.1783   16.9039 C   0  0  0  0  0  0  0  0  0  0  0  0
    7.8675   -7.0096   15.9415 C   0  0  0  0  0  0  0  0  0  0  0  0
    5.9733   -9.6553   17.3832 N   0  0  0  0  0  0  0  0  0  0  0  0
   10.2411   -2.9363   23.4301 C   0  0  0  0  0  0  0  0  0  0  0  0
   10.7288   -3.8197   19.9525 C   0  0  0  0  0  0  0  0  0  0  0  0
   10.1189   -5.0054   19.6987 C   0  0  0  0  0  0  0  0  0  0  0  0
  1  3  4  0
  1  7  4  0
  2 21  4  0
  2 27  4  0
  3  9  4  0
  3 10  4  0
  4  8  4  0
  4 18  4  0
  4 25  1  0
  5  9  4  0
  5 12  4  0
  6 13  1  0
  6 27  1  0
  7 28  4  0
  8 11  4  0
  9 29  4  0
 10 12  4  0
 11 24  1  0
 11 26  4  0
 12 25  1  0
 13 28  1  0
 14 20  4  0
 14 23  4  0
 15 17  4  0
 15 21  4  0
 16 19  4  0
 16 23  4  0
 17 22  4  0
 18 26  4  0
 19 24  4  0
 20 24  4  0
 22 27  4  0
 28 29  4  0
M  END
$$$$

 Created by Python create_sdf_string function

 29 33  0  0  0  0  0  0  0  0999 V2000
   10.7215   -3.3326   17.6437 C   0  0  0  0  0  0  0  0  0  0  0  0
    9.9489   -3.4675   24.6487 N   0  0  0  0  0  0  0  0  0  0  0  0
   10.0172   -4.4740   17.4101 C   0  0  0  0  0  0  0  0  0  0  0  0
    6.9051   -7.9575   16.4222 C   0  0  0  0  0  0  0  0  0  0  0  0
    8.9969   -6.3552   17.9668 N   0  0  0  0  0  0  0  0  0  0  0  0
   10.6702   -3.9051   22.4070 C   0  0  0  0  0  0  0  0  0  0  0  0
   11.0625   -3.0028   18.8894 C   0  0  0  0  0  0  0  0  0  0  0  0
    5.6180   -7.9194   16.1754 O   0  0  0  0  0  0  0  0  0  0  0  0
    9.7259   -5.3080   18.4485 C   0  0  0  0  0  0  0  0  0  0  0  0
    9.4578   -5.0200   16.3036 N   0  0  0  0  0  0  0  0  0  0  0  0
    5.0287   -8.9365   16.8223 C   0  0  0  0  0  0  0  0  0  0  0  0
    8.7742   -6.1498   16.6764 C   0  0  0  0  0  0  0  0  0  0  0  0
   10.9418   -3.4032   21.2053 O   0  0  0  0  0  0  0  0  0  0  0  0
    1.4797   -8.6258   16.2950 C   0  0  0  0  0  0  0  0  0  0  0  0
    9.2861   -1.2743   25.3585 C   0  0  0  0  0  0  0  0  0  0  0  0
    1.8892  -10.3985   17.7511 N   0  0  0  0  0  0  0  0  0  0  0  0
    9.6210   -0.6952   24.0976 C   0  0  0  0  0  0  0  0  0  0  0  0
    7.0792   -9.0217   17.1429 C   0  0  0  0  0  0  0  0  0  0  0  0
    3.1713  -10.1816   17.6634 C   0  0  0  0  0  0  0  0  0  0  0  0
    2.7878   -8.3822   16.2137 C   0  0  0  0  0  0  0  0  0  0  0  0
    9.4601   -2.6590   25.6528 C   0  0  0  0  0  0  0  0  0  0  0  0
   10.1182   -1.5672   23.1165 C   0  0  0  0  0  0  0  0  0  0  0  0
    1.0552   -9.6360   17.0650 C   0  0  0  0  0  0  0  0  0  0  0  0
    3.6519   -9.1783   16.9039 C   0  0  0  0  0  0  0  0  0  0  0  0
    7.8675   -7.0096   15.9415 C   0  0  0  0  0  0  0  0  0  0  0  0
    5.9733   -9.6553   17.3832 N   0  0  0  0  0  0  0  0  0  0  0  0
   10.2411   -2.9363   23.4301 C   0  0  0  0  0  0  0  0  0  0  0  0
   10.7288   -3.8197   19.9525 C   0  0  0  0  0  0  0  0  0  0  0  0
   10.1189   -5.0054   19.6987 C   0  0  0  0  0  0  0  0  0  0  0  0
  1  3  4  0
  1  7  4  0
  2 21  4  0
  2 27  4  0
  3  9  4  0
  3 10  4  0
  4  8  4  0
  4 18  4  0
  4 25  1  0
  5  9  4  0
  5 12  4  0
  6 13  1  0
  6 27  1  0
  7 28  4  0
  8 11  4  0
  9 29  4  0
 10 12  4  0
 11 24  1  0
 11 26  4  0
 12 25  1  0
 13 28  1  0
 14 20  4  0
 14 23  4  0
 15 17  4  0
 15 21  4  0
 16 19  4  0
 16 23  4  0
 17 22  4  0
 18 26  4  0
 19 24  4  0
 20 24  4  0
 22 27  4  0
 28 29  4  0
M  END
$$$$

 Created by Python create_sdf_string function

 29 33  0  0  0  0  0  0  0  0999 V2000
   10.7215   -3.3326   17.6437 C   0  0  0  0  0  0  0  0  0  0  0  0
    9.9489   -3.4675   24.6487 N   0  0  0  0  0  0  0  0  0  0  0  0
   10.0172   -4.4740   17.4101 C   0  0  0  0  0  0  0  0  0  0  0  0
    6.9051   -7.9575   16.4222 C   0  0  0  0  0  0  0  0  0  0  0  0
    8.9969   -6.3552   17.9668 N   0  0  0  0  0  0  0  0  0  0  0  0
   10.6702   -3.9051   22.4070 C   0  0  0  0  0  0  0  0  0  0  0  0
   11.0625   -3.0028   18.8894 C   0  0  0  0  0  0  0  0  0  0  0  0
    5.6180   -7.9194   16.1754 O   0  0  0  0  0  0  0  0  0  0  0  0
    9.7259   -5.3080   18.4485 C   0  0  0  0  0  0  0  0  0  0  0  0
    9.4578   -5.0200   16.3036 N   0  0  0  0  0  0  0  0  0  0  0  0
    5.0287   -8.9365   16.8223 C   0  0  0  0  0  0  0  0  0  0  0  0
    8.7742   -6.1498   16.6764 C   0  0  0  0  0  0  0  0  0  0  0  0
   10.9418   -3.4032   21.2053 O   0  0  0  0  0  0  0  0  0  0  0  0
    1.4797   -8.6258   16.2950 C   0  0  0  0  0  0  0  0  0  0  0  0
    9.2861   -1.2743   25.3585 C   0  0  0  0  0  0  0  0  0  0  0  0
    1.8892  -10.3985   17.7511 N   0  0  0  0  0  0  0  0  0  0  0  0
    9.6210   -0.6952   24.0976 C   0  0  0  0  0  0  0  0  0  0  0  0
    7.0792   -9.0217   17.1429 C   0  0  0  0  0  0  0  0  0  0  0  0
    3.1713  -10.1816   17.6634 C   0  0  0  0  0  0  0  0  0  0  0  0
    2.7878   -8.3822   16.2137 C   0  0  0  0  0  0  0  0  0  0  0  0
    9.4601   -2.6590   25.6528 C   0  0  0  0  0  0  0  0  0  0  0  0
   10.1182   -1.5672   23.1165 C   0  0  0  0  0  0  0  0  0  0  0  0
    1.0552   -9.6360   17.0650 C   0  0  0  0  0  0  0  0  0  0  0  0
    3.6519   -9.1783   16.9039 C   0  0  0  0  0  0  0  0  0  0  0  0
    7.8675   -7.0096   15.9415 C   0  0  0  0  0  0  0  0  0  0  0  0
    5.9733   -9.6553   17.3832 N   0  0  0  0  0  0  0  0  0  0  0  0
   10.2411   -2.9363   23.4301 C   0  0  0  0  0  0  0  0  0  0  0  0
   10.7288   -3.8197   19.9525 C   0  0  0  0  0  0  0  0  0  0  0  0
   10.1189   -5.0054   19.6987 C   0  0  0  0  0  0  0  0  0  0  0  0
  1  3  4  0
  1  7  4  0
  2 21  4  0
  2 27  4  0
  3  9  4  0
  3 10  4  0
  4  8  4  0
  4 18  4  0
  4 25  1  0
  5  9  4  0
  5 12  4  0
  6 13  1  0
  6 27  1  0
  7 28  4  0
  8 11  4  0
  9 29  4  0
 10 12  4  0
 11 24  1  0
 11 26  4  0
 12 25  1  0
 13 28  1  0
 14 20  4  0
 14 23  4  0
 15 17  4  0
 15 21  4  0
 16 19  4  0
 16 23  4  0
 17 22  4  0
 18 26  4  0
 19 24  4  0
 20 24  4  0
 22 27  4  0
 28 29  4  0
M  END
$$$$

 Created by Python create_sdf_string function

 29 33  0  0  0  0  0  0  0  0999 V2000
   10.7215   -3.3326   17.6437 C   0  0  0  0  0  0  0  0  0  0  0  0
    9.9489   -3.4675   24.6487 N   0  0  0  0  0  0  0  0  0  0  0  0
   10.0172   -4.4740   17.4101 C   0  0  0  0  0  0  0  0  0  0  0  0
    6.9051   -7.9575   16.4222 C   0  0  0  0  0  0  0  0  0  0  0  0
    8.9969   -6.3552   17.9668 N   0  0  0  0  0  0  0  0  0  0  0  0
   10.6702   -3.9051   22.4070 C   0  0  0  0  0  0  0  0  0  0  0  0
   11.0625   -3.0028   18.8894 C   0  0  0  0  0  0  0  0  0  0  0  0
    5.6180   -7.9194   16.1754 O   0  0  0  0  0  0  0  0  0  0  0  0
    9.7259   -5.3080   18.4485 C   0  0  0  0  0  0  0  0  0  0  0  0
    9.4578   -5.0200   16.3036 N   0  0  0  0  0  0  0  0  0  0  0  0
    5.0287   -8.9365   16.8223 C   0  0  0  0  0  0  0  0  0  0  0  0
    8.7742   -6.1498   16.6764 C   0  0  0  0  0  0  0  0  0  0  0  0
   10.9418   -3.4032   21.2053 O   0  0  0  0  0  0  0  0  0  0  0  0
    1.4797   -8.6258   16.2950 C   0  0  0  0  0  0  0  0  0  0  0  0
    9.2861   -1.2743   25.3585 C   0  0  0  0  0  0  0  0  0  0  0  0
    1.8892  -10.3985   17.7511 N   0  0  0  0  0  0  0  0  0  0  0  0
    9.6210   -0.6952   24.0976 C   0  0  0  0  0  0  0  0  0  0  0  0
    7.0792   -9.0217   17.1429 C   0  0  0  0  0  0  0  0  0  0  0  0
    3.1713  -10.1816   17.6634 C   0  0  0  0  0  0  0  0  0  0  0  0
    2.7878   -8.3822   16.2137 C   0  0  0  0  0  0  0  0  0  0  0  0
    9.4601   -2.6590   25.6528 C   0  0  0  0  0  0  0  0  0  0  0  0
   10.1182   -1.5672   23.1165 C   0  0  0  0  0  0  0  0  0  0  0  0
    1.0552   -9.6360   17.0650 C   0  0  0  0  0  0  0  0  0  0  0  0
    3.6519   -9.1783   16.9039 C   0  0  0  0  0  0  0  0  0  0  0  0
    7.8675   -7.0096   15.9415 C   0  0  0  0  0  0  0  0  0  0  0  0
    5.9733   -9.6553   17.3832 N   0  0  0  0  0  0  0  0  0  0  0  0
   10.2411   -2.9363   23.4301 C   0  0  0  0  0  0  0  0  0  0  0  0
   10.7288   -3.8197   19.9525 C   0  0  0  0  0  0  0  0  0  0  0  0
   10.1189   -5.0054   19.6987 C   0  0  0  0  0  0  0  0  0  0  0  0
  1  3  4  0
  1  7  4  0
  2 21  4  0
  2 27  4  0
  3  9  4  0
  3 10  4  0
  4  8  4  0
  4 18  4  0
  4 25  1  0
  5  9  4  0
  5 12  4  0
  6 13  1  0
  6 27  1  0
  7 28  4  0
  8 11  4  0
  9 29  4  0
 10 12  4  0
 11 24  1  0
 11 26  4  0
 12 25  1  0
 13 28  1  0
 14 20  4  0
 14 23  4  0
 15 17  4  0
 15 21  4  0
 16 19  4  0
 16 23  4  0
 17 22  4  0
 18 26  4  0
 19 24  4  0
 20 24  4  0
 22 27  4  0
 28 29  4  0
M  END
$$$$

 Created by Python create_sdf_string function

 29 33  0  0  0  0  0  0  0  0999 V2000
   10.7215   -3.3326   17.6437 C   0  0  0  0  0  0  0  0  0  0  0  0
    9.9489   -3.4675   24.6487 N   0  0  0  0  0  0  0  0  0  0  0  0
   10.0172   -4.4740   17.4101 C   0  0  0  0  0  0  0  0  0  0  0  0
    6.9051   -7.9575   16.4222 C   0  0  0  0  0  0  0  0  0  0  0  0
    8.9969   -6.3552   17.9668 N   0  0  0  0  0  0  0  0  0  0  0  0
   10.6702   -3.9051   22.4070 C   0  0  0  0  0  0  0  0  0  0  0  0
   11.0625   -3.0028   18.8894 C   0  0  0  0  0  0  0  0  0  0  0  0
    5.6180   -7.9194   16.1754 O   0  0  0  0  0  0  0  0  0  0  0  0
    9.7259   -5.3080   18.4485 C   0  0  0  0  0  0  0  0  0  0  0  0
    9.4578   -5.0200   16.3036 N   0  0  0  0  0  0  0  0  0  0  0  0
    5.0287   -8.9365   16.8223 C   0  0  0  0  0  0  0  0  0  0  0  0
    8.7742   -6.1498   16.6764 C   0  0  0  0  0  0  0  0  0  0  0  0
   10.9418   -3.4032   21.2053 O   0  0  0  0  0  0  0  0  0  0  0  0
    1.4797   -8.6258   16.2950 C   0  0  0  0  0  0  0  0  0  0  0  0
    9.2861   -1.2743   25.3585 C   0  0  0  0  0  0  0  0  0  0  0  0
    1.8892  -10.3985   17.7511 N   0  0  0  0  0  0  0  0  0  0  0  0
    9.6210   -0.6952   24.0976 C   0  0  0  0  0  0  0  0  0  0  0  0
    7.0792   -9.0217   17.1429 C   0  0  0  0  0  0  0  0  0  0  0  0
    3.1713  -10.1816   17.6634 C   0  0  0  0  0  0  0  0  0  0  0  0
    2.7878   -8.3822   16.2137 C   0  0  0  0  0  0  0  0  0  0  0  0
    9.4601   -2.6590   25.6528 C   0  0  0  0  0  0  0  0  0  0  0  0
   10.1182   -1.5672   23.1165 C   0  0  0  0  0  0  0  0  0  0  0  0
    1.0552   -9.6360   17.0650 C   0  0  0  0  0  0  0  0  0  0  0  0
    3.6519   -9.1783   16.9039 C   0  0  0  0  0  0  0  0  0  0  0  0
    7.8675   -7.0096   15.9415 C   0  0  0  0  0  0  0  0  0  0  0  0
    5.9733   -9.6553   17.3832 N   0  0  0  0  0  0  0  0  0  0  0  0
   10.2411   -2.9363   23.4301 C   0  0  0  0  0  0  0  0  0  0  0  0
   10.7288   -3.8197   19.9525 C   0  0  0  0  0  0  0  0  0  0  0  0
   10.1189   -5.0054   19.6987 C   0  0  0  0  0  0  0  0  0  0  0  0
  1  3  4  0
  1  7  4  0
  2 21  4  0
  2 27  4  0
  3  9  4  0
  3 10  4  0
  4  8  4  0
  4 18  4  0
  4 25  1  0
  5  9  4  0
  5 12  4  0
  6 13  1  0
  6 27  1  0
  7 28  4  0
  8 11  4  0
  9 29  4  0
 10 12  4  0
 11 24  1  0
 11 26  4  0
 12 25  1  0
 13 28  1  0
 14 20  4  0
 14 23  4  0
 15 17  4  0
 15 21  4  0
 16 19  4  0
 16 23  4  0
 17 22  4  0
 18 26  4  0
 19 24  4  0
 20 24  4  0
 22 27  4  0
 28 29  4  0
M  END
$$$$

 Created by Python create_sdf_string function

 29 33  0  0  0  0  0  0  0  0999 V2000
   10.7215   -3.3326   17.6437 C   0  0  0  0  0  0  0  0  0  0  0  0
    9.9489   -3.4675   24.6487 N   0  0  0  0  0  0  0  0  0  0  0  0
   10.0172   -4.4740   17.4101 C   0  0  0  0  0  0  0  0  0  0  0  0
    6.9051   -7.9575   16.4222 C   0  0  0  0  0  0  0  0  0  0  0  0
    8.9969   -6.3552   17.9668 N   0  0  0  0  0  0  0  0  0  0  0  0
   10.6702   -3.9051   22.4070 C   0  0  0  0  0  0  0  0  0  0  0  0
   11.0625   -3.0028   18.8894 C   0  0  0  0  0  0  0  0  0  0  0  0
    5.6180   -7.9194   16.1754 O   0  0  0  0  0  0  0  0  0  0  0  0
    9.7259   -5.3080   18.4485 C   0  0  0  0  0  0  0  0  0  0  0  0
    9.4578   -5.0200   16.3036 N   0  0  0  0  0  0  0  0  0  0  0  0
    5.0287   -8.9365   16.8223 C   0  0  0  0  0  0  0  0  0  0  0  0
    8.7742   -6.1498   16.6764 C   0  0  0  0  0  0  0  0  0  0  0  0
   10.9418   -3.4032   21.2053 O   0  0  0  0  0  0  0  0  0  0  0  0
    1.4797   -8.6258   16.2950 C   0  0  0  0  0  0  0  0  0  0  0  0
    9.2861   -1.2743   25.3585 C   0  0  0  0  0  0  0  0  0  0  0  0
    1.8892  -10.3985   17.7511 N   0  0  0  0  0  0  0  0  0  0  0  0
    9.6210   -0.6952   24.0976 C   0  0  0  0  0  0  0  0  0  0  0  0
    7.0792   -9.0217   17.1429 C   0  0  0  0  0  0  0  0  0  0  0  0
    3.1713  -10.1816   17.6634 C   0  0  0  0  0  0  0  0  0  0  0  0
    2.7878   -8.3822   16.2137 C   0  0  0  0  0  0  0  0  0  0  0  0
    9.4601   -2.6590   25.6528 C   0  0  0  0  0  0  0  0  0  0  0  0
   10.1182   -1.5672   23.1165 C   0  0  0  0  0  0  0  0  0  0  0  0
    1.0552   -9.6360   17.0650 C   0  0  0  0  0  0  0  0  0  0  0  0
    3.6519   -9.1783   16.9039 C   0  0  0  0  0  0  0  0  0  0  0  0
    7.8675   -7.0096   15.9415 C   0  0  0  0  0  0  0  0  0  0  0  0
    5.9733   -9.6553   17.3832 N   0  0  0  0  0  0  0  0  0  0  0  0
   10.2411   -2.9363   23.4301 C   0  0  0  0  0  0  0  0  0  0  0  0
   10.7288   -3.8197   19.9525 C   0  0  0  0  0  0  0  0  0  0  0  0
   10.1189   -5.0054   19.6987 C   0  0  0  0  0  0  0  0  0  0  0  0
  1  3  4  0
  1  7  4  0
  2 21  4  0
  2 27  4  0
  3  9  4  0
  3 10  4  0
  4  8  4  0
  4 18  4  0
  4 25  1  0
  5  9  4  0
  5 12  4  0
  6 13  1  0
  6 27  1  0
  7 28  4  0
  8 11  4  0
  9 29  4  0
 10 12  4  0
 11 24  1  0
 11 26  4  0
 12 25  1  0
 13 28  1  0
 14 20  4  0
 14 23  4  0
 15 17  4  0
 15 21  4  0
 16 19  4  0
 16 23  4  0
 17 22  4  0
 18 26  4  0
 19 24  4  0
 20 24  4  0
 22 27  4  0
 28 29  4  0
M  END
$$$$

 Created by Python create_sdf_string function

 29 33  0  0  0  0  0  0  0  0999 V2000
   10.7215   -3.3326   17.6437 C   0  0  0  0  0  0  0  0  0  0  0  0
    9.9489   -3.4675   24.6487 N   0  0  0  0  0  0  0  0  0  0  0  0
   10.0172   -4.4740   17.4101 C   0  0  0  0  0  0  0  0  0  0  0  0
    6.9051   -7.9575   16.4222 C   0  0  0  0  0  0  0  0  0  0  0  0
    8.9969   -6.3552   17.9668 N   0  0  0  0  0  0  0  0  0  0  0  0
   10.6702   -3.9051   22.4070 C   0  0  0  0  0  0  0  0  0  0  0  0
   11.0625   -3.0028   18.8894 C   0  0  0  0  0  0  0  0  0  0  0  0
    5.6180   -7.9194   16.1754 O   0  0  0  0  0  0  0  0  0  0  0  0
    9.7259   -5.3080   18.4485 C   0  0  0  0  0  0  0  0  0  0  0  0
    9.4578   -5.0200   16.3036 N   0  0  0  0  0  0  0  0  0  0  0  0
    5.0287   -8.9365   16.8223 C   0  0  0  0  0  0  0  0  0  0  0  0
    8.7742   -6.1498   16.6764 C   0  0  0  0  0  0  0  0  0  0  0  0
   10.9418   -3.4032   21.2053 O   0  0  0  0  0  0  0  0  0  0  0  0
    1.4797   -8.6258   16.2950 C   0  0  0  0  0  0  0  0  0  0  0  0
    9.2861   -1.2743   25.3585 C   0  0  0  0  0  0  0  0  0  0  0  0
    1.8892  -10.3985   17.7511 N   0  0  0  0  0  0  0  0  0  0  0  0
    9.6210   -0.6952   24.0976 C   0  0  0  0  0  0  0  0  0  0  0  0
    7.0792   -9.0217   17.1429 C   0  0  0  0  0  0  0  0  0  0  0  0
    3.1713  -10.1816   17.6634 C   0  0  0  0  0  0  0  0  0  0  0  0
    2.7878   -8.3822   16.2137 C   0  0  0  0  0  0  0  0  0  0  0  0
    9.4601   -2.6590   25.6528 C   0  0  0  0  0  0  0  0  0  0  0  0
   10.1182   -1.5672   23.1165 C   0  0  0  0  0  0  0  0  0  0  0  0
    1.0552   -9.6360   17.0650 C   0  0  0  0  0  0  0  0  0  0  0  0
    3.6519   -9.1783   16.9039 C   0  0  0  0  0  0  0  0  0  0  0  0
    7.8675   -7.0096   15.9415 C   0  0  0  0  0  0  0  0  0  0  0  0
    5.9733   -9.6553   17.3832 N   0  0  0  0  0  0  0  0  0  0  0  0
   10.2411   -2.9363   23.4301 C   0  0  0  0  0  0  0  0  0  0  0  0
   10.7288   -3.8197   19.9525 C   0  0  0  0  0  0  0  0  0  0  0  0
   10.1189   -5.0054   19.6987 C   0  0  0  0  0  0  0  0  0  0  0  0
  1  3  4  0
  1  7  4  0
  2 21  4  0
  2 27  4  0
  3  9  4  0
  3 10  4  0
  4  8  4  0
  4 18  4  0
  4 25  1  0
  5  9  4  0
  5 12  4  0
  6 13  1  0
  6 27  1  0
  7 28  4  0
  8 11  4  0
  9 29  4  0
 10 12  4  0
 11 24  1  0
 11 26  4  0
 12 25  1  0
 13 28  1  0
 14 20  4  0
 14 23  4  0
 15 17  4  0
 15 21  4  0
 16 19  4  0
 16 23  4  0
 17 22  4  0
 18 26  4  0
 19 24  4  0
 20 24  4  0
 22 27  4  0
 28 29  4  0
M  END
$$$$

 Created by Python create_sdf_string function

 29 33  0  0  0  0  0  0  0  0999 V2000
   10.7215   -3.3326   17.6437 C   0  0  0  0  0  0  0  0  0  0  0  0
    9.9489   -3.4675   24.6487 N   0  0  0  0  0  0  0  0  0  0  0  0
   10.0172   -4.4740   17.4101 C   0  0  0  0  0  0  0  0  0  0  0  0
    6.9051   -7.9575   16.4222 C   0  0  0  0  0  0  0  0  0  0  0  0
    8.9969   -6.3552   17.9668 N   0  0  0  0  0  0  0  0  0  0  0  0
   10.6702   -3.9051   22.4070 C   0  0  0  0  0  0  0  0  0  0  0  0
   11.0625   -3.0028   18.8894 C   0  0  0  0  0  0  0  0  0  0  0  0
    5.6180   -7.9194   16.1754 O   0  0  0  0  0  0  0  0  0  0  0  0
    9.7259   -5.3080   18.4485 C   0  0  0  0  0  0  0  0  0  0  0  0
    9.4578   -5.0200   16.3036 N   0  0  0  0  0  0  0  0  0  0  0  0
    5.0287   -8.9365   16.8223 C   0  0  0  0  0  0  0  0  0  0  0  0
    8.7742   -6.1498   16.6764 C   0  0  0  0  0  0  0  0  0  0  0  0
   10.9418   -3.4032   21.2053 O   0  0  0  0  0  0  0  0  0  0  0  0
    1.4797   -8.6258   16.2950 C   0  0  0  0  0  0  0  0  0  0  0  0
    9.2861   -1.2743   25.3585 C   0  0  0  0  0  0  0  0  0  0  0  0
    1.8892  -10.3985   17.7511 N   0  0  0  0  0  0  0  0  0  0  0  0
    9.6210   -0.6952   24.0976 C   0  0  0  0  0  0  0  0  0  0  0  0
    7.0792   -9.0217   17.1429 C   0  0  0  0  0  0  0  0  0  0  0  0
    3.1713  -10.1816   17.6634 C   0  0  0  0  0  0  0  0  0  0  0  0
    2.7878   -8.3822   16.2137 C   0  0  0  0  0  0  0  0  0  0  0  0
    9.4601   -2.6590   25.6528 C   0  0  0  0  0  0  0  0  0  0  0  0
   10.1182   -1.5672   23.1165 C   0  0  0  0  0  0  0  0  0  0  0  0
    1.0552   -9.6360   17.0650 C   0  0  0  0  0  0  0  0  0  0  0  0
    3.6519   -9.1783   16.9039 C   0  0  0  0  0  0  0  0  0  0  0  0
    7.8675   -7.0096   15.9415 C   0  0  0  0  0  0  0  0  0  0  0  0
    5.9733   -9.6553   17.3832 N   0  0  0  0  0  0  0  0  0  0  0  0
   10.2411   -2.9363   23.4301 C   0  0  0  0  0  0  0  0  0  0  0  0
   10.7288   -3.8197   19.9525 C   0  0  0  0  0  0  0  0  0  0  0  0
   10.1189   -5.0054   19.6987 C   0  0  0  0  0  0  0  0  0  0  0  0
  1  3  4  0
  1  7  4  0
  2 21  4  0
  2 27  4  0
  3  9  4  0
  3 10  4  0
  4  8  4  0
  4 18  4  0
  4 25  1  0
  5  9  4  0
  5 12  4  0
  6 13  1  0
  6 27  1  0
  7 28  4  0
  8 11  4  0
  9 29  4  0
 10 12  4  0
 11 24  1  0
 11 26  4  0
 12 25  1  0
 13 28  1  0
 14 20  4  0
 14 23  4  0
 15 17  4  0
 15 21  4  0
 16 19  4  0
 16 23  4  0
 17 22  4  0
 18 26  4  0
 19 24  4  0
 20 24  4  0
 22 27  4  0
 28 29  4  0
M  END
$$$$

 Created by Python create_sdf_string function

 29 33  0  0  0  0  0  0  0  0999 V2000
   10.7215   -3.3326   17.6437 C   0  0  0  0  0  0  0  0  0  0  0  0
    9.9489   -3.4675   24.6487 N   0  0  0  0  0  0  0  0  0  0  0  0
   10.0172   -4.4740   17.4101 C   0  0  0  0  0  0  0  0  0  0  0  0
    6.9051   -7.9575   16.4222 C   0  0  0  0  0  0  0  0  0  0  0  0
    8.9969   -6.3552   17.9668 N   0  0  0  0  0  0  0  0  0  0  0  0
   10.6702   -3.9051   22.4070 C   0  0  0  0  0  0  0  0  0  0  0  0
   11.0625   -3.0028   18.8894 C   0  0  0  0  0  0  0  0  0  0  0  0
    5.6180   -7.9194   16.1754 O   0  0  0  0  0  0  0  0  0  0  0  0
    9.7259   -5.3080   18.4485 C   0  0  0  0  0  0  0  0  0  0  0  0
    9.4578   -5.0200   16.3036 N   0  0  0  0  0  0  0  0  0  0  0  0
    5.0287   -8.9365   16.8223 C   0  0  0  0  0  0  0  0  0  0  0  0
    8.7742   -6.1498   16.6764 C   0  0  0  0  0  0  0  0  0  0  0  0
   10.9418   -3.4032   21.2053 O   0  0  0  0  0  0  0  0  0  0  0  0
    1.4797   -8.6258   16.2950 C   0  0  0  0  0  0  0  0  0  0  0  0
    9.2861   -1.2743   25.3585 C   0  0  0  0  0  0  0  0  0  0  0  0
    1.8892  -10.3985   17.7511 N   0  0  0  0  0  0  0  0  0  0  0  0
    9.6210   -0.6952   24.0976 C   0  0  0  0  0  0  0  0  0  0  0  0
    7.0792   -9.0217   17.1429 C   0  0  0  0  0  0  0  0  0  0  0  0
    3.1713  -10.1816   17.6634 C   0  0  0  0  0  0  0  0  0  0  0  0
    2.7878   -8.3822   16.2137 C   0  0  0  0  0  0  0  0  0  0  0  0
    9.4601   -2.6590   25.6528 C   0  0  0  0  0  0  0  0  0  0  0  0
   10.1182   -1.5672   23.1165 C   0  0  0  0  0  0  0  0  0  0  0  0
    1.0552   -9.6360   17.0650 C   0  0  0  0  0  0  0  0  0  0  0  0
    3.6519   -9.1783   16.9039 C   0  0  0  0  0  0  0  0  0  0  0  0
    7.8675   -7.0096   15.9415 C   0  0  0  0  0  0  0  0  0  0  0  0
    5.9733   -9.6553   17.3832 N   0  0  0  0  0  0  0  0  0  0  0  0
   10.2411   -2.9363   23.4301 C   0  0  0  0  0  0  0  0  0  0  0  0
   10.7288   -3.8197   19.9525 C   0  0  0  0  0  0  0  0  0  0  0  0
   10.1189   -5.0054   19.6987 C   0  0  0  0  0  0  0  0  0  0  0  0
  1  3  4  0
  1  7  4  0
  2 21  4  0
  2 27  4  0
  3  9  4  0
  3 10  4  0
  4  8  4  0
  4 18  4  0
  4 25  1  0
  5  9  4  0
  5 12  4  0
  6 13  1  0
  6 27  1  0
  7 28  4  0
  8 11  4  0
  9 29  4  0
 10 12  4  0
 11 24  1  0
 11 26  4  0
 12 25  1  0
 13 28  1  0
 14 20  4  0
 14 23  4  0
 15 17  4  0
 15 21  4  0
 16 19  4  0
 16 23  4  0
 17 22  4  0
 18 26  4  0
 19 24  4  0
 20 24  4  0
 22 27  4  0
 28 29  4  0
M  END
$$$$

 Created by Python create_sdf_string function

 29 33  0  0  0  0  0  0  0  0999 V2000
   10.7215   -3.3326   17.6437 C   0  0  0  0  0  0  0  0  0  0  0  0
    9.9489   -3.4675   24.6487 N   0  0  0  0  0  0  0  0  0  0  0  0
   10.0172   -4.4740   17.4101 C   0  0  0  0  0  0  0  0  0  0  0  0
    6.9051   -7.9575   16.4222 C   0  0  0  0  0  0  0  0  0  0  0  0
    8.9969   -6.3552   17.9668 N   0  0  0  0  0  0  0  0  0  0  0  0
   10.6702   -3.9051   22.4070 C   0  0  0  0  0  0  0  0  0  0  0  0
   11.0625   -3.0028   18.8894 C   0  0  0  0  0  0  0  0  0  0  0  0
    5.6180   -7.9194   16.1754 O   0  0  0  0  0  0  0  0  0  0  0  0
    9.7259   -5.3080   18.4485 C   0  0  0  0  0  0  0  0  0  0  0  0
    9.4578   -5.0200   16.3036 N   0  0  0  0  0  0  0  0  0  0  0  0
    5.0287   -8.9365   16.8223 C   0  0  0  0  0  0  0  0  0  0  0  0
    8.7742   -6.1498   16.6764 C   0  0  0  0  0  0  0  0  0  0  0  0
   10.9418   -3.4032   21.2053 O   0  0  0  0  0  0  0  0  0  0  0  0
    1.4797   -8.6258   16.2950 C   0  0  0  0  0  0  0  0  0  0  0  0
    9.2861   -1.2743   25.3585 C   0  0  0  0  0  0  0  0  0  0  0  0
    1.8892  -10.3985   17.7511 N   0  0  0  0  0  0  0  0  0  0  0  0
    9.6210   -0.6952   24.0976 C   0  0  0  0  0  0  0  0  0  0  0  0
    7.0792   -9.0217   17.1429 C   0  0  0  0  0  0  0  0  0  0  0  0
    3.1713  -10.1816   17.6634 C   0  0  0  0  0  0  0  0  0  0  0  0
    2.7878   -8.3822   16.2137 C   0  0  0  0  0  0  0  0  0  0  0  0
    9.4601   -2.6590   25.6528 C   0  0  0  0  0  0  0  0  0  0  0  0
   10.1182   -1.5672   23.1165 C   0  0  0  0  0  0  0  0  0  0  0  0
    1.0552   -9.6360   17.0650 C   0  0  0  0  0  0  0  0  0  0  0  0
    3.6519   -9.1783   16.9039 C   0  0  0  0  0  0  0  0  0  0  0  0
    7.8675   -7.0096   15.9415 C   0  0  0  0  0  0  0  0  0  0  0  0
    5.9733   -9.6553   17.3832 N   0  0  0  0  0  0  0  0  0  0  0  0
   10.2411   -2.9363   23.4301 C   0  0  0  0  0  0  0  0  0  0  0  0
   10.7288   -3.8197   19.9525 C   0  0  0  0  0  0  0  0  0  0  0  0
   10.1189   -5.0054   19.6987 C   0  0  0  0  0  0  0  0  0  0  0  0
  1  3  4  0
  1  7  4  0
  2 21  4  0
  2 27  4  0
  3  9  4  0
  3 10  4  0
  4  8  4  0
  4 18  4  0
  4 25  1  0
  5  9  4  0
  5 12  4  0
  6 13  1  0
  6 27  1  0
  7 28  4  0
  8 11  4  0
  9 29  4  0
 10 12  4  0
 11 24  1  0
 11 26  4  0
 12 25  1  0
 13 28  1  0
 14 20  4  0
 14 23  4  0
 15 17  4  0
 15 21  4  0
 16 19  4  0
 16 23  4  0
 17 22  4  0
 18 26  4  0
 19 24  4  0
 20 24  4  0
 22 27  4  0
 28 29  4  0
M  END
$$$$

 Created by Python create_sdf_string function

 29 33  0  0  0  0  0  0  0  0999 V2000
   10.7215   -3.3326   17.6437 C   0  0  0  0  0  0  0  0  0  0  0  0
    9.9489   -3.4675   24.6487 N   0  0  0  0  0  0  0  0  0  0  0  0
   10.0172   -4.4740   17.4101 C   0  0  0  0  0  0  0  0  0  0  0  0
    6.9051   -7.9575   16.4222 C   0  0  0  0  0  0  0  0  0  0  0  0
    8.9969   -6.3552   17.9668 N   0  0  0  0  0  0  0  0  0  0  0  0
   10.6702   -3.9051   22.4070 C   0  0  0  0  0  0  0  0  0  0  0  0
   11.0625   -3.0028   18.8894 C   0  0  0  0  0  0  0  0  0  0  0  0
    5.6180   -7.9194   16.1754 O   0  0  0  0  0  0  0  0  0  0  0  0
    9.7259   -5.3080   18.4485 C   0  0  0  0  0  0  0  0  0  0  0  0
    9.4578   -5.0200   16.3036 N   0  0  0  0  0  0  0  0  0  0  0  0
    5.0287   -8.9365   16.8223 C   0  0  0  0  0  0  0  0  0  0  0  0
    8.7742   -6.1498   16.6764 C   0  0  0  0  0  0  0  0  0  0  0  0
   10.9418   -3.4032   21.2053 O   0  0  0  0  0  0  0  0  0  0  0  0
    1.4797   -8.6258   16.2950 C   0  0  0  0  0  0  0  0  0  0  0  0
    9.2861   -1.2743   25.3585 C   0  0  0  0  0  0  0  0  0  0  0  0
    1.8892  -10.3985   17.7511 N   0  0  0  0  0  0  0  0  0  0  0  0
    9.6210   -0.6952   24.0976 C   0  0  0  0  0  0  0  0  0  0  0  0
    7.0792   -9.0217   17.1429 C   0  0  0  0  0  0  0  0  0  0  0  0
    3.1713  -10.1816   17.6634 C   0  0  0  0  0  0  0  0  0  0  0  0
    2.7878   -8.3822   16.2137 C   0  0  0  0  0  0  0  0  0  0  0  0
    9.4601   -2.6590   25.6528 C   0  0  0  0  0  0  0  0  0  0  0  0
   10.1182   -1.5672   23.1165 C   0  0  0  0  0  0  0  0  0  0  0  0
    1.0552   -9.6360   17.0650 C   0  0  0  0  0  0  0  0  0  0  0  0
    3.6519   -9.1783   16.9039 C   0  0  0  0  0  0  0  0  0  0  0  0
    7.8675   -7.0096   15.9415 C   0  0  0  0  0  0  0  0  0  0  0  0
    5.9733   -9.6553   17.3832 N   0  0  0  0  0  0  0  0  0  0  0  0
   10.2411   -2.9363   23.4301 C   0  0  0  0  0  0  0  0  0  0  0  0
   10.7288   -3.8197   19.9525 C   0  0  0  0  0  0  0  0  0  0  0  0
   10.1189   -5.0054   19.6987 C   0  0  0  0  0  0  0  0  0  0  0  0
  1  3  4  0
  1  7  4  0
  2 21  4  0
  2 27  4  0
  3  9  4  0
  3 10  4  0
  4  8  4  0
  4 18  4  0
  4 25  1  0
  5  9  4  0
  5 12  4  0
  6 13  1  0
  6 27  1  0
  7 28  4  0
  8 11  4  0
  9 29  4  0
 10 12  4  0
 11 24  1  0
 11 26  4  0
 12 25  1  0
 13 28  1  0
 14 20  4  0
 14 23  4  0
 15 17  4  0
 15 21  4  0
 16 19  4  0
 16 23  4  0
 17 22  4  0
 18 26  4  0
 19 24  4  0
 20 24  4  0
 22 27  4  0
 28 29  4  0
M  END
$$$$

 Created by Python create_sdf_string function

 29 33  0  0  0  0  0  0  0  0999 V2000
   10.7215   -3.3326   17.6437 C   0  0  0  0  0  0  0  0  0  0  0  0
    9.9489   -3.4675   24.6487 N   0  0  0  0  0  0  0  0  0  0  0  0
   10.0172   -4.4740   17.4101 C   0  0  0  0  0  0  0  0  0  0  0  0
    6.9051   -7.9575   16.4222 C   0  0  0  0  0  0  0  0  0  0  0  0
    8.9969   -6.3552   17.9668 N   0  0  0  0  0  0  0  0  0  0  0  0
   10.6702   -3.9051   22.4070 C   0  0  0  0  0  0  0  0  0  0  0  0
   11.0625   -3.0028   18.8894 C   0  0  0  0  0  0  0  0  0  0  0  0
    5.6180   -7.9194   16.1754 O   0  0  0  0  0  0  0  0  0  0  0  0
    9.7259   -5.3080   18.4485 C   0  0  0  0  0  0  0  0  0  0  0  0
    9.4578   -5.0200   16.3036 N   0  0  0  0  0  0  0  0  0  0  0  0
    5.0287   -8.9365   16.8223 C   0  0  0  0  0  0  0  0  0  0  0  0
    8.7742   -6.1498   16.6764 C   0  0  0  0  0  0  0  0  0  0  0  0
   10.9418   -3.4032   21.2053 O   0  0  0  0  0  0  0  0  0  0  0  0
    1.4797   -8.6258   16.2950 C   0  0  0  0  0  0  0  0  0  0  0  0
    9.2861   -1.2743   25.3585 C   0  0  0  0  0  0  0  0  0  0  0  0
    1.8892  -10.3985   17.7511 N   0  0  0  0  0  0  0  0  0  0  0  0
    9.6210   -0.6952   24.0976 C   0  0  0  0  0  0  0  0  0  0  0  0
    7.0792   -9.0217   17.1429 C   0  0  0  0  0  0  0  0  0  0  0  0
    3.1713  -10.1816   17.6634 C   0  0  0  0  0  0  0  0  0  0  0  0
    2.7878   -8.3822   16.2137 C   0  0  0  0  0  0  0  0  0  0  0  0
    9.4601   -2.6590   25.6528 C   0  0  0  0  0  0  0  0  0  0  0  0
   10.1182   -1.5672   23.1165 C   0  0  0  0  0  0  0  0  0  0  0  0
    1.0552   -9.6360   17.0650 C   0  0  0  0  0  0  0  0  0  0  0  0
    3.6519   -9.1783   16.9039 C   0  0  0  0  0  0  0  0  0  0  0  0
    7.8675   -7.0096   15.9415 C   0  0  0  0  0  0  0  0  0  0  0  0
    5.9733   -9.6553   17.3832 N   0  0  0  0  0  0  0  0  0  0  0  0
   10.2411   -2.9363   23.4301 C   0  0  0  0  0  0  0  0  0  0  0  0
   10.7288   -3.8197   19.9525 C   0  0  0  0  0  0  0  0  0  0  0  0
   10.1189   -5.0054   19.6987 C   0  0  0  0  0  0  0  0  0  0  0  0
  1  3  4  0
  1  7  4  0
  2 21  4  0
  2 27  4  0
  3  9  4  0
  3 10  4  0
  4  8  4  0
  4 18  4  0
  4 25  1  0
  5  9  4  0
  5 12  4  0
  6 13  1  0
  6 27  1  0
  7 28  4  0
  8 11  4  0
  9 29  4  0
 10 12  4  0
 11 24  1  0
 11 26  4  0
 12 25  1  0
 13 28  1  0
 14 20  4  0
 14 23  4  0
 15 17  4  0
 15 21  4  0
 16 19  4  0
 16 23  4  0
 17 22  4  0
 18 26  4  0
 19 24  4  0
 20 24  4  0
 22 27  4  0
 28 29  4  0
M  END
$$$$

 Created by Python create_sdf_string function

 29 33  0  0  0  0  0  0  0  0999 V2000
   10.7215   -3.3326   17.6437 C   0  0  0  0  0  0  0  0  0  0  0  0
    9.9489   -3.4675   24.6487 N   0  0  0  0  0  0  0  0  0  0  0  0
   10.0172   -4.4740   17.4101 C   0  0  0  0  0  0  0  0  0  0  0  0
    6.9051   -7.9575   16.4222 C   0  0  0  0  0  0  0  0  0  0  0  0
    8.9969   -6.3552   17.9668 N   0  0  0  0  0  0  0  0  0  0  0  0
   10.6702   -3.9051   22.4070 C   0  0  0  0  0  0  0  0  0  0  0  0
   11.0625   -3.0028   18.8894 C   0  0  0  0  0  0  0  0  0  0  0  0
    5.6180   -7.9194   16.1754 O   0  0  0  0  0  0  0  0  0  0  0  0
    9.7259   -5.3080   18.4485 C   0  0  0  0  0  0  0  0  0  0  0  0
    9.4578   -5.0200   16.3036 N   0  0  0  0  0  0  0  0  0  0  0  0
    5.0287   -8.9365   16.8223 C   0  0  0  0  0  0  0  0  0  0  0  0
    8.7742   -6.1498   16.6764 C   0  0  0  0  0  0  0  0  0  0  0  0
   10.9418   -3.4032   21.2053 O   0  0  0  0  0  0  0  0  0  0  0  0
    1.4797   -8.6258   16.2950 C   0  0  0  0  0  0  0  0  0  0  0  0
    9.2861   -1.2743   25.3585 C   0  0  0  0  0  0  0  0  0  0  0  0
    1.8892  -10.3985   17.7511 N   0  0  0  0  0  0  0  0  0  0  0  0
    9.6210   -0.6952   24.0976 C   0  0  0  0  0  0  0  0  0  0  0  0
    7.0792   -9.0217   17.1429 C   0  0  0  0  0  0  0  0  0  0  0  0
    3.1713  -10.1816   17.6634 C   0  0  0  0  0  0  0  0  0  0  0  0
    2.7878   -8.3822   16.2137 C   0  0  0  0  0  0  0  0  0  0  0  0
    9.4601   -2.6590   25.6528 C   0  0  0  0  0  0  0  0  0  0  0  0
   10.1182   -1.5672   23.1165 C   0  0  0  0  0  0  0  0  0  0  0  0
    1.0552   -9.6360   17.0650 C   0  0  0  0  0  0  0  0  0  0  0  0
    3.6519   -9.1783   16.9039 C   0  0  0  0  0  0  0  0  0  0  0  0
    7.8675   -7.0096   15.9415 C   0  0  0  0  0  0  0  0  0  0  0  0
    5.9733   -9.6553   17.3832 N   0  0  0  0  0  0  0  0  0  0  0  0
   10.2411   -2.9363   23.4301 C   0  0  0  0  0  0  0  0  0  0  0  0
   10.7288   -3.8197   19.9525 C   0  0  0  0  0  0  0  0  0  0  0  0
   10.1189   -5.0054   19.6987 C   0  0  0  0  0  0  0  0  0  0  0  0
  1  3  4  0
  1  7  4  0
  2 21  4  0
  2 27  4  0
  3  9  4  0
  3 10  4  0
  4  8  4  0
  4 18  4  0
  4 25  1  0
  5  9  4  0
  5 12  4  0
  6 13  1  0
  6 27  1  0
  7 28  4  0
  8 11  4  0
  9 29  4  0
 10 12  4  0
 11 24  1  0
 11 26  4  0
 12 25  1  0
 13 28  1  0
 14 20  4  0
 14 23  4  0
 15 17  4  0
 15 21  4  0
 16 19  4  0
 16 23  4  0
 17 22  4  0
 18 26  4  0
 19 24  4  0
 20 24  4  0
 22 27  4  0
 28 29  4  0
M  END
$$$$

 Created by Python create_sdf_string function

 29 33  0  0  0  0  0  0  0  0999 V2000
   10.7215   -3.3326   17.6437 C   0  0  0  0  0  0  0  0  0  0  0  0
    9.9489   -3.4675   24.6487 N   0  0  0  0  0  0  0  0  0  0  0  0
   10.0172   -4.4740   17.4101 C   0  0  0  0  0  0  0  0  0  0  0  0
    6.9051   -7.9575   16.4222 C   0  0  0  0  0  0  0  0  0  0  0  0
    8.9969   -6.3552   17.9668 N   0  0  0  0  0  0  0  0  0  0  0  0
   10.6702   -3.9051   22.4070 C   0  0  0  0  0  0  0  0  0  0  0  0
   11.0625   -3.0028   18.8894 C   0  0  0  0  0  0  0  0  0  0  0  0
    5.6180   -7.9194   16.1754 O   0  0  0  0  0  0  0  0  0  0  0  0
    9.7259   -5.3080   18.4485 C   0  0  0  0  0  0  0  0  0  0  0  0
    9.4578   -5.0200   16.3036 N   0  0  0  0  0  0  0  0  0  0  0  0
    5.0287   -8.9365   16.8223 C   0  0  0  0  0  0  0  0  0  0  0  0
    8.7742   -6.1498   16.6764 C   0  0  0  0  0  0  0  0  0  0  0  0
   10.9418   -3.4032   21.2053 O   0  0  0  0  0  0  0  0  0  0  0  0
    1.4797   -8.6258   16.2950 C   0  0  0  0  0  0  0  0  0  0  0  0
    9.2861   -1.2743   25.3585 C   0  0  0  0  0  0  0  0  0  0  0  0
    1.8892  -10.3985   17.7511 N   0  0  0  0  0  0  0  0  0  0  0  0
    9.6210   -0.6952   24.0976 C   0  0  0  0  0  0  0  0  0  0  0  0
    7.0792   -9.0217   17.1429 C   0  0  0  0  0  0  0  0  0  0  0  0
    3.1713  -10.1816   17.6634 C   0  0  0  0  0  0  0  0  0  0  0  0
    2.7878   -8.3822   16.2137 C   0  0  0  0  0  0  0  0  0  0  0  0
    9.4601   -2.6590   25.6528 C   0  0  0  0  0  0  0  0  0  0  0  0
   10.1182   -1.5672   23.1165 C   0  0  0  0  0  0  0  0  0  0  0  0
    1.0552   -9.6360   17.0650 C   0  0  0  0  0  0  0  0  0  0  0  0
    3.6519   -9.1783   16.9039 C   0  0  0  0  0  0  0  0  0  0  0  0
    7.8675   -7.0096   15.9415 C   0  0  0  0  0  0  0  0  0  0  0  0
    5.9733   -9.6553   17.3832 N   0  0  0  0  0  0  0  0  0  0  0  0
   10.2411   -2.9363   23.4301 C   0  0  0  0  0  0  0  0  0  0  0  0
   10.7288   -3.8197   19.9525 C   0  0  0  0  0  0  0  0  0  0  0  0
   10.1189   -5.0054   19.6987 C   0  0  0  0  0  0  0  0  0  0  0  0
  1  3  4  0
  1  7  4  0
  2 21  4  0
  2 27  4  0
  3  9  4  0
  3 10  4  0
  4  8  4  0
  4 18  4  0
  4 25  1  0
  5  9  4  0
  5 12  4  0
  6 13  1  0
  6 27  1  0
  7 28  4  0
  8 11  4  0
  9 29  4  0
 10 12  4  0
 11 24  1  0
 11 26  4  0
 12 25  1  0
 13 28  1  0
 14 20  4  0
 14 23  4  0
 15 17  4  0
 15 21  4  0
 16 19  4  0
 16 23  4  0
 17 22  4  0
 18 26  4  0
 19 24  4  0
 20 24  4  0
 22 27  4  0
 28 29  4  0
M  END
$$$$

 Created by Python create_sdf_string function

 29 33  0  0  0  0  0  0  0  0999 V2000
   10.7215   -3.3326   17.6437 C   0  0  0  0  0  0  0  0  0  0  0  0
    9.9489   -3.4675   24.6487 N   0  0  0  0  0  0  0  0  0  0  0  0
   10.0172   -4.4740   17.4101 C   0  0  0  0  0  0  0  0  0  0  0  0
    6.9051   -7.9575   16.4222 C   0  0  0  0  0  0  0  0  0  0  0  0
    8.9969   -6.3552   17.9668 N   0  0  0  0  0  0  0  0  0  0  0  0
   10.6702   -3.9051   22.4070 C   0  0  0  0  0  0  0  0  0  0  0  0
   11.0625   -3.0028   18.8894 C   0  0  0  0  0  0  0  0  0  0  0  0
    5.6180   -7.9194   16.1754 O   0  0  0  0  0  0  0  0  0  0  0  0
    9.7259   -5.3080   18.4485 C   0  0  0  0  0  0  0  0  0  0  0  0
    9.4578   -5.0200   16.3036 N   0  0  0  0  0  0  0  0  0  0  0  0
    5.0287   -8.9365   16.8223 C   0  0  0  0  0  0  0  0  0  0  0  0
    8.7742   -6.1498   16.6764 C   0  0  0  0  0  0  0  0  0  0  0  0
   10.9418   -3.4032   21.2053 O   0  0  0  0  0  0  0  0  0  0  0  0
    1.4797   -8.6258   16.2950 C   0  0  0  0  0  0  0  0  0  0  0  0
    9.2861   -1.2743   25.3585 C   0  0  0  0  0  0  0  0  0  0  0  0
    1.8892  -10.3985   17.7511 N   0  0  0  0  0  0  0  0  0  0  0  0
    9.6210   -0.6952   24.0976 C   0  0  0  0  0  0  0  0  0  0  0  0
    7.0792   -9.0217   17.1429 C   0  0  0  0  0  0  0  0  0  0  0  0
    3.1713  -10.1816   17.6634 C   0  0  0  0  0  0  0  0  0  0  0  0
    2.7878   -8.3822   16.2137 C   0  0  0  0  0  0  0  0  0  0  0  0
    9.4601   -2.6590   25.6528 C   0  0  0  0  0  0  0  0  0  0  0  0
   10.1182   -1.5672   23.1165 C   0  0  0  0  0  0  0  0  0  0  0  0
    1.0552   -9.6360   17.0650 C   0  0  0  0  0  0  0  0  0  0  0  0
    3.6519   -9.1783   16.9039 C   0  0  0  0  0  0  0  0  0  0  0  0
    7.8675   -7.0096   15.9415 C   0  0  0  0  0  0  0  0  0  0  0  0
    5.9733   -9.6553   17.3832 N   0  0  0  0  0  0  0  0  0  0  0  0
   10.2411   -2.9363   23.4301 C   0  0  0  0  0  0  0  0  0  0  0  0
   10.7288   -3.8197   19.9525 C   0  0  0  0  0  0  0  0  0  0  0  0
   10.1189   -5.0054   19.6987 C   0  0  0  0  0  0  0  0  0  0  0  0
  1  3  4  0
  1  7  4  0
  2 21  4  0
  2 27  4  0
  3  9  4  0
  3 10  4  0
  4  8  4  0
  4 18  4  0
  4 25  1  0
  5  9  4  0
  5 12  4  0
  6 13  1  0
  6 27  1  0
  7 28  4  0
  8 11  4  0
  9 29  4  0
 10 12  4  0
 11 24  1  0
 11 26  4  0
 12 25  1  0
 13 28  1  0
 14 20  4  0
 14 23  4  0
 15 17  4  0
 15 21  4  0
 16 19  4  0
 16 23  4  0
 17 22  4  0
 18 26  4  0
 19 24  4  0
 20 24  4  0
 22 27  4  0
 28 29  4  0
M  END
$$$$

 Created by Python create_sdf_string function

 29 33  0  0  0  0  0  0  0  0999 V2000
   10.7215   -3.3326   17.6437 C   0  0  0  0  0  0  0  0  0  0  0  0
    9.9489   -3.4675   24.6487 N   0  0  0  0  0  0  0  0  0  0  0  0
   10.0172   -4.4740   17.4101 C   0  0  0  0  0  0  0  0  0  0  0  0
    6.9051   -7.9575   16.4222 C   0  0  0  0  0  0  0  0  0  0  0  0
    8.9969   -6.3552   17.9668 N   0  0  0  0  0  0  0  0  0  0  0  0
   10.6702   -3.9051   22.4070 C   0  0  0  0  0  0  0  0  0  0  0  0
   11.0625   -3.0028   18.8894 C   0  0  0  0  0  0  0  0  0  0  0  0
    5.6180   -7.9194   16.1754 O   0  0  0  0  0  0  0  0  0  0  0  0
    9.7259   -5.3080   18.4485 C   0  0  0  0  0  0  0  0  0  0  0  0
    9.4578   -5.0200   16.3036 N   0  0  0  0  0  0  0  0  0  0  0  0
    5.0287   -8.9365   16.8223 C   0  0  0  0  0  0  0  0  0  0  0  0
    8.7742   -6.1498   16.6764 C   0  0  0  0  0  0  0  0  0  0  0  0
   10.9418   -3.4032   21.2053 O   0  0  0  0  0  0  0  0  0  0  0  0
    1.4797   -8.6258   16.2950 C   0  0  0  0  0  0  0  0  0  0  0  0
    9.2861   -1.2743   25.3585 C   0  0  0  0  0  0  0  0  0  0  0  0
    1.8892  -10.3985   17.7511 N   0  0  0  0  0  0  0  0  0  0  0  0
    9.6210   -0.6952   24.0976 C   0  0  0  0  0  0  0  0  0  0  0  0
    7.0792   -9.0217   17.1429 C   0  0  0  0  0  0  0  0  0  0  0  0
    3.1713  -10.1816   17.6634 C   0  0  0  0  0  0  0  0  0  0  0  0
    2.7878   -8.3822   16.2137 C   0  0  0  0  0  0  0  0  0  0  0  0
    9.4601   -2.6590   25.6528 C   0  0  0  0  0  0  0  0  0  0  0  0
   10.1182   -1.5672   23.1165 C   0  0  0  0  0  0  0  0  0  0  0  0
    1.0552   -9.6360   17.0650 C   0  0  0  0  0  0  0  0  0  0  0  0
    3.6519   -9.1783   16.9039 C   0  0  0  0  0  0  0  0  0  0  0  0
    7.8675   -7.0096   15.9415 C   0  0  0  0  0  0  0  0  0  0  0  0
    5.9733   -9.6553   17.3832 N   0  0  0  0  0  0  0  0  0  0  0  0
   10.2411   -2.9363   23.4301 C   0  0  0  0  0  0  0  0  0  0  0  0
   10.7288   -3.8197   19.9525 C   0  0  0  0  0  0  0  0  0  0  0  0
   10.1189   -5.0054   19.6987 C   0  0  0  0  0  0  0  0  0  0  0  0
  1  3  4  0
  1  7  4  0
  2 21  4  0
  2 27  4  0
  3  9  4  0
  3 10  4  0
  4  8  4  0
  4 18  4  0
  4 25  1  0
  5  9  4  0
  5 12  4  0
  6 13  1  0
  6 27  1  0
  7 28  4  0
  8 11  4  0
  9 29  4  0
 10 12  4  0
 11 24  1  0
 11 26  4  0
 12 25  1  0
 13 28  1  0
 14 20  4  0
 14 23  4  0
 15 17  4  0
 15 21  4  0
 16 19  4  0
 16 23  4  0
 17 22  4  0
 18 26  4  0
 19 24  4  0
 20 24  4  0
 22 27  4  0
 28 29  4  0
M  END
$$$$

 Created by Python create_sdf_string function

 29 33  0  0  0  0  0  0  0  0999 V2000
   10.7215   -3.3326   17.6437 C   0  0  0  0  0  0  0  0  0  0  0  0
    9.9489   -3.4675   24.6487 N   0  0  0  0  0  0  0  0  0  0  0  0
   10.0172   -4.4740   17.4101 C   0  0  0  0  0  0  0  0  0  0  0  0
    6.9051   -7.9575   16.4222 C   0  0  0  0  0  0  0  0  0  0  0  0
    8.9969   -6.3552   17.9668 N   0  0  0  0  0  0  0  0  0  0  0  0
   10.6702   -3.9051   22.4070 C   0  0  0  0  0  0  0  0  0  0  0  0
   11.0625   -3.0028   18.8894 C   0  0  0  0  0  0  0  0  0  0  0  0
    5.6180   -7.9194   16.1754 O   0  0  0  0  0  0  0  0  0  0  0  0
    9.7259   -5.3080   18.4485 C   0  0  0  0  0  0  0  0  0  0  0  0
    9.4578   -5.0200   16.3036 N   0  0  0  0  0  0  0  0  0  0  0  0
    5.0287   -8.9365   16.8223 C   0  0  0  0  0  0  0  0  0  0  0  0
    8.7742   -6.1498   16.6764 C   0  0  0  0  0  0  0  0  0  0  0  0
   10.9418   -3.4032   21.2053 O   0  0  0  0  0  0  0  0  0  0  0  0
    1.4797   -8.6258   16.2950 C   0  0  0  0  0  0  0  0  0  0  0  0
    9.2861   -1.2743   25.3585 C   0  0  0  0  0  0  0  0  0  0  0  0
    1.8892  -10.3985   17.7511 N   0  0  0  0  0  0  0  0  0  0  0  0
    9.6210   -0.6952   24.0976 C   0  0  0  0  0  0  0  0  0  0  0  0
    7.0792   -9.0217   17.1429 C   0  0  0  0  0  0  0  0  0  0  0  0
    3.1713  -10.1816   17.6634 C   0  0  0  0  0  0  0  0  0  0  0  0
    2.7878   -8.3822   16.2137 C   0  0  0  0  0  0  0  0  0  0  0  0
    9.4601   -2.6590   25.6528 C   0  0  0  0  0  0  0  0  0  0  0  0
   10.1182   -1.5672   23.1165 C   0  0  0  0  0  0  0  0  0  0  0  0
    1.0552   -9.6360   17.0650 C   0  0  0  0  0  0  0  0  0  0  0  0
    3.6519   -9.1783   16.9039 C   0  0  0  0  0  0  0  0  0  0  0  0
    7.8675   -7.0096   15.9415 C   0  0  0  0  0  0  0  0  0  0  0  0
    5.9733   -9.6553   17.3832 N   0  0  0  0  0  0  0  0  0  0  0  0
   10.2411   -2.9363   23.4301 C   0  0  0  0  0  0  0  0  0  0  0  0
   10.7288   -3.8197   19.9525 C   0  0  0  0  0  0  0  0  0  0  0  0
   10.1189   -5.0054   19.6987 C   0  0  0  0  0  0  0  0  0  0  0  0
  1  3  4  0
  1  7  4  0
  2 21  4  0
  2 27  4  0
  3  9  4  0
  3 10  4  0
  4  8  4  0
  4 18  4  0
  4 25  1  0
  5  9  4  0
  5 12  4  0
  6 13  1  0
  6 27  1  0
  7 28  4  0
  8 11  4  0
  9 29  4  0
 10 12  4  0
 11 24  1  0
 11 26  4  0
 12 25  1  0
 13 28  1  0
 14 20  4  0
 14 23  4  0
 15 17  4  0
 15 21  4  0
 16 19  4  0
 16 23  4  0
 17 22  4  0
 18 26  4  0
 19 24  4  0
 20 24  4  0
 22 27  4  0
 28 29  4  0
M  END
$$$$

 Created by Python create_sdf_string function

 29 33  0  0  0  0  0  0  0  0999 V2000
   10.7215   -3.3326   17.6437 C   0  0  0  0  0  0  0  0  0  0  0  0
    9.9489   -3.4675   24.6487 N   0  0  0  0  0  0  0  0  0  0  0  0
   10.0172   -4.4740   17.4101 C   0  0  0  0  0  0  0  0  0  0  0  0
    6.9051   -7.9575   16.4222 C   0  0  0  0  0  0  0  0  0  0  0  0
    8.9969   -6.3552   17.9668 N   0  0  0  0  0  0  0  0  0  0  0  0
   10.6702   -3.9051   22.4070 C   0  0  0  0  0  0  0  0  0  0  0  0
   11.0625   -3.0028   18.8894 C   0  0  0  0  0  0  0  0  0  0  0  0
    5.6180   -7.9194   16.1754 O   0  0  0  0  0  0  0  0  0  0  0  0
    9.7259   -5.3080   18.4485 C   0  0  0  0  0  0  0  0  0  0  0  0
    9.4578   -5.0200   16.3036 N   0  0  0  0  0  0  0  0  0  0  0  0
    5.0287   -8.9365   16.8223 C   0  0  0  0  0  0  0  0  0  0  0  0
    8.7742   -6.1498   16.6764 C   0  0  0  0  0  0  0  0  0  0  0  0
   10.9418   -3.4032   21.2053 O   0  0  0  0  0  0  0  0  0  0  0  0
    1.4797   -8.6258   16.2950 C   0  0  0  0  0  0  0  0  0  0  0  0
    9.2861   -1.2743   25.3585 C   0  0  0  0  0  0  0  0  0  0  0  0
    1.8892  -10.3985   17.7511 N   0  0  0  0  0  0  0  0  0  0  0  0
    9.6210   -0.6952   24.0976 C   0  0  0  0  0  0  0  0  0  0  0  0
    7.0792   -9.0217   17.1429 C   0  0  0  0  0  0  0  0  0  0  0  0
    3.1713  -10.1816   17.6634 C   0  0  0  0  0  0  0  0  0  0  0  0
    2.7878   -8.3822   16.2137 C   0  0  0  0  0  0  0  0  0  0  0  0
    9.4601   -2.6590   25.6528 C   0  0  0  0  0  0  0  0  0  0  0  0
   10.1182   -1.5672   23.1165 C   0  0  0  0  0  0  0  0  0  0  0  0
    1.0552   -9.6360   17.0650 C   0  0  0  0  0  0  0  0  0  0  0  0
    3.6519   -9.1783   16.9039 C   0  0  0  0  0  0  0  0  0  0  0  0
    7.8675   -7.0096   15.9415 C   0  0  0  0  0  0  0  0  0  0  0  0
    5.9733   -9.6553   17.3832 N   0  0  0  0  0  0  0  0  0  0  0  0
   10.2411   -2.9363   23.4301 C   0  0  0  0  0  0  0  0  0  0  0  0
   10.7288   -3.8197   19.9525 C   0  0  0  0  0  0  0  0  0  0  0  0
   10.1189   -5.0054   19.6987 C   0  0  0  0  0  0  0  0  0  0  0  0
  1  3  4  0
  1  7  4  0
  2 21  4  0
  2 27  4  0
  3  9  4  0
  3 10  4  0
  4  8  4  0
  4 18  4  0
  4 25  1  0
  5  9  4  0
  5 12  4  0
  6 13  1  0
  6 27  1  0
  7 28  4  0
  8 11  4  0
  9 29  4  0
 10 12  4  0
 11 24  1  0
 11 26  4  0
 12 25  1  0
 13 28  1  0
 14 20  4  0
 14 23  4  0
 15 17  4  0
 15 21  4  0
 16 19  4  0
 16 23  4  0
 17 22  4  0
 18 26  4  0
 19 24  4  0
 20 24  4  0
 22 27  4  0
 28 29  4  0
M  END
$$$$

 Created by Python create_sdf_string function

 29 33  0  0  0  0  0  0  0  0999 V2000
   10.7215   -3.3326   17.6437 C   0  0  0  0  0  0  0  0  0  0  0  0
    9.9489   -3.4675   24.6487 N   0  0  0  0  0  0  0  0  0  0  0  0
   10.0172   -4.4740   17.4101 C   0  0  0  0  0  0  0  0  0  0  0  0
    6.9051   -7.9575   16.4222 C   0  0  0  0  0  0  0  0  0  0  0  0
    8.9969   -6.3552   17.9668 N   0  0  0  0  0  0  0  0  0  0  0  0
   10.6702   -3.9051   22.4070 C   0  0  0  0  0  0  0  0  0  0  0  0
   11.0625   -3.0028   18.8894 C   0  0  0  0  0  0  0  0  0  0  0  0
    5.6180   -7.9194   16.1754 O   0  0  0  0  0  0  0  0  0  0  0  0
    9.7259   -5.3080   18.4485 C   0  0  0  0  0  0  0  0  0  0  0  0
    9.4578   -5.0200   16.3036 N   0  0  0  0  0  0  0  0  0  0  0  0
    5.0287   -8.9365   16.8223 C   0  0  0  0  0  0  0  0  0  0  0  0
    8.7742   -6.1498   16.6764 C   0  0  0  0  0  0  0  0  0  0  0  0
   10.9418   -3.4032   21.2053 O   0  0  0  0  0  0  0  0  0  0  0  0
    1.4797   -8.6258   16.2950 C   0  0  0  0  0  0  0  0  0  0  0  0
    9.2861   -1.2743   25.3585 C   0  0  0  0  0  0  0  0  0  0  0  0
    1.8892  -10.3985   17.7511 N   0  0  0  0  0  0  0  0  0  0  0  0
    9.6210   -0.6952   24.0976 C   0  0  0  0  0  0  0  0  0  0  0  0
    7.0792   -9.0217   17.1429 C   0  0  0  0  0  0  0  0  0  0  0  0
    3.1713  -10.1816   17.6634 C   0  0  0  0  0  0  0  0  0  0  0  0
    2.7878   -8.3822   16.2137 C   0  0  0  0  0  0  0  0  0  0  0  0
    9.4601   -2.6590   25.6528 C   0  0  0  0  0  0  0  0  0  0  0  0
   10.1182   -1.5672   23.1165 C   0  0  0  0  0  0  0  0  0  0  0  0
    1.0552   -9.6360   17.0650 C   0  0  0  0  0  0  0  0  0  0  0  0
    3.6519   -9.1783   16.9039 C   0  0  0  0  0  0  0  0  0  0  0  0
    7.8675   -7.0096   15.9415 C   0  0  0  0  0  0  0  0  0  0  0  0
    5.9733   -9.6553   17.3832 N   0  0  0  0  0  0  0  0  0  0  0  0
   10.2411   -2.9363   23.4301 C   0  0  0  0  0  0  0  0  0  0  0  0
   10.7288   -3.8197   19.9525 C   0  0  0  0  0  0  0  0  0  0  0  0
   10.1189   -5.0054   19.6987 C   0  0  0  0  0  0  0  0  0  0  0  0
  1  3  4  0
  1  7  4  0
  2 21  4  0
  2 27  4  0
  3  9  4  0
  3 10  4  0
  4  8  4  0
  4 18  4  0
  4 25  1  0
  5  9  4  0
  5 12  4  0
  6 13  1  0
  6 27  1  0
  7 28  4  0
  8 11  4  0
  9 29  4  0
 10 12  4  0
 11 24  1  0
 11 26  4  0
 12 25  1  0
 13 28  1  0
 14 20  4  0
 14 23  4  0
 15 17  4  0
 15 21  4  0
 16 19  4  0
 16 23  4  0
 17 22  4  0
 18 26  4  0
 19 24  4  0
 20 24  4  0
 22 27  4  0
 28 29  4  0
M  END
$$$$

 Created by Python create_sdf_string function

 29 33  0  0  0  0  0  0  0  0999 V2000
   10.7215   -3.3326   17.6437 C   0  0  0  0  0  0  0  0  0  0  0  0
    9.9489   -3.4675   24.6487 N   0  0  0  0  0  0  0  0  0  0  0  0
   10.0172   -4.4740   17.4101 C   0  0  0  0  0  0  0  0  0  0  0  0
    6.9051   -7.9575   16.4222 C   0  0  0  0  0  0  0  0  0  0  0  0
    8.9969   -6.3552   17.9668 N   0  0  0  0  0  0  0  0  0  0  0  0
   10.6702   -3.9051   22.4070 C   0  0  0  0  0  0  0  0  0  0  0  0
   11.0625   -3.0028   18.8894 C   0  0  0  0  0  0  0  0  0  0  0  0
    5.6180   -7.9194   16.1754 O   0  0  0  0  0  0  0  0  0  0  0  0
    9.7259   -5.3080   18.4485 C   0  0  0  0  0  0  0  0  0  0  0  0
    9.4578   -5.0200   16.3036 N   0  0  0  0  0  0  0  0  0  0  0  0
    5.0287   -8.9365   16.8223 C   0  0  0  0  0  0  0  0  0  0  0  0
    8.7742   -6.1498   16.6764 C   0  0  0  0  0  0  0  0  0  0  0  0
   10.9418   -3.4032   21.2053 O   0  0  0  0  0  0  0  0  0  0  0  0
    1.4797   -8.6258   16.2950 C   0  0  0  0  0  0  0  0  0  0  0  0
    9.2861   -1.2743   25.3585 C   0  0  0  0  0  0  0  0  0  0  0  0
    1.8892  -10.3985   17.7511 N   0  0  0  0  0  0  0  0  0  0  0  0
    9.6210   -0.6952   24.0976 C   0  0  0  0  0  0  0  0  0  0  0  0
    7.0792   -9.0217   17.1429 C   0  0  0  0  0  0  0  0  0  0  0  0
    3.1713  -10.1816   17.6634 C   0  0  0  0  0  0  0  0  0  0  0  0
    2.7878   -8.3822   16.2137 C   0  0  0  0  0  0  0  0  0  0  0  0
    9.4601   -2.6590   25.6528 C   0  0  0  0  0  0  0  0  0  0  0  0
   10.1182   -1.5672   23.1165 C   0  0  0  0  0  0  0  0  0  0  0  0
    1.0552   -9.6360   17.0650 C   0  0  0  0  0  0  0  0  0  0  0  0
    3.6519   -9.1783   16.9039 C   0  0  0  0  0  0  0  0  0  0  0  0
    7.8675   -7.0096   15.9415 C   0  0  0  0  0  0  0  0  0  0  0  0
    5.9733   -9.6553   17.3832 N   0  0  0  0  0  0  0  0  0  0  0  0
   10.2411   -2.9363   23.4301 C   0  0  0  0  0  0  0  0  0  0  0  0
   10.7288   -3.8197   19.9525 C   0  0  0  0  0  0  0  0  0  0  0  0
   10.1189   -5.0054   19.6987 C   0  0  0  0  0  0  0  0  0  0  0  0
  1  3  4  0
  1  7  4  0
  2 21  4  0
  2 27  4  0
  3  9  4  0
  3 10  4  0
  4  8  4  0
  4 18  4  0
  4 25  1  0
  5  9  4  0
  5 12  4  0
  6 13  1  0
  6 27  1  0
  7 28  4  0
  8 11  4  0
  9 29  4  0
 10 12  4  0
 11 24  1  0
 11 26  4  0
 12 25  1  0
 13 28  1  0
 14 20  4  0
 14 23  4  0
 15 17  4  0
 15 21  4  0
 16 19  4  0
 16 23  4  0
 17 22  4  0
 18 26  4  0
 19 24  4  0
 20 24  4  0
 22 27  4  0
 28 29  4  0
M  END
$$$$

 Created by Python create_sdf_string function

 29 33  0  0  0  0  0  0  0  0999 V2000
   10.7215   -3.3326   17.6437 C   0  0  0  0  0  0  0  0  0  0  0  0
    9.9489   -3.4675   24.6487 N   0  0  0  0  0  0  0  0  0  0  0  0
   10.0172   -4.4740   17.4101 C   0  0  0  0  0  0  0  0  0  0  0  0
    6.9051   -7.9575   16.4222 C   0  0  0  0  0  0  0  0  0  0  0  0
    8.9969   -6.3552   17.9668 N   0  0  0  0  0  0  0  0  0  0  0  0
   10.6702   -3.9051   22.4070 C   0  0  0  0  0  0  0  0  0  0  0  0
   11.0625   -3.0028   18.8894 C   0  0  0  0  0  0  0  0  0  0  0  0
    5.6180   -7.9194   16.1754 O   0  0  0  0  0  0  0  0  0  0  0  0
    9.7259   -5.3080   18.4485 C   0  0  0  0  0  0  0  0  0  0  0  0
    9.4578   -5.0200   16.3036 N   0  0  0  0  0  0  0  0  0  0  0  0
    5.0287   -8.9365   16.8223 C   0  0  0  0  0  0  0  0  0  0  0  0
    8.7742   -6.1498   16.6764 C   0  0  0  0  0  0  0  0  0  0  0  0
   10.9418   -3.4032   21.2053 O   0  0  0  0  0  0  0  0  0  0  0  0
    1.4797   -8.6258   16.2950 C   0  0  0  0  0  0  0  0  0  0  0  0
    9.2861   -1.2743   25.3585 C   0  0  0  0  0  0  0  0  0  0  0  0
    1.8892  -10.3985   17.7511 N   0  0  0  0  0  0  0  0  0  0  0  0
    9.6210   -0.6952   24.0976 C   0  0  0  0  0  0  0  0  0  0  0  0
    7.0792   -9.0217   17.1429 C   0  0  0  0  0  0  0  0  0  0  0  0
    3.1713  -10.1816   17.6634 C   0  0  0  0  0  0  0  0  0  0  0  0
    2.7878   -8.3822   16.2137 C   0  0  0  0  0  0  0  0  0  0  0  0
    9.4601   -2.6590   25.6528 C   0  0  0  0  0  0  0  0  0  0  0  0
   10.1182   -1.5672   23.1165 C   0  0  0  0  0  0  0  0  0  0  0  0
    1.0552   -9.6360   17.0650 C   0  0  0  0  0  0  0  0  0  0  0  0
    3.6519   -9.1783   16.9039 C   0  0  0  0  0  0  0  0  0  0  0  0
    7.8675   -7.0096   15.9415 C   0  0  0  0  0  0  0  0  0  0  0  0
    5.9733   -9.6553   17.3832 N   0  0  0  0  0  0  0  0  0  0  0  0
   10.2411   -2.9363   23.4301 C   0  0  0  0  0  0  0  0  0  0  0  0
   10.7288   -3.8197   19.9525 C   0  0  0  0  0  0  0  0  0  0  0  0
   10.1189   -5.0054   19.6987 C   0  0  0  0  0  0  0  0  0  0  0  0
  1  3  4  0
  1  7  4  0
  2 21  4  0
  2 27  4  0
  3  9  4  0
  3 10  4  0
  4  8  4  0
  4 18  4  0
  4 25  1  0
  5  9  4  0
  5 12  4  0
  6 13  1  0
  6 27  1  0
  7 28  4  0
  8 11  4  0
  9 29  4  0
 10 12  4  0
 11 24  1  0
 11 26  4  0
 12 25  1  0
 13 28  1  0
 14 20  4  0
 14 23  4  0
 15 17  4  0
 15 21  4  0
 16 19  4  0
 16 23  4  0
 17 22  4  0
 18 26  4  0
 19 24  4  0
 20 24  4  0
 22 27  4  0
 28 29  4  0
M  END
$$$$

 Created by Python create_sdf_string function

 29 33  0  0  0  0  0  0  0  0999 V2000
   10.7215   -3.3326   17.6437 C   0  0  0  0  0  0  0  0  0  0  0  0
    9.9489   -3.4675   24.6487 N   0  0  0  0  0  0  0  0  0  0  0  0
   10.0172   -4.4740   17.4101 C   0  0  0  0  0  0  0  0  0  0  0  0
    6.9051   -7.9575   16.4222 C   0  0  0  0  0  0  0  0  0  0  0  0
    8.9969   -6.3552   17.9668 N   0  0  0  0  0  0  0  0  0  0  0  0
   10.6702   -3.9051   22.4070 C   0  0  0  0  0  0  0  0  0  0  0  0
   11.0625   -3.0028   18.8894 C   0  0  0  0  0  0  0  0  0  0  0  0
    5.6180   -7.9194   16.1754 O   0  0  0  0  0  0  0  0  0  0  0  0
    9.7259   -5.3080   18.4485 C   0  0  0  0  0  0  0  0  0  0  0  0
    9.4578   -5.0200   16.3036 N   0  0  0  0  0  0  0  0  0  0  0  0
    5.0287   -8.9365   16.8223 C   0  0  0  0  0  0  0  0  0  0  0  0
    8.7742   -6.1498   16.6764 C   0  0  0  0  0  0  0  0  0  0  0  0
   10.9418   -3.4032   21.2053 O   0  0  0  0  0  0  0  0  0  0  0  0
    1.4797   -8.6258   16.2950 C   0  0  0  0  0  0  0  0  0  0  0  0
    9.2861   -1.2743   25.3585 C   0  0  0  0  0  0  0  0  0  0  0  0
    1.8892  -10.3985   17.7511 N   0  0  0  0  0  0  0  0  0  0  0  0
    9.6210   -0.6952   24.0976 C   0  0  0  0  0  0  0  0  0  0  0  0
    7.0792   -9.0217   17.1429 C   0  0  0  0  0  0  0  0  0  0  0  0
    3.1713  -10.1816   17.6634 C   0  0  0  0  0  0  0  0  0  0  0  0
    2.7878   -8.3822   16.2137 C   0  0  0  0  0  0  0  0  0  0  0  0
    9.4601   -2.6590   25.6528 C   0  0  0  0  0  0  0  0  0  0  0  0
   10.1182   -1.5672   23.1165 C   0  0  0  0  0  0  0  0  0  0  0  0
    1.0552   -9.6360   17.0650 C   0  0  0  0  0  0  0  0  0  0  0  0
    3.6519   -9.1783   16.9039 C   0  0  0  0  0  0  0  0  0  0  0  0
    7.8675   -7.0096   15.9415 C   0  0  0  0  0  0  0  0  0  0  0  0
    5.9733   -9.6553   17.3832 N   0  0  0  0  0  0  0  0  0  0  0  0
   10.2411   -2.9363   23.4301 C   0  0  0  0  0  0  0  0  0  0  0  0
   10.7288   -3.8197   19.9525 C   0  0  0  0  0  0  0  0  0  0  0  0
   10.1189   -5.0054   19.6987 C   0  0  0  0  0  0  0  0  0  0  0  0
  1  3  4  0
  1  7  4  0
  2 21  4  0
  2 27  4  0
  3  9  4  0
  3 10  4  0
  4  8  4  0
  4 18  4  0
  4 25  1  0
  5  9  4  0
  5 12  4  0
  6 13  1  0
  6 27  1  0
  7 28  4  0
  8 11  4  0
  9 29  4  0
 10 12  4  0
 11 24  1  0
 11 26  4  0
 12 25  1  0
 13 28  1  0
 14 20  4  0
 14 23  4  0
 15 17  4  0
 15 21  4  0
 16 19  4  0
 16 23  4  0
 17 22  4  0
 18 26  4  0
 19 24  4  0
 20 24  4  0
 22 27  4  0
 28 29  4  0
M  END
$$$$

 Created by Python create_sdf_string function

 29 33  0  0  0  0  0  0  0  0999 V2000
   10.7215   -3.3326   17.6437 C   0  0  0  0  0  0  0  0  0  0  0  0
    9.9489   -3.4675   24.6487 N   0  0  0  0  0  0  0  0  0  0  0  0
   10.0172   -4.4740   17.4101 C   0  0  0  0  0  0  0  0  0  0  0  0
    6.9051   -7.9575   16.4222 C   0  0  0  0  0  0  0  0  0  0  0  0
    8.9969   -6.3552   17.9668 N   0  0  0  0  0  0  0  0  0  0  0  0
   10.6702   -3.9051   22.4070 C   0  0  0  0  0  0  0  0  0  0  0  0
   11.0625   -3.0028   18.8894 C   0  0  0  0  0  0  0  0  0  0  0  0
    5.6180   -7.9194   16.1754 O   0  0  0  0  0  0  0  0  0  0  0  0
    9.7259   -5.3080   18.4485 C   0  0  0  0  0  0  0  0  0  0  0  0
    9.4578   -5.0200   16.3036 N   0  0  0  0  0  0  0  0  0  0  0  0
    5.0287   -8.9365   16.8223 C   0  0  0  0  0  0  0  0  0  0  0  0
    8.7742   -6.1498   16.6764 C   0  0  0  0  0  0  0  0  0  0  0  0
   10.9418   -3.4032   21.2053 O   0  0  0  0  0  0  0  0  0  0  0  0
    1.4797   -8.6258   16.2950 C   0  0  0  0  0  0  0  0  0  0  0  0
    9.2861   -1.2743   25.3585 C   0  0  0  0  0  0  0  0  0  0  0  0
    1.8892  -10.3985   17.7511 N   0  0  0  0  0  0  0  0  0  0  0  0
    9.6210   -0.6952   24.0976 C   0  0  0  0  0  0  0  0  0  0  0  0
    7.0792   -9.0217   17.1429 C   0  0  0  0  0  0  0  0  0  0  0  0
    3.1713  -10.1816   17.6634 C   0  0  0  0  0  0  0  0  0  0  0  0
    2.7878   -8.3822   16.2137 C   0  0  0  0  0  0  0  0  0  0  0  0
    9.4601   -2.6590   25.6528 C   0  0  0  0  0  0  0  0  0  0  0  0
   10.1182   -1.5672   23.1165 C   0  0  0  0  0  0  0  0  0  0  0  0
    1.0552   -9.6360   17.0650 C   0  0  0  0  0  0  0  0  0  0  0  0
    3.6519   -9.1783   16.9039 C   0  0  0  0  0  0  0  0  0  0  0  0
    7.8675   -7.0096   15.9415 C   0  0  0  0  0  0  0  0  0  0  0  0
    5.9733   -9.6553   17.3832 N   0  0  0  0  0  0  0  0  0  0  0  0
   10.2411   -2.9363   23.4301 C   0  0  0  0  0  0  0  0  0  0  0  0
   10.7288   -3.8197   19.9525 C   0  0  0  0  0  0  0  0  0  0  0  0
   10.1189   -5.0054   19.6987 C   0  0  0  0  0  0  0  0  0  0  0  0
  1  3  4  0
  1  7  4  0
  2 21  4  0
  2 27  4  0
  3  9  4  0
  3 10  4  0
  4  8  4  0
  4 18  4  0
  4 25  1  0
  5  9  4  0
  5 12  4  0
  6 13  1  0
  6 27  1  0
  7 28  4  0
  8 11  4  0
  9 29  4  0
 10 12  4  0
 11 24  1  0
 11 26  4  0
 12 25  1  0
 13 28  1  0
 14 20  4  0
 14 23  4  0
 15 17  4  0
 15 21  4  0
 16 19  4  0
 16 23  4  0
 17 22  4  0
 18 26  4  0
 19 24  4  0
 20 24  4  0
 22 27  4  0
 28 29  4  0
M  END
$$$$

 Created by Python create_sdf_string function

 29 33  0  0  0  0  0  0  0  0999 V2000
   10.7215   -3.3326   17.6437 C   0  0  0  0  0  0  0  0  0  0  0  0
    9.9489   -3.4675   24.6487 N   0  0  0  0  0  0  0  0  0  0  0  0
   10.0172   -4.4740   17.4101 C   0  0  0  0  0  0  0  0  0  0  0  0
    6.9051   -7.9575   16.4222 C   0  0  0  0  0  0  0  0  0  0  0  0
    8.9969   -6.3552   17.9668 N   0  0  0  0  0  0  0  0  0  0  0  0
   10.6702   -3.9051   22.4070 C   0  0  0  0  0  0  0  0  0  0  0  0
   11.0625   -3.0028   18.8894 C   0  0  0  0  0  0  0  0  0  0  0  0
    5.6180   -7.9194   16.1754 O   0  0  0  0  0  0  0  0  0  0  0  0
    9.7259   -5.3080   18.4485 C   0  0  0  0  0  0  0  0  0  0  0  0
    9.4578   -5.0200   16.3036 N   0  0  0  0  0  0  0  0  0  0  0  0
    5.0287   -8.9365   16.8223 C   0  0  0  0  0  0  0  0  0  0  0  0
    8.7742   -6.1498   16.6764 C   0  0  0  0  0  0  0  0  0  0  0  0
   10.9418   -3.4032   21.2053 O   0  0  0  0  0  0  0  0  0  0  0  0
    1.4797   -8.6258   16.2950 C   0  0  0  0  0  0  0  0  0  0  0  0
    9.2861   -1.2743   25.3585 C   0  0  0  0  0  0  0  0  0  0  0  0
    1.8892  -10.3985   17.7511 N   0  0  0  0  0  0  0  0  0  0  0  0
    9.6210   -0.6952   24.0976 C   0  0  0  0  0  0  0  0  0  0  0  0
    7.0792   -9.0217   17.1429 C   0  0  0  0  0  0  0  0  0  0  0  0
    3.1713  -10.1816   17.6634 C   0  0  0  0  0  0  0  0  0  0  0  0
    2.7878   -8.3822   16.2137 C   0  0  0  0  0  0  0  0  0  0  0  0
    9.4601   -2.6590   25.6528 C   0  0  0  0  0  0  0  0  0  0  0  0
   10.1182   -1.5672   23.1165 C   0  0  0  0  0  0  0  0  0  0  0  0
    1.0552   -9.6360   17.0650 C   0  0  0  0  0  0  0  0  0  0  0  0
    3.6519   -9.1783   16.9039 C   0  0  0  0  0  0  0  0  0  0  0  0
    7.8675   -7.0096   15.9415 C   0  0  0  0  0  0  0  0  0  0  0  0
    5.9733   -9.6553   17.3832 N   0  0  0  0  0  0  0  0  0  0  0  0
   10.2411   -2.9363   23.4301 C   0  0  0  0  0  0  0  0  0  0  0  0
   10.7288   -3.8197   19.9525 C   0  0  0  0  0  0  0  0  0  0  0  0
   10.1189   -5.0054   19.6987 C   0  0  0  0  0  0  0  0  0  0  0  0
  1  3  4  0
  1  7  4  0
  2 21  4  0
  2 27  4  0
  3  9  4  0
  3 10  4  0
  4  8  4  0
  4 18  4  0
  4 25  1  0
  5  9  4  0
  5 12  4  0
  6 13  1  0
  6 27  1  0
  7 28  4  0
  8 11  4  0
  9 29  4  0
 10 12  4  0
 11 24  1  0
 11 26  4  0
 12 25  1  0
 13 28  1  0
 14 20  4  0
 14 23  4  0
 15 17  4  0
 15 21  4  0
 16 19  4  0
 16 23  4  0
 17 22  4  0
 18 26  4  0
 19 24  4  0
 20 24  4  0
 22 27  4  0
 28 29  4  0
M  END
$$$$

 Created by Python create_sdf_string function

 29 33  0  0  0  0  0  0  0  0999 V2000
   10.7215   -3.3326   17.6437 C   0  0  0  0  0  0  0  0  0  0  0  0
    9.9489   -3.4675   24.6487 N   0  0  0  0  0  0  0  0  0  0  0  0
   10.0172   -4.4740   17.4101 C   0  0  0  0  0  0  0  0  0  0  0  0
    6.9051   -7.9575   16.4222 C   0  0  0  0  0  0  0  0  0  0  0  0
    8.9969   -6.3552   17.9668 N   0  0  0  0  0  0  0  0  0  0  0  0
   10.6702   -3.9051   22.4070 C   0  0  0  0  0  0  0  0  0  0  0  0
   11.0625   -3.0028   18.8894 C   0  0  0  0  0  0  0  0  0  0  0  0
    5.6180   -7.9194   16.1754 O   0  0  0  0  0  0  0  0  0  0  0  0
    9.7259   -5.3080   18.4485 C   0  0  0  0  0  0  0  0  0  0  0  0
    9.4578   -5.0200   16.3036 N   0  0  0  0  0  0  0  0  0  0  0  0
    5.0287   -8.9365   16.8223 C   0  0  0  0  0  0  0  0  0  0  0  0
    8.7742   -6.1498   16.6764 C   0  0  0  0  0  0  0  0  0  0  0  0
   10.9418   -3.4032   21.2053 O   0  0  0  0  0  0  0  0  0  0  0  0
    1.4797   -8.6258   16.2950 C   0  0  0  0  0  0  0  0  0  0  0  0
    9.2861   -1.2743   25.3585 C   0  0  0  0  0  0  0  0  0  0  0  0
    1.8892  -10.3985   17.7511 N   0  0  0  0  0  0  0  0  0  0  0  0
    9.6210   -0.6952   24.0976 C   0  0  0  0  0  0  0  0  0  0  0  0
    7.0792   -9.0217   17.1429 C   0  0  0  0  0  0  0  0  0  0  0  0
    3.1713  -10.1816   17.6634 C   0  0  0  0  0  0  0  0  0  0  0  0
    2.7878   -8.3822   16.2137 C   0  0  0  0  0  0  0  0  0  0  0  0
    9.4601   -2.6590   25.6528 C   0  0  0  0  0  0  0  0  0  0  0  0
   10.1182   -1.5672   23.1165 C   0  0  0  0  0  0  0  0  0  0  0  0
    1.0552   -9.6360   17.0650 C   0  0  0  0  0  0  0  0  0  0  0  0
    3.6519   -9.1783   16.9039 C   0  0  0  0  0  0  0  0  0  0  0  0
    7.8675   -7.0096   15.9415 C   0  0  0  0  0  0  0  0  0  0  0  0
    5.9733   -9.6553   17.3832 N   0  0  0  0  0  0  0  0  0  0  0  0
   10.2411   -2.9363   23.4301 C   0  0  0  0  0  0  0  0  0  0  0  0
   10.7288   -3.8197   19.9525 C   0  0  0  0  0  0  0  0  0  0  0  0
   10.1189   -5.0054   19.6987 C   0  0  0  0  0  0  0  0  0  0  0  0
  1  3  4  0
  1  7  4  0
  2 21  4  0
  2 27  4  0
  3  9  4  0
  3 10  4  0
  4  8  4  0
  4 18  4  0
  4 25  1  0
  5  9  4  0
  5 12  4  0
  6 13  1  0
  6 27  1  0
  7 28  4  0
  8 11  4  0
  9 29  4  0
 10 12  4  0
 11 24  1  0
 11 26  4  0
 12 25  1  0
 13 28  1  0
 14 20  4  0
 14 23  4  0
 15 17  4  0
 15 21  4  0
 16 19  4  0
 16 23  4  0
 17 22  4  0
 18 26  4  0
 19 24  4  0
 20 24  4  0
 22 27  4  0
 28 29  4  0
M  END
$$$$

 Created by Python create_sdf_string function

 29 33  0  0  0  0  0  0  0  0999 V2000
   10.7215   -3.3326   17.6437 C   0  0  0  0  0  0  0  0  0  0  0  0
    9.9489   -3.4675   24.6487 N   0  0  0  0  0  0  0  0  0  0  0  0
   10.0172   -4.4740   17.4101 C   0  0  0  0  0  0  0  0  0  0  0  0
    6.9051   -7.9575   16.4222 C   0  0  0  0  0  0  0  0  0  0  0  0
    8.9969   -6.3552   17.9668 N   0  0  0  0  0  0  0  0  0  0  0  0
   10.6702   -3.9051   22.4070 C   0  0  0  0  0  0  0  0  0  0  0  0
   11.0625   -3.0028   18.8894 C   0  0  0  0  0  0  0  0  0  0  0  0
    5.6180   -7.9194   16.1754 O   0  0  0  0  0  0  0  0  0  0  0  0
    9.7259   -5.3080   18.4485 C   0  0  0  0  0  0  0  0  0  0  0  0
    9.4578   -5.0200   16.3036 N   0  0  0  0  0  0  0  0  0  0  0  0
    5.0287   -8.9365   16.8223 C   0  0  0  0  0  0  0  0  0  0  0  0
    8.7742   -6.1498   16.6764 C   0  0  0  0  0  0  0  0  0  0  0  0
   10.9418   -3.4032   21.2053 O   0  0  0  0  0  0  0  0  0  0  0  0
    1.4797   -8.6258   16.2950 C   0  0  0  0  0  0  0  0  0  0  0  0
    9.2861   -1.2743   25.3585 C   0  0  0  0  0  0  0  0  0  0  0  0
    1.8892  -10.3985   17.7511 N   0  0  0  0  0  0  0  0  0  0  0  0
    9.6210   -0.6952   24.0976 C   0  0  0  0  0  0  0  0  0  0  0  0
    7.0792   -9.0217   17.1429 C   0  0  0  0  0  0  0  0  0  0  0  0
    3.1713  -10.1816   17.6634 C   0  0  0  0  0  0  0  0  0  0  0  0
    2.7878   -8.3822   16.2137 C   0  0  0  0  0  0  0  0  0  0  0  0
    9.4601   -2.6590   25.6528 C   0  0  0  0  0  0  0  0  0  0  0  0
   10.1182   -1.5672   23.1165 C   0  0  0  0  0  0  0  0  0  0  0  0
    1.0552   -9.6360   17.0650 C   0  0  0  0  0  0  0  0  0  0  0  0
    3.6519   -9.1783   16.9039 C   0  0  0  0  0  0  0  0  0  0  0  0
    7.8675   -7.0096   15.9415 C   0  0  0  0  0  0  0  0  0  0  0  0
    5.9733   -9.6553   17.3832 N   0  0  0  0  0  0  0  0  0  0  0  0
   10.2411   -2.9363   23.4301 C   0  0  0  0  0  0  0  0  0  0  0  0
   10.7288   -3.8197   19.9525 C   0  0  0  0  0  0  0  0  0  0  0  0
   10.1189   -5.0054   19.6987 C   0  0  0  0  0  0  0  0  0  0  0  0
  1  3  4  0
  1  7  4  0
  2 21  4  0
  2 27  4  0
  3  9  4  0
  3 10  4  0
  4  8  4  0
  4 18  4  0
  4 25  1  0
  5  9  4  0
  5 12  4  0
  6 13  1  0
  6 27  1  0
  7 28  4  0
  8 11  4  0
  9 29  4  0
 10 12  4  0
 11 24  1  0
 11 26  4  0
 12 25  1  0
 13 28  1  0
 14 20  4  0
 14 23  4  0
 15 17  4  0
 15 21  4  0
 16 19  4  0
 16 23  4  0
 17 22  4  0
 18 26  4  0
 19 24  4  0
 20 24  4  0
 22 27  4  0
 28 29  4  0
M  END
$$$$

 Created by Python create_sdf_string function

 29 33  0  0  0  0  0  0  0  0999 V2000
   10.7215   -3.3326   17.6437 C   0  0  0  0  0  0  0  0  0  0  0  0
    9.9489   -3.4675   24.6487 N   0  0  0  0  0  0  0  0  0  0  0  0
   10.0172   -4.4740   17.4101 C   0  0  0  0  0  0  0  0  0  0  0  0
    6.9051   -7.9575   16.4222 C   0  0  0  0  0  0  0  0  0  0  0  0
    8.9969   -6.3552   17.9668 N   0  0  0  0  0  0  0  0  0  0  0  0
   10.6702   -3.9051   22.4070 C   0  0  0  0  0  0  0  0  0  0  0  0
   11.0625   -3.0028   18.8894 C   0  0  0  0  0  0  0  0  0  0  0  0
    5.6180   -7.9194   16.1754 O   0  0  0  0  0  0  0  0  0  0  0  0
    9.7259   -5.3080   18.4485 C   0  0  0  0  0  0  0  0  0  0  0  0
    9.4578   -5.0200   16.3036 N   0  0  0  0  0  0  0  0  0  0  0  0
    5.0287   -8.9365   16.8223 C   0  0  0  0  0  0  0  0  0  0  0  0
    8.7742   -6.1498   16.6764 C   0  0  0  0  0  0  0  0  0  0  0  0
   10.9418   -3.4032   21.2053 O   0  0  0  0  0  0  0  0  0  0  0  0
    1.4797   -8.6258   16.2950 C   0  0  0  0  0  0  0  0  0  0  0  0
    9.2861   -1.2743   25.3585 C   0  0  0  0  0  0  0  0  0  0  0  0
    1.8892  -10.3985   17.7511 N   0  0  0  0  0  0  0  0  0  0  0  0
    9.6210   -0.6952   24.0976 C   0  0  0  0  0  0  0  0  0  0  0  0
    7.0792   -9.0217   17.1429 C   0  0  0  0  0  0  0  0  0  0  0  0
    3.1713  -10.1816   17.6634 C   0  0  0  0  0  0  0  0  0  0  0  0
    2.7878   -8.3822   16.2137 C   0  0  0  0  0  0  0  0  0  0  0  0
    9.4601   -2.6590   25.6528 C   0  0  0  0  0  0  0  0  0  0  0  0
   10.1182   -1.5672   23.1165 C   0  0  0  0  0  0  0  0  0  0  0  0
    1.0552   -9.6360   17.0650 C   0  0  0  0  0  0  0  0  0  0  0  0
    3.6519   -9.1783   16.9039 C   0  0  0  0  0  0  0  0  0  0  0  0
    7.8675   -7.0096   15.9415 C   0  0  0  0  0  0  0  0  0  0  0  0
    5.9733   -9.6553   17.3832 N   0  0  0  0  0  0  0  0  0  0  0  0
   10.2411   -2.9363   23.4301 C   0  0  0  0  0  0  0  0  0  0  0  0
   10.7288   -3.8197   19.9525 C   0  0  0  0  0  0  0  0  0  0  0  0
   10.1189   -5.0054   19.6987 C   0  0  0  0  0  0  0  0  0  0  0  0
  1  3  4  0
  1  7  4  0
  2 21  4  0
  2 27  4  0
  3  9  4  0
  3 10  4  0
  4  8  4  0
  4 18  4  0
  4 25  1  0
  5  9  4  0
  5 12  4  0
  6 13  1  0
  6 27  1  0
  7 28  4  0
  8 11  4  0
  9 29  4  0
 10 12  4  0
 11 24  1  0
 11 26  4  0
 12 25  1  0
 13 28  1  0
 14 20  4  0
 14 23  4  0
 15 17  4  0
 15 21  4  0
 16 19  4  0
 16 23  4  0
 17 22  4  0
 18 26  4  0
 19 24  4  0
 20 24  4  0
 22 27  4  0
 28 29  4  0
M  END
$$$$

 Created by Python create_sdf_string function

 29 33  0  0  0  0  0  0  0  0999 V2000
   10.7215   -3.3326   17.6437 C   0  0  0  0  0  0  0  0  0  0  0  0
    9.9489   -3.4675   24.6487 N   0  0  0  0  0  0  0  0  0  0  0  0
   10.0172   -4.4740   17.4101 C   0  0  0  0  0  0  0  0  0  0  0  0
    6.9051   -7.9575   16.4222 C   0  0  0  0  0  0  0  0  0  0  0  0
    8.9969   -6.3552   17.9668 N   0  0  0  0  0  0  0  0  0  0  0  0
   10.6702   -3.9051   22.4070 C   0  0  0  0  0  0  0  0  0  0  0  0
   11.0625   -3.0028   18.8894 C   0  0  0  0  0  0  0  0  0  0  0  0
    5.6180   -7.9194   16.1754 O   0  0  0  0  0  0  0  0  0  0  0  0
    9.7259   -5.3080   18.4485 C   0  0  0  0  0  0  0  0  0  0  0  0
    9.4578   -5.0200   16.3036 N   0  0  0  0  0  0  0  0  0  0  0  0
    5.0287   -8.9365   16.8223 C   0  0  0  0  0  0  0  0  0  0  0  0
    8.7742   -6.1498   16.6764 C   0  0  0  0  0  0  0  0  0  0  0  0
   10.9418   -3.4032   21.2053 O   0  0  0  0  0  0  0  0  0  0  0  0
    1.4797   -8.6258   16.2950 C   0  0  0  0  0  0  0  0  0  0  0  0
    9.2861   -1.2743   25.3585 C   0  0  0  0  0  0  0  0  0  0  0  0
    1.8892  -10.3985   17.7511 N   0  0  0  0  0  0  0  0  0  0  0  0
    9.6210   -0.6952   24.0976 C   0  0  0  0  0  0  0  0  0  0  0  0
    7.0792   -9.0217   17.1429 C   0  0  0  0  0  0  0  0  0  0  0  0
    3.1713  -10.1816   17.6634 C   0  0  0  0  0  0  0  0  0  0  0  0
    2.7878   -8.3822   16.2137 C   0  0  0  0  0  0  0  0  0  0  0  0
    9.4601   -2.6590   25.6528 C   0  0  0  0  0  0  0  0  0  0  0  0
   10.1182   -1.5672   23.1165 C   0  0  0  0  0  0  0  0  0  0  0  0
    1.0552   -9.6360   17.0650 C   0  0  0  0  0  0  0  0  0  0  0  0
    3.6519   -9.1783   16.9039 C   0  0  0  0  0  0  0  0  0  0  0  0
    7.8675   -7.0096   15.9415 C   0  0  0  0  0  0  0  0  0  0  0  0
    5.9733   -9.6553   17.3832 N   0  0  0  0  0  0  0  0  0  0  0  0
   10.2411   -2.9363   23.4301 C   0  0  0  0  0  0  0  0  0  0  0  0
   10.7288   -3.8197   19.9525 C   0  0  0  0  0  0  0  0  0  0  0  0
   10.1189   -5.0054   19.6987 C   0  0  0  0  0  0  0  0  0  0  0  0
  1  3  4  0
  1  7  4  0
  2 21  4  0
  2 27  4  0
  3  9  4  0
  3 10  4  0
  4  8  4  0
  4 18  4  0
  4 25  1  0
  5  9  4  0
  5 12  4  0
  6 13  1  0
  6 27  1  0
  7 28  4  0
  8 11  4  0
  9 29  4  0
 10 12  4  0
 11 24  1  0
 11 26  4  0
 12 25  1  0
 13 28  1  0
 14 20  4  0
 14 23  4  0
 15 17  4  0
 15 21  4  0
 16 19  4  0
 16 23  4  0
 17 22  4  0
 18 26  4  0
 19 24  4  0
 20 24  4  0
 22 27  4  0
 28 29  4  0
M  END
$$$$

 Created by Python create_sdf_string function

 29 33  0  0  0  0  0  0  0  0999 V2000
   10.7215   -3.3326   17.6437 C   0  0  0  0  0  0  0  0  0  0  0  0
    9.9489   -3.4675   24.6487 N   0  0  0  0  0  0  0  0  0  0  0  0
   10.0172   -4.4740   17.4101 C   0  0  0  0  0  0  0  0  0  0  0  0
    6.9051   -7.9575   16.4222 C   0  0  0  0  0  0  0  0  0  0  0  0
    8.9969   -6.3552   17.9668 N   0  0  0  0  0  0  0  0  0  0  0  0
   10.6702   -3.9051   22.4070 C   0  0  0  0  0  0  0  0  0  0  0  0
   11.0625   -3.0028   18.8894 C   0  0  0  0  0  0  0  0  0  0  0  0
    5.6180   -7.9194   16.1754 O   0  0  0  0  0  0  0  0  0  0  0  0
    9.7259   -5.3080   18.4485 C   0  0  0  0  0  0  0  0  0  0  0  0
    9.4578   -5.0200   16.3036 N   0  0  0  0  0  0  0  0  0  0  0  0
    5.0287   -8.9365   16.8223 C   0  0  0  0  0  0  0  0  0  0  0  0
    8.7742   -6.1498   16.6764 C   0  0  0  0  0  0  0  0  0  0  0  0
   10.9418   -3.4032   21.2053 O   0  0  0  0  0  0  0  0  0  0  0  0
    1.4797   -8.6258   16.2950 C   0  0  0  0  0  0  0  0  0  0  0  0
    9.2861   -1.2743   25.3585 C   0  0  0  0  0  0  0  0  0  0  0  0
    1.8892  -10.3985   17.7511 N   0  0  0  0  0  0  0  0  0  0  0  0
    9.6210   -0.6952   24.0976 C   0  0  0  0  0  0  0  0  0  0  0  0
    7.0792   -9.0217   17.1429 C   0  0  0  0  0  0  0  0  0  0  0  0
    3.1713  -10.1816   17.6634 C   0  0  0  0  0  0  0  0  0  0  0  0
    2.7878   -8.3822   16.2137 C   0  0  0  0  0  0  0  0  0  0  0  0
    9.4601   -2.6590   25.6528 C   0  0  0  0  0  0  0  0  0  0  0  0
   10.1182   -1.5672   23.1165 C   0  0  0  0  0  0  0  0  0  0  0  0
    1.0552   -9.6360   17.0650 C   0  0  0  0  0  0  0  0  0  0  0  0
    3.6519   -9.1783   16.9039 C   0  0  0  0  0  0  0  0  0  0  0  0
    7.8675   -7.0096   15.9415 C   0  0  0  0  0  0  0  0  0  0  0  0
    5.9733   -9.6553   17.3832 N   0  0  0  0  0  0  0  0  0  0  0  0
   10.2411   -2.9363   23.4301 C   0  0  0  0  0  0  0  0  0  0  0  0
   10.7288   -3.8197   19.9525 C   0  0  0  0  0  0  0  0  0  0  0  0
   10.1189   -5.0054   19.6987 C   0  0  0  0  0  0  0  0  0  0  0  0
  1  3  4  0
  1  7  4  0
  2 21  4  0
  2 27  4  0
  3  9  4  0
  3 10  4  0
  4  8  4  0
  4 18  4  0
  4 25  1  0
  5  9  4  0
  5 12  4  0
  6 13  1  0
  6 27  1  0
  7 28  4  0
  8 11  4  0
  9 29  4  0
 10 12  4  0
 11 24  1  0
 11 26  4  0
 12 25  1  0
 13 28  1  0
 14 20  4  0
 14 23  4  0
 15 17  4  0
 15 21  4  0
 16 19  4  0
 16 23  4  0
 17 22  4  0
 18 26  4  0
 19 24  4  0
 20 24  4  0
 22 27  4  0
 28 29  4  0
M  END
$$$$

 Created by Python create_sdf_string function

 29 33  0  0  0  0  0  0  0  0999 V2000
   10.7215   -3.3326   17.6437 C   0  0  0  0  0  0  0  0  0  0  0  0
    9.9489   -3.4675   24.6487 N   0  0  0  0  0  0  0  0  0  0  0  0
   10.0172   -4.4740   17.4101 C   0  0  0  0  0  0  0  0  0  0  0  0
    6.9051   -7.9575   16.4222 C   0  0  0  0  0  0  0  0  0  0  0  0
    8.9969   -6.3552   17.9668 N   0  0  0  0  0  0  0  0  0  0  0  0
   10.6702   -3.9051   22.4070 C   0  0  0  0  0  0  0  0  0  0  0  0
   11.0625   -3.0028   18.8894 C   0  0  0  0  0  0  0  0  0  0  0  0
    5.6180   -7.9194   16.1754 O   0  0  0  0  0  0  0  0  0  0  0  0
    9.7259   -5.3080   18.4485 C   0  0  0  0  0  0  0  0  0  0  0  0
    9.4578   -5.0200   16.3036 N   0  0  0  0  0  0  0  0  0  0  0  0
    5.0287   -8.9365   16.8223 C   0  0  0  0  0  0  0  0  0  0  0  0
    8.7742   -6.1498   16.6764 C   0  0  0  0  0  0  0  0  0  0  0  0
   10.9418   -3.4032   21.2053 O   0  0  0  0  0  0  0  0  0  0  0  0
    1.4797   -8.6258   16.2950 C   0  0  0  0  0  0  0  0  0  0  0  0
    9.2861   -1.2743   25.3585 C   0  0  0  0  0  0  0  0  0  0  0  0
    1.8892  -10.3985   17.7511 N   0  0  0  0  0  0  0  0  0  0  0  0
    9.6210   -0.6952   24.0976 C   0  0  0  0  0  0  0  0  0  0  0  0
    7.0792   -9.0217   17.1429 C   0  0  0  0  0  0  0  0  0  0  0  0
    3.1713  -10.1816   17.6634 C   0  0  0  0  0  0  0  0  0  0  0  0
    2.7878   -8.3822   16.2137 C   0  0  0  0  0  0  0  0  0  0  0  0
    9.4601   -2.6590   25.6528 C   0  0  0  0  0  0  0  0  0  0  0  0
   10.1182   -1.5672   23.1165 C   0  0  0  0  0  0  0  0  0  0  0  0
    1.0552   -9.6360   17.0650 C   0  0  0  0  0  0  0  0  0  0  0  0
    3.6519   -9.1783   16.9039 C   0  0  0  0  0  0  0  0  0  0  0  0
    7.8675   -7.0096   15.9415 C   0  0  0  0  0  0  0  0  0  0  0  0
    5.9733   -9.6553   17.3832 N   0  0  0  0  0  0  0  0  0  0  0  0
   10.2411   -2.9363   23.4301 C   0  0  0  0  0  0  0  0  0  0  0  0
   10.7288   -3.8197   19.9525 C   0  0  0  0  0  0  0  0  0  0  0  0
   10.1189   -5.0054   19.6987 C   0  0  0  0  0  0  0  0  0  0  0  0
  1  3  4  0
  1  7  4  0
  2 21  4  0
  2 27  4  0
  3  9  4  0
  3 10  4  0
  4  8  4  0
  4 18  4  0
  4 25  1  0
  5  9  4  0
  5 12  4  0
  6 13  1  0
  6 27  1  0
  7 28  4  0
  8 11  4  0
  9 29  4  0
 10 12  4  0
 11 24  1  0
 11 26  4  0
 12 25  1  0
 13 28  1  0
 14 20  4  0
 14 23  4  0
 15 17  4  0
 15 21  4  0
 16 19  4  0
 16 23  4  0
 17 22  4  0
 18 26  4  0
 19 24  4  0
 20 24  4  0
 22 27  4  0
 28 29  4  0
M  END
$$$$

 Created by Python create_sdf_string function

 29 33  0  0  0  0  0  0  0  0999 V2000
   10.7215   -3.3326   17.6437 C   0  0  0  0  0  0  0  0  0  0  0  0
    9.9489   -3.4675   24.6487 N   0  0  0  0  0  0  0  0  0  0  0  0
   10.0172   -4.4740   17.4101 C   0  0  0  0  0  0  0  0  0  0  0  0
    6.9051   -7.9575   16.4222 C   0  0  0  0  0  0  0  0  0  0  0  0
    8.9969   -6.3552   17.9668 N   0  0  0  0  0  0  0  0  0  0  0  0
   10.6702   -3.9051   22.4070 C   0  0  0  0  0  0  0  0  0  0  0  0
   11.0625   -3.0028   18.8894 C   0  0  0  0  0  0  0  0  0  0  0  0
    5.6180   -7.9194   16.1754 O   0  0  0  0  0  0  0  0  0  0  0  0
    9.7259   -5.3080   18.4485 C   0  0  0  0  0  0  0  0  0  0  0  0
    9.4578   -5.0200   16.3036 N   0  0  0  0  0  0  0  0  0  0  0  0
    5.0287   -8.9365   16.8223 C   0  0  0  0  0  0  0  0  0  0  0  0
    8.7742   -6.1498   16.6764 C   0  0  0  0  0  0  0  0  0  0  0  0
   10.9418   -3.4032   21.2053 O   0  0  0  0  0  0  0  0  0  0  0  0
    1.4797   -8.6258   16.2950 C   0  0  0  0  0  0  0  0  0  0  0  0
    9.2861   -1.2743   25.3585 C   0  0  0  0  0  0  0  0  0  0  0  0
    1.8892  -10.3985   17.7511 N   0  0  0  0  0  0  0  0  0  0  0  0
    9.6210   -0.6952   24.0976 C   0  0  0  0  0  0  0  0  0  0  0  0
    7.0792   -9.0217   17.1429 C   0  0  0  0  0  0  0  0  0  0  0  0
    3.1713  -10.1816   17.6634 C   0  0  0  0  0  0  0  0  0  0  0  0
    2.7878   -8.3822   16.2137 C   0  0  0  0  0  0  0  0  0  0  0  0
    9.4601   -2.6590   25.6528 C   0  0  0  0  0  0  0  0  0  0  0  0
   10.1182   -1.5672   23.1165 C   0  0  0  0  0  0  0  0  0  0  0  0
    1.0552   -9.6360   17.0650 C   0  0  0  0  0  0  0  0  0  0  0  0
    3.6519   -9.1783   16.9039 C   0  0  0  0  0  0  0  0  0  0  0  0
    7.8675   -7.0096   15.9415 C   0  0  0  0  0  0  0  0  0  0  0  0
    5.9733   -9.6553   17.3832 N   0  0  0  0  0  0  0  0  0  0  0  0
   10.2411   -2.9363   23.4301 C   0  0  0  0  0  0  0  0  0  0  0  0
   10.7288   -3.8197   19.9525 C   0  0  0  0  0  0  0  0  0  0  0  0
   10.1189   -5.0054   19.6987 C   0  0  0  0  0  0  0  0  0  0  0  0
  1  3  4  0
  1  7  4  0
  2 21  4  0
  2 27  4  0
  3  9  4  0
  3 10  4  0
  4  8  4  0
  4 18  4  0
  4 25  1  0
  5  9  4  0
  5 12  4  0
  6 13  1  0
  6 27  1  0
  7 28  4  0
  8 11  4  0
  9 29  4  0
 10 12  4  0
 11 24  1  0
 11 26  4  0
 12 25  1  0
 13 28  1  0
 14 20  4  0
 14 23  4  0
 15 17  4  0
 15 21  4  0
 16 19  4  0
 16 23  4  0
 17 22  4  0
 18 26  4  0
 19 24  4  0
 20 24  4  0
 22 27  4  0
 28 29  4  0
M  END
$$$$

 Created by Python create_sdf_string function

 29 33  0  0  0  0  0  0  0  0999 V2000
   10.7215   -3.3326   17.6437 C   0  0  0  0  0  0  0  0  0  0  0  0
    9.9489   -3.4675   24.6487 N   0  0  0  0  0  0  0  0  0  0  0  0
   10.0172   -4.4740   17.4101 C   0  0  0  0  0  0  0  0  0  0  0  0
    6.9051   -7.9575   16.4222 C   0  0  0  0  0  0  0  0  0  0  0  0
    8.9969   -6.3552   17.9668 N   0  0  0  0  0  0  0  0  0  0  0  0
   10.6702   -3.9051   22.4070 C   0  0  0  0  0  0  0  0  0  0  0  0
   11.0625   -3.0028   18.8894 C   0  0  0  0  0  0  0  0  0  0  0  0
    5.6180   -7.9194   16.1754 O   0  0  0  0  0  0  0  0  0  0  0  0
    9.7259   -5.3080   18.4485 C   0  0  0  0  0  0  0  0  0  0  0  0
    9.4578   -5.0200   16.3036 N   0  0  0  0  0  0  0  0  0  0  0  0
    5.0287   -8.9365   16.8223 C   0  0  0  0  0  0  0  0  0  0  0  0
    8.7742   -6.1498   16.6764 C   0  0  0  0  0  0  0  0  0  0  0  0
   10.9418   -3.4032   21.2053 O   0  0  0  0  0  0  0  0  0  0  0  0
    1.4797   -8.6258   16.2950 C   0  0  0  0  0  0  0  0  0  0  0  0
    9.2861   -1.2743   25.3585 C   0  0  0  0  0  0  0  0  0  0  0  0
    1.8892  -10.3985   17.7511 N   0  0  0  0  0  0  0  0  0  0  0  0
    9.6210   -0.6952   24.0976 C   0  0  0  0  0  0  0  0  0  0  0  0
    7.0792   -9.0217   17.1429 C   0  0  0  0  0  0  0  0  0  0  0  0
    3.1713  -10.1816   17.6634 C   0  0  0  0  0  0  0  0  0  0  0  0
    2.7878   -8.3822   16.2137 C   0  0  0  0  0  0  0  0  0  0  0  0
    9.4601   -2.6590   25.6528 C   0  0  0  0  0  0  0  0  0  0  0  0
   10.1182   -1.5672   23.1165 C   0  0  0  0  0  0  0  0  0  0  0  0
    1.0552   -9.6360   17.0650 C   0  0  0  0  0  0  0  0  0  0  0  0
    3.6519   -9.1783   16.9039 C   0  0  0  0  0  0  0  0  0  0  0  0
    7.8675   -7.0096   15.9415 C   0  0  0  0  0  0  0  0  0  0  0  0
    5.9733   -9.6553   17.3832 N   0  0  0  0  0  0  0  0  0  0  0  0
   10.2411   -2.9363   23.4301 C   0  0  0  0  0  0  0  0  0  0  0  0
   10.7288   -3.8197   19.9525 C   0  0  0  0  0  0  0  0  0  0  0  0
   10.1189   -5.0054   19.6987 C   0  0  0  0  0  0  0  0  0  0  0  0
  1  3  4  0
  1  7  4  0
  2 21  4  0
  2 27  4  0
  3  9  4  0
  3 10  4  0
  4  8  4  0
  4 18  4  0
  4 25  1  0
  5  9  4  0
  5 12  4  0
  6 13  1  0
  6 27  1  0
  7 28  4  0
  8 11  4  0
  9 29  4  0
 10 12  4  0
 11 24  1  0
 11 26  4  0
 12 25  1  0
 13 28  1  0
 14 20  4  0
 14 23  4  0
 15 17  4  0
 15 21  4  0
 16 19  4  0
 16 23  4  0
 17 22  4  0
 18 26  4  0
 19 24  4  0
 20 24  4  0
 22 27  4  0
 28 29  4  0
M  END
$$$$

 Created by Python create_sdf_string function

 29 33  0  0  0  0  0  0  0  0999 V2000
   10.7215   -3.3326   17.6437 C   0  0  0  0  0  0  0  0  0  0  0  0
    9.9489   -3.4675   24.6487 N   0  0  0  0  0  0  0  0  0  0  0  0
   10.0172   -4.4740   17.4101 C   0  0  0  0  0  0  0  0  0  0  0  0
    6.9051   -7.9575   16.4222 C   0  0  0  0  0  0  0  0  0  0  0  0
    8.9969   -6.3552   17.9668 N   0  0  0  0  0  0  0  0  0  0  0  0
   10.6702   -3.9051   22.4070 C   0  0  0  0  0  0  0  0  0  0  0  0
   11.0625   -3.0028   18.8894 C   0  0  0  0  0  0  0  0  0  0  0  0
    5.6180   -7.9194   16.1754 O   0  0  0  0  0  0  0  0  0  0  0  0
    9.7259   -5.3080   18.4485 C   0  0  0  0  0  0  0  0  0  0  0  0
    9.4578   -5.0200   16.3036 N   0  0  0  0  0  0  0  0  0  0  0  0
    5.0287   -8.9365   16.8223 C   0  0  0  0  0  0  0  0  0  0  0  0
    8.7742   -6.1498   16.6764 C   0  0  0  0  0  0  0  0  0  0  0  0
   10.9418   -3.4032   21.2053 O   0  0  0  0  0  0  0  0  0  0  0  0
    1.4797   -8.6258   16.2950 C   0  0  0  0  0  0  0  0  0  0  0  0
    9.2861   -1.2743   25.3585 C   0  0  0  0  0  0  0  0  0  0  0  0
    1.8892  -10.3985   17.7511 N   0  0  0  0  0  0  0  0  0  0  0  0
    9.6210   -0.6952   24.0976 C   0  0  0  0  0  0  0  0  0  0  0  0
    7.0792   -9.0217   17.1429 C   0  0  0  0  0  0  0  0  0  0  0  0
    3.1713  -10.1816   17.6634 C   0  0  0  0  0  0  0  0  0  0  0  0
    2.7878   -8.3822   16.2137 C   0  0  0  0  0  0  0  0  0  0  0  0
    9.4601   -2.6590   25.6528 C   0  0  0  0  0  0  0  0  0  0  0  0
   10.1182   -1.5672   23.1165 C   0  0  0  0  0  0  0  0  0  0  0  0
    1.0552   -9.6360   17.0650 C   0  0  0  0  0  0  0  0  0  0  0  0
    3.6519   -9.1783   16.9039 C   0  0  0  0  0  0  0  0  0  0  0  0
    7.8675   -7.0096   15.9415 C   0  0  0  0  0  0  0  0  0  0  0  0
    5.9733   -9.6553   17.3832 N   0  0  0  0  0  0  0  0  0  0  0  0
   10.2411   -2.9363   23.4301 C   0  0  0  0  0  0  0  0  0  0  0  0
   10.7288   -3.8197   19.9525 C   0  0  0  0  0  0  0  0  0  0  0  0
   10.1189   -5.0054   19.6987 C   0  0  0  0  0  0  0  0  0  0  0  0
  1  3  4  0
  1  7  4  0
  2 21  4  0
  2 27  4  0
  3  9  4  0
  3 10  4  0
  4  8  4  0
  4 18  4  0
  4 25  1  0
  5  9  4  0
  5 12  4  0
  6 13  1  0
  6 27  1  0
  7 28  4  0
  8 11  4  0
  9 29  4  0
 10 12  4  0
 11 24  1  0
 11 26  4  0
 12 25  1  0
 13 28  1  0
 14 20  4  0
 14 23  4  0
 15 17  4  0
 15 21  4  0
 16 19  4  0
 16 23  4  0
 17 22  4  0
 18 26  4  0
 19 24  4  0
 20 24  4  0
 22 27  4  0
 28 29  4  0
M  END
$$$$

 Created by Python create_sdf_string function

 29 33  0  0  0  0  0  0  0  0999 V2000
   10.7215   -3.3326   17.6437 C   0  0  0  0  0  0  0  0  0  0  0  0
    9.9489   -3.4675   24.6487 N   0  0  0  0  0  0  0  0  0  0  0  0
   10.0172   -4.4740   17.4101 C   0  0  0  0  0  0  0  0  0  0  0  0
    6.9051   -7.9575   16.4222 C   0  0  0  0  0  0  0  0  0  0  0  0
    8.9969   -6.3552   17.9668 N   0  0  0  0  0  0  0  0  0  0  0  0
   10.6702   -3.9051   22.4070 C   0  0  0  0  0  0  0  0  0  0  0  0
   11.0625   -3.0028   18.8894 C   0  0  0  0  0  0  0  0  0  0  0  0
    5.6180   -7.9194   16.1754 O   0  0  0  0  0  0  0  0  0  0  0  0
    9.7259   -5.3080   18.4485 C   0  0  0  0  0  0  0  0  0  0  0  0
    9.4578   -5.0200   16.3036 N   0  0  0  0  0  0  0  0  0  0  0  0
    5.0287   -8.9365   16.8223 C   0  0  0  0  0  0  0  0  0  0  0  0
    8.7742   -6.1498   16.6764 C   0  0  0  0  0  0  0  0  0  0  0  0
   10.9418   -3.4032   21.2053 O   0  0  0  0  0  0  0  0  0  0  0  0
    1.4797   -8.6258   16.2950 C   0  0  0  0  0  0  0  0  0  0  0  0
    9.2861   -1.2743   25.3585 C   0  0  0  0  0  0  0  0  0  0  0  0
    1.8892  -10.3985   17.7511 N   0  0  0  0  0  0  0  0  0  0  0  0
    9.6210   -0.6952   24.0976 C   0  0  0  0  0  0  0  0  0  0  0  0
    7.0792   -9.0217   17.1429 C   0  0  0  0  0  0  0  0  0  0  0  0
    3.1713  -10.1816   17.6634 C   0  0  0  0  0  0  0  0  0  0  0  0
    2.7878   -8.3822   16.2137 C   0  0  0  0  0  0  0  0  0  0  0  0
    9.4601   -2.6590   25.6528 C   0  0  0  0  0  0  0  0  0  0  0  0
   10.1182   -1.5672   23.1165 C   0  0  0  0  0  0  0  0  0  0  0  0
    1.0552   -9.6360   17.0650 C   0  0  0  0  0  0  0  0  0  0  0  0
    3.6519   -9.1783   16.9039 C   0  0  0  0  0  0  0  0  0  0  0  0
    7.8675   -7.0096   15.9415 C   0  0  0  0  0  0  0  0  0  0  0  0
    5.9733   -9.6553   17.3832 N   0  0  0  0  0  0  0  0  0  0  0  0
   10.2411   -2.9363   23.4301 C   0  0  0  0  0  0  0  0  0  0  0  0
   10.7288   -3.8197   19.9525 C   0  0  0  0  0  0  0  0  0  0  0  0
   10.1189   -5.0054   19.6987 C   0  0  0  0  0  0  0  0  0  0  0  0
  1  3  4  0
  1  7  4  0
  2 21  4  0
  2 27  4  0
  3  9  4  0
  3 10  4  0
  4  8  4  0
  4 18  4  0
  4 25  1  0
  5  9  4  0
  5 12  4  0
  6 13  1  0
  6 27  1  0
  7 28  4  0
  8 11  4  0
  9 29  4  0
 10 12  4  0
 11 24  1  0
 11 26  4  0
 12 25  1  0
 13 28  1  0
 14 20  4  0
 14 23  4  0
 15 17  4  0
 15 21  4  0
 16 19  4  0
 16 23  4  0
 17 22  4  0
 18 26  4  0
 19 24  4  0
 20 24  4  0
 22 27  4  0
 28 29  4  0
M  END
$$$$

 Created by Python create_sdf_string function

 29 33  0  0  0  0  0  0  0  0999 V2000
   10.7215   -3.3326   17.6437 C   0  0  0  0  0  0  0  0  0  0  0  0
    9.9489   -3.4675   24.6487 N   0  0  0  0  0  0  0  0  0  0  0  0
   10.0172   -4.4740   17.4101 C   0  0  0  0  0  0  0  0  0  0  0  0
    6.9051   -7.9575   16.4222 C   0  0  0  0  0  0  0  0  0  0  0  0
    8.9969   -6.3552   17.9668 N   0  0  0  0  0  0  0  0  0  0  0  0
   10.6702   -3.9051   22.4070 C   0  0  0  0  0  0  0  0  0  0  0  0
   11.0625   -3.0028   18.8894 C   0  0  0  0  0  0  0  0  0  0  0  0
    5.6180   -7.9194   16.1754 O   0  0  0  0  0  0  0  0  0  0  0  0
    9.7259   -5.3080   18.4485 C   0  0  0  0  0  0  0  0  0  0  0  0
    9.4578   -5.0200   16.3036 N   0  0  0  0  0  0  0  0  0  0  0  0
    5.0287   -8.9365   16.8223 C   0  0  0  0  0  0  0  0  0  0  0  0
    8.7742   -6.1498   16.6764 C   0  0  0  0  0  0  0  0  0  0  0  0
   10.9418   -3.4032   21.2053 O   0  0  0  0  0  0  0  0  0  0  0  0
    1.4797   -8.6258   16.2950 C   0  0  0  0  0  0  0  0  0  0  0  0
    9.2861   -1.2743   25.3585 C   0  0  0  0  0  0  0  0  0  0  0  0
    1.8892  -10.3985   17.7511 N   0  0  0  0  0  0  0  0  0  0  0  0
    9.6210   -0.6952   24.0976 C   0  0  0  0  0  0  0  0  0  0  0  0
    7.0792   -9.0217   17.1429 C   0  0  0  0  0  0  0  0  0  0  0  0
    3.1713  -10.1816   17.6634 C   0  0  0  0  0  0  0  0  0  0  0  0
    2.7878   -8.3822   16.2137 C   0  0  0  0  0  0  0  0  0  0  0  0
    9.4601   -2.6590   25.6528 C   0  0  0  0  0  0  0  0  0  0  0  0
   10.1182   -1.5672   23.1165 C   0  0  0  0  0  0  0  0  0  0  0  0
    1.0552   -9.6360   17.0650 C   0  0  0  0  0  0  0  0  0  0  0  0
    3.6519   -9.1783   16.9039 C   0  0  0  0  0  0  0  0  0  0  0  0
    7.8675   -7.0096   15.9415 C   0  0  0  0  0  0  0  0  0  0  0  0
    5.9733   -9.6553   17.3832 N   0  0  0  0  0  0  0  0  0  0  0  0
   10.2411   -2.9363   23.4301 C   0  0  0  0  0  0  0  0  0  0  0  0
   10.7288   -3.8197   19.9525 C   0  0  0  0  0  0  0  0  0  0  0  0
   10.1189   -5.0054   19.6987 C   0  0  0  0  0  0  0  0  0  0  0  0
  1  3  4  0
  1  7  4  0
  2 21  4  0
  2 27  4  0
  3  9  4  0
  3 10  4  0
  4  8  4  0
  4 18  4  0
  4 25  1  0
  5  9  4  0
  5 12  4  0
  6 13  1  0
  6 27  1  0
  7 28  4  0
  8 11  4  0
  9 29  4  0
 10 12  4  0
 11 24  1  0
 11 26  4  0
 12 25  1  0
 13 28  1  0
 14 20  4  0
 14 23  4  0
 15 17  4  0
 15 21  4  0
 16 19  4  0
 16 23  4  0
 17 22  4  0
 18 26  4  0
 19 24  4  0
 20 24  4  0
 22 27  4  0
 28 29  4  0
M  END
$$$$

 Created by Python create_sdf_string function

 29 33  0  0  0  0  0  0  0  0999 V2000
   10.7215   -3.3326   17.6437 C   0  0  0  0  0  0  0  0  0  0  0  0
    9.9489   -3.4675   24.6487 N   0  0  0  0  0  0  0  0  0  0  0  0
   10.0172   -4.4740   17.4101 C   0  0  0  0  0  0  0  0  0  0  0  0
    6.9051   -7.9575   16.4222 C   0  0  0  0  0  0  0  0  0  0  0  0
    8.9969   -6.3552   17.9668 N   0  0  0  0  0  0  0  0  0  0  0  0
   10.6702   -3.9051   22.4070 C   0  0  0  0  0  0  0  0  0  0  0  0
   11.0625   -3.0028   18.8894 C   0  0  0  0  0  0  0  0  0  0  0  0
    5.6180   -7.9194   16.1754 O   0  0  0  0  0  0  0  0  0  0  0  0
    9.7259   -5.3080   18.4485 C   0  0  0  0  0  0  0  0  0  0  0  0
    9.4578   -5.0200   16.3036 N   0  0  0  0  0  0  0  0  0  0  0  0
    5.0287   -8.9365   16.8223 C   0  0  0  0  0  0  0  0  0  0  0  0
    8.7742   -6.1498   16.6764 C   0  0  0  0  0  0  0  0  0  0  0  0
   10.9418   -3.4032   21.2053 O   0  0  0  0  0  0  0  0  0  0  0  0
    1.4797   -8.6258   16.2950 C   0  0  0  0  0  0  0  0  0  0  0  0
    9.2861   -1.2743   25.3585 C   0  0  0  0  0  0  0  0  0  0  0  0
    1.8892  -10.3985   17.7511 N   0  0  0  0  0  0  0  0  0  0  0  0
    9.6210   -0.6952   24.0976 C   0  0  0  0  0  0  0  0  0  0  0  0
    7.0792   -9.0217   17.1429 C   0  0  0  0  0  0  0  0  0  0  0  0
    3.1713  -10.1816   17.6634 C   0  0  0  0  0  0  0  0  0  0  0  0
    2.7878   -8.3822   16.2137 C   0  0  0  0  0  0  0  0  0  0  0  0
    9.4601   -2.6590   25.6528 C   0  0  0  0  0  0  0  0  0  0  0  0
   10.1182   -1.5672   23.1165 C   0  0  0  0  0  0  0  0  0  0  0  0
    1.0552   -9.6360   17.0650 C   0  0  0  0  0  0  0  0  0  0  0  0
    3.6519   -9.1783   16.9039 C   0  0  0  0  0  0  0  0  0  0  0  0
    7.8675   -7.0096   15.9415 C   0  0  0  0  0  0  0  0  0  0  0  0
    5.9733   -9.6553   17.3832 N   0  0  0  0  0  0  0  0  0  0  0  0
   10.2411   -2.9363   23.4301 C   0  0  0  0  0  0  0  0  0  0  0  0
   10.7288   -3.8197   19.9525 C   0  0  0  0  0  0  0  0  0  0  0  0
   10.1189   -5.0054   19.6987 C   0  0  0  0  0  0  0  0  0  0  0  0
  1  3  4  0
  1  7  4  0
  2 21  4  0
  2 27  4  0
  3  9  4  0
  3 10  4  0
  4  8  4  0
  4 18  4  0
  4 25  1  0
  5  9  4  0
  5 12  4  0
  6 13  1  0
  6 27  1  0
  7 28  4  0
  8 11  4  0
  9 29  4  0
 10 12  4  0
 11 24  1  0
 11 26  4  0
 12 25  1  0
 13 28  1  0
 14 20  4  0
 14 23  4  0
 15 17  4  0
 15 21  4  0
 16 19  4  0
 16 23  4  0
 17 22  4  0
 18 26  4  0
 19 24  4  0
 20 24  4  0
 22 27  4  0
 28 29  4  0
M  END
$$$$

 Created by Python create_sdf_string function

 29 33  0  0  0  0  0  0  0  0999 V2000
   10.7215   -3.3326   17.6437 C   0  0  0  0  0  0  0  0  0  0  0  0
    9.9489   -3.4675   24.6487 N   0  0  0  0  0  0  0  0  0  0  0  0
   10.0172   -4.4740   17.4101 C   0  0  0  0  0  0  0  0  0  0  0  0
    6.9051   -7.9575   16.4222 C   0  0  0  0  0  0  0  0  0  0  0  0
    8.9969   -6.3552   17.9668 N   0  0  0  0  0  0  0  0  0  0  0  0
   10.6702   -3.9051   22.4070 C   0  0  0  0  0  0  0  0  0  0  0  0
   11.0625   -3.0028   18.8894 C   0  0  0  0  0  0  0  0  0  0  0  0
    5.6180   -7.9194   16.1754 O   0  0  0  0  0  0  0  0  0  0  0  0
    9.7259   -5.3080   18.4485 C   0  0  0  0  0  0  0  0  0  0  0  0
    9.4578   -5.0200   16.3036 N   0  0  0  0  0  0  0  0  0  0  0  0
    5.0287   -8.9365   16.8223 C   0  0  0  0  0  0  0  0  0  0  0  0
    8.7742   -6.1498   16.6764 C   0  0  0  0  0  0  0  0  0  0  0  0
   10.9418   -3.4032   21.2053 O   0  0  0  0  0  0  0  0  0  0  0  0
    1.4797   -8.6258   16.2950 C   0  0  0  0  0  0  0  0  0  0  0  0
    9.2861   -1.2743   25.3585 C   0  0  0  0  0  0  0  0  0  0  0  0
    1.8892  -10.3985   17.7511 N   0  0  0  0  0  0  0  0  0  0  0  0
    9.6210   -0.6952   24.0976 C   0  0  0  0  0  0  0  0  0  0  0  0
    7.0792   -9.0217   17.1429 C   0  0  0  0  0  0  0  0  0  0  0  0
    3.1713  -10.1816   17.6634 C   0  0  0  0  0  0  0  0  0  0  0  0
    2.7878   -8.3822   16.2137 C   0  0  0  0  0  0  0  0  0  0  0  0
    9.4601   -2.6590   25.6528 C   0  0  0  0  0  0  0  0  0  0  0  0
   10.1182   -1.5672   23.1165 C   0  0  0  0  0  0  0  0  0  0  0  0
    1.0552   -9.6360   17.0650 C   0  0  0  0  0  0  0  0  0  0  0  0
    3.6519   -9.1783   16.9039 C   0  0  0  0  0  0  0  0  0  0  0  0
    7.8675   -7.0096   15.9415 C   0  0  0  0  0  0  0  0  0  0  0  0
    5.9733   -9.6553   17.3832 N   0  0  0  0  0  0  0  0  0  0  0  0
   10.2411   -2.9363   23.4301 C   0  0  0  0  0  0  0  0  0  0  0  0
   10.7288   -3.8197   19.9525 C   0  0  0  0  0  0  0  0  0  0  0  0
   10.1189   -5.0054   19.6987 C   0  0  0  0  0  0  0  0  0  0  0  0
  1  3  4  0
  1  7  4  0
  2 21  4  0
  2 27  4  0
  3  9  4  0
  3 10  4  0
  4  8  4  0
  4 18  4  0
  4 25  1  0
  5  9  4  0
  5 12  4  0
  6 13  1  0
  6 27  1  0
  7 28  4  0
  8 11  4  0
  9 29  4  0
 10 12  4  0
 11 24  1  0
 11 26  4  0
 12 25  1  0
 13 28  1  0
 14 20  4  0
 14 23  4  0
 15 17  4  0
 15 21  4  0
 16 19  4  0
 16 23  4  0
 17 22  4  0
 18 26  4  0
 19 24  4  0
 20 24  4  0
 22 27  4  0
 28 29  4  0
M  END
$$$$

 Created by Python create_sdf_string function

 29 33  0  0  0  0  0  0  0  0999 V2000
   10.7215   -3.3326   17.6437 C   0  0  0  0  0  0  0  0  0  0  0  0
    9.9489   -3.4675   24.6487 N   0  0  0  0  0  0  0  0  0  0  0  0
   10.0172   -4.4740   17.4101 C   0  0  0  0  0  0  0  0  0  0  0  0
    6.9051   -7.9575   16.4222 C   0  0  0  0  0  0  0  0  0  0  0  0
    8.9969   -6.3552   17.9668 N   0  0  0  0  0  0  0  0  0  0  0  0
   10.6702   -3.9051   22.4070 C   0  0  0  0  0  0  0  0  0  0  0  0
   11.0625   -3.0028   18.8894 C   0  0  0  0  0  0  0  0  0  0  0  0
    5.6180   -7.9194   16.1754 O   0  0  0  0  0  0  0  0  0  0  0  0
    9.7259   -5.3080   18.4485 C   0  0  0  0  0  0  0  0  0  0  0  0
    9.4578   -5.0200   16.3036 N   0  0  0  0  0  0  0  0  0  0  0  0
    5.0287   -8.9365   16.8223 C   0  0  0  0  0  0  0  0  0  0  0  0
    8.7742   -6.1498   16.6764 C   0  0  0  0  0  0  0  0  0  0  0  0
   10.9418   -3.4032   21.2053 O   0  0  0  0  0  0  0  0  0  0  0  0
    1.4797   -8.6258   16.2950 C   0  0  0  0  0  0  0  0  0  0  0  0
    9.2861   -1.2743   25.3585 C   0  0  0  0  0  0  0  0  0  0  0  0
    1.8892  -10.3985   17.7511 N   0  0  0  0  0  0  0  0  0  0  0  0
    9.6210   -0.6952   24.0976 C   0  0  0  0  0  0  0  0  0  0  0  0
    7.0792   -9.0217   17.1429 C   0  0  0  0  0  0  0  0  0  0  0  0
    3.1713  -10.1816   17.6634 C   0  0  0  0  0  0  0  0  0  0  0  0
    2.7878   -8.3822   16.2137 C   0  0  0  0  0  0  0  0  0  0  0  0
    9.4601   -2.6590   25.6528 C   0  0  0  0  0  0  0  0  0  0  0  0
   10.1182   -1.5672   23.1165 C   0  0  0  0  0  0  0  0  0  0  0  0
    1.0552   -9.6360   17.0650 C   0  0  0  0  0  0  0  0  0  0  0  0
    3.6519   -9.1783   16.9039 C   0  0  0  0  0  0  0  0  0  0  0  0
    7.8675   -7.0096   15.9415 C   0  0  0  0  0  0  0  0  0  0  0  0
    5.9733   -9.6553   17.3832 N   0  0  0  0  0  0  0  0  0  0  0  0
   10.2411   -2.9363   23.4301 C   0  0  0  0  0  0  0  0  0  0  0  0
   10.7288   -3.8197   19.9525 C   0  0  0  0  0  0  0  0  0  0  0  0
   10.1189   -5.0054   19.6987 C   0  0  0  0  0  0  0  0  0  0  0  0
  1  3  4  0
  1  7  4  0
  2 21  4  0
  2 27  4  0
  3  9  4  0
  3 10  4  0
  4  8  4  0
  4 18  4  0
  4 25  1  0
  5  9  4  0
  5 12  4  0
  6 13  1  0
  6 27  1  0
  7 28  4  0
  8 11  4  0
  9 29  4  0
 10 12  4  0
 11 24  1  0
 11 26  4  0
 12 25  1  0
 13 28  1  0
 14 20  4  0
 14 23  4  0
 15 17  4  0
 15 21  4  0
 16 19  4  0
 16 23  4  0
 17 22  4  0
 18 26  4  0
 19 24  4  0
 20 24  4  0
 22 27  4  0
 28 29  4  0
M  END
$$$$

 Created by Python create_sdf_string function

 29 33  0  0  0  0  0  0  0  0999 V2000
   10.7215   -3.3326   17.6437 C   0  0  0  0  0  0  0  0  0  0  0  0
    9.9489   -3.4675   24.6487 N   0  0  0  0  0  0  0  0  0  0  0  0
   10.0172   -4.4740   17.4101 C   0  0  0  0  0  0  0  0  0  0  0  0
    6.9051   -7.9575   16.4222 C   0  0  0  0  0  0  0  0  0  0  0  0
    8.9969   -6.3552   17.9668 N   0  0  0  0  0  0  0  0  0  0  0  0
   10.6702   -3.9051   22.4070 C   0  0  0  0  0  0  0  0  0  0  0  0
   11.0625   -3.0028   18.8894 C   0  0  0  0  0  0  0  0  0  0  0  0
    5.6180   -7.9194   16.1754 O   0  0  0  0  0  0  0  0  0  0  0  0
    9.7259   -5.3080   18.4485 C   0  0  0  0  0  0  0  0  0  0  0  0
    9.4578   -5.0200   16.3036 N   0  0  0  0  0  0  0  0  0  0  0  0
    5.0287   -8.9365   16.8223 C   0  0  0  0  0  0  0  0  0  0  0  0
    8.7742   -6.1498   16.6764 C   0  0  0  0  0  0  0  0  0  0  0  0
   10.9418   -3.4032   21.2053 O   0  0  0  0  0  0  0  0  0  0  0  0
    1.4797   -8.6258   16.2950 C   0  0  0  0  0  0  0  0  0  0  0  0
    9.2861   -1.2743   25.3585 C   0  0  0  0  0  0  0  0  0  0  0  0
    1.8892  -10.3985   17.7511 N   0  0  0  0  0  0  0  0  0  0  0  0
    9.6210   -0.6952   24.0976 C   0  0  0  0  0  0  0  0  0  0  0  0
    7.0792   -9.0217   17.1429 C   0  0  0  0  0  0  0  0  0  0  0  0
    3.1713  -10.1816   17.6634 C   0  0  0  0  0  0  0  0  0  0  0  0
    2.7878   -8.3822   16.2137 C   0  0  0  0  0  0  0  0  0  0  0  0
    9.4601   -2.6590   25.6528 C   0  0  0  0  0  0  0  0  0  0  0  0
   10.1182   -1.5672   23.1165 C   0  0  0  0  0  0  0  0  0  0  0  0
    1.0552   -9.6360   17.0650 C   0  0  0  0  0  0  0  0  0  0  0  0
    3.6519   -9.1783   16.9039 C   0  0  0  0  0  0  0  0  0  0  0  0
    7.8675   -7.0096   15.9415 C   0  0  0  0  0  0  0  0  0  0  0  0
    5.9733   -9.6553   17.3832 N   0  0  0  0  0  0  0  0  0  0  0  0
   10.2411   -2.9363   23.4301 C   0  0  0  0  0  0  0  0  0  0  0  0
   10.7288   -3.8197   19.9525 C   0  0  0  0  0  0  0  0  0  0  0  0
   10.1189   -5.0054   19.6987 C   0  0  0  0  0  0  0  0  0  0  0  0
  1  3  4  0
  1  7  4  0
  2 21  4  0
  2 27  4  0
  3  9  4  0
  3 10  4  0
  4  8  4  0
  4 18  4  0
  4 25  1  0
  5  9  4  0
  5 12  4  0
  6 13  1  0
  6 27  1  0
  7 28  4  0
  8 11  4  0
  9 29  4  0
 10 12  4  0
 11 24  1  0
 11 26  4  0
 12 25  1  0
 13 28  1  0
 14 20  4  0
 14 23  4  0
 15 17  4  0
 15 21  4  0
 16 19  4  0
 16 23  4  0
 17 22  4  0
 18 26  4  0
 19 24  4  0
 20 24  4  0
 22 27  4  0
 28 29  4  0
M  END
$$$$

 Created by Python create_sdf_string function

 29 33  0  0  0  0  0  0  0  0999 V2000
   10.7215   -3.3326   17.6437 C   0  0  0  0  0  0  0  0  0  0  0  0
    9.9489   -3.4675   24.6487 N   0  0  0  0  0  0  0  0  0  0  0  0
   10.0172   -4.4740   17.4101 C   0  0  0  0  0  0  0  0  0  0  0  0
    6.9051   -7.9575   16.4222 C   0  0  0  0  0  0  0  0  0  0  0  0
    8.9969   -6.3552   17.9668 N   0  0  0  0  0  0  0  0  0  0  0  0
   10.6702   -3.9051   22.4070 C   0  0  0  0  0  0  0  0  0  0  0  0
   11.0625   -3.0028   18.8894 C   0  0  0  0  0  0  0  0  0  0  0  0
    5.6180   -7.9194   16.1754 O   0  0  0  0  0  0  0  0  0  0  0  0
    9.7259   -5.3080   18.4485 C   0  0  0  0  0  0  0  0  0  0  0  0
    9.4578   -5.0200   16.3036 N   0  0  0  0  0  0  0  0  0  0  0  0
    5.0287   -8.9365   16.8223 C   0  0  0  0  0  0  0  0  0  0  0  0
    8.7742   -6.1498   16.6764 C   0  0  0  0  0  0  0  0  0  0  0  0
   10.9418   -3.4032   21.2053 O   0  0  0  0  0  0  0  0  0  0  0  0
    1.4797   -8.6258   16.2950 C   0  0  0  0  0  0  0  0  0  0  0  0
    9.2861   -1.2743   25.3585 C   0  0  0  0  0  0  0  0  0  0  0  0
    1.8892  -10.3985   17.7511 N   0  0  0  0  0  0  0  0  0  0  0  0
    9.6210   -0.6952   24.0976 C   0  0  0  0  0  0  0  0  0  0  0  0
    7.0792   -9.0217   17.1429 C   0  0  0  0  0  0  0  0  0  0  0  0
    3.1713  -10.1816   17.6634 C   0  0  0  0  0  0  0  0  0  0  0  0
    2.7878   -8.3822   16.2137 C   0  0  0  0  0  0  0  0  0  0  0  0
    9.4601   -2.6590   25.6528 C   0  0  0  0  0  0  0  0  0  0  0  0
   10.1182   -1.5672   23.1165 C   0  0  0  0  0  0  0  0  0  0  0  0
    1.0552   -9.6360   17.0650 C   0  0  0  0  0  0  0  0  0  0  0  0
    3.6519   -9.1783   16.9039 C   0  0  0  0  0  0  0  0  0  0  0  0
    7.8675   -7.0096   15.9415 C   0  0  0  0  0  0  0  0  0  0  0  0
    5.9733   -9.6553   17.3832 N   0  0  0  0  0  0  0  0  0  0  0  0
   10.2411   -2.9363   23.4301 C   0  0  0  0  0  0  0  0  0  0  0  0
   10.7288   -3.8197   19.9525 C   0  0  0  0  0  0  0  0  0  0  0  0
   10.1189   -5.0054   19.6987 C   0  0  0  0  0  0  0  0  0  0  0  0
  1  3  4  0
  1  7  4  0
  2 21  4  0
  2 27  4  0
  3  9  4  0
  3 10  4  0
  4  8  4  0
  4 18  4  0
  4 25  1  0
  5  9  4  0
  5 12  4  0
  6 13  1  0
  6 27  1  0
  7 28  4  0
  8 11  4  0
  9 29  4  0
 10 12  4  0
 11 24  1  0
 11 26  4  0
 12 25  1  0
 13 28  1  0
 14 20  4  0
 14 23  4  0
 15 17  4  0
 15 21  4  0
 16 19  4  0
 16 23  4  0
 17 22  4  0
 18 26  4  0
 19 24  4  0
 20 24  4  0
 22 27  4  0
 28 29  4  0
M  END
$$$$

 Created by Python create_sdf_string function

 29 33  0  0  0  0  0  0  0  0999 V2000
   10.7215   -3.3326   17.6437 C   0  0  0  0  0  0  0  0  0  0  0  0
    9.9489   -3.4675   24.6487 N   0  0  0  0  0  0  0  0  0  0  0  0
   10.0172   -4.4740   17.4101 C   0  0  0  0  0  0  0  0  0  0  0  0
    6.9051   -7.9575   16.4222 C   0  0  0  0  0  0  0  0  0  0  0  0
    8.9969   -6.3552   17.9668 N   0  0  0  0  0  0  0  0  0  0  0  0
   10.6702   -3.9051   22.4070 C   0  0  0  0  0  0  0  0  0  0  0  0
   11.0625   -3.0028   18.8894 C   0  0  0  0  0  0  0  0  0  0  0  0
    5.6180   -7.9194   16.1754 O   0  0  0  0  0  0  0  0  0  0  0  0
    9.7259   -5.3080   18.4485 C   0  0  0  0  0  0  0  0  0  0  0  0
    9.4578   -5.0200   16.3036 N   0  0  0  0  0  0  0  0  0  0  0  0
    5.0287   -8.9365   16.8223 C   0  0  0  0  0  0  0  0  0  0  0  0
    8.7742   -6.1498   16.6764 C   0  0  0  0  0  0  0  0  0  0  0  0
   10.9418   -3.4032   21.2053 O   0  0  0  0  0  0  0  0  0  0  0  0
    1.4797   -8.6258   16.2950 C   0  0  0  0  0  0  0  0  0  0  0  0
    9.2861   -1.2743   25.3585 C   0  0  0  0  0  0  0  0  0  0  0  0
    1.8892  -10.3985   17.7511 N   0  0  0  0  0  0  0  0  0  0  0  0
    9.6210   -0.6952   24.0976 C   0  0  0  0  0  0  0  0  0  0  0  0
    7.0792   -9.0217   17.1429 C   0  0  0  0  0  0  0  0  0  0  0  0
    3.1713  -10.1816   17.6634 C   0  0  0  0  0  0  0  0  0  0  0  0
    2.7878   -8.3822   16.2137 C   0  0  0  0  0  0  0  0  0  0  0  0
    9.4601   -2.6590   25.6528 C   0  0  0  0  0  0  0  0  0  0  0  0
   10.1182   -1.5672   23.1165 C   0  0  0  0  0  0  0  0  0  0  0  0
    1.0552   -9.6360   17.0650 C   0  0  0  0  0  0  0  0  0  0  0  0
    3.6519   -9.1783   16.9039 C   0  0  0  0  0  0  0  0  0  0  0  0
    7.8675   -7.0096   15.9415 C   0  0  0  0  0  0  0  0  0  0  0  0
    5.9733   -9.6553   17.3832 N   0  0  0  0  0  0  0  0  0  0  0  0
   10.2411   -2.9363   23.4301 C   0  0  0  0  0  0  0  0  0  0  0  0
   10.7288   -3.8197   19.9525 C   0  0  0  0  0  0  0  0  0  0  0  0
   10.1189   -5.0054   19.6987 C   0  0  0  0  0  0  0  0  0  0  0  0
  1  3  4  0
  1  7  4  0
  2 21  4  0
  2 27  4  0
  3  9  4  0
  3 10  4  0
  4  8  4  0
  4 18  4  0
  4 25  1  0
  5  9  4  0
  5 12  4  0
  6 13  1  0
  6 27  1  0
  7 28  4  0
  8 11  4  0
  9 29  4  0
 10 12  4  0
 11 24  1  0
 11 26  4  0
 12 25  1  0
 13 28  1  0
 14 20  4  0
 14 23  4  0
 15 17  4  0
 15 21  4  0
 16 19  4  0
 16 23  4  0
 17 22  4  0
 18 26  4  0
 19 24  4  0
 20 24  4  0
 22 27  4  0
 28 29  4  0
M  END
$$$$

 Created by Python create_sdf_string function

 29 33  0  0  0  0  0  0  0  0999 V2000
   10.7215   -3.3326   17.6437 C   0  0  0  0  0  0  0  0  0  0  0  0
    9.9489   -3.4675   24.6487 N   0  0  0  0  0  0  0  0  0  0  0  0
   10.0172   -4.4740   17.4101 C   0  0  0  0  0  0  0  0  0  0  0  0
    6.9051   -7.9575   16.4222 C   0  0  0  0  0  0  0  0  0  0  0  0
    8.9969   -6.3552   17.9668 N   0  0  0  0  0  0  0  0  0  0  0  0
   10.6702   -3.9051   22.4070 C   0  0  0  0  0  0  0  0  0  0  0  0
   11.0625   -3.0028   18.8894 C   0  0  0  0  0  0  0  0  0  0  0  0
    5.6180   -7.9194   16.1754 O   0  0  0  0  0  0  0  0  0  0  0  0
    9.7259   -5.3080   18.4485 C   0  0  0  0  0  0  0  0  0  0  0  0
    9.4578   -5.0200   16.3036 N   0  0  0  0  0  0  0  0  0  0  0  0
    5.0287   -8.9365   16.8223 C   0  0  0  0  0  0  0  0  0  0  0  0
    8.7742   -6.1498   16.6764 C   0  0  0  0  0  0  0  0  0  0  0  0
   10.9418   -3.4032   21.2053 O   0  0  0  0  0  0  0  0  0  0  0  0
    1.4797   -8.6258   16.2950 C   0  0  0  0  0  0  0  0  0  0  0  0
    9.2861   -1.2743   25.3585 C   0  0  0  0  0  0  0  0  0  0  0  0
    1.8892  -10.3985   17.7511 N   0  0  0  0  0  0  0  0  0  0  0  0
    9.6210   -0.6952   24.0976 C   0  0  0  0  0  0  0  0  0  0  0  0
    7.0792   -9.0217   17.1429 C   0  0  0  0  0  0  0  0  0  0  0  0
    3.1713  -10.1816   17.6634 C   0  0  0  0  0  0  0  0  0  0  0  0
    2.7878   -8.3822   16.2137 C   0  0  0  0  0  0  0  0  0  0  0  0
    9.4601   -2.6590   25.6528 C   0  0  0  0  0  0  0  0  0  0  0  0
   10.1182   -1.5672   23.1165 C   0  0  0  0  0  0  0  0  0  0  0  0
    1.0552   -9.6360   17.0650 C   0  0  0  0  0  0  0  0  0  0  0  0
    3.6519   -9.1783   16.9039 C   0  0  0  0  0  0  0  0  0  0  0  0
    7.8675   -7.0096   15.9415 C   0  0  0  0  0  0  0  0  0  0  0  0
    5.9733   -9.6553   17.3832 N   0  0  0  0  0  0  0  0  0  0  0  0
   10.2411   -2.9363   23.4301 C   0  0  0  0  0  0  0  0  0  0  0  0
   10.7288   -3.8197   19.9525 C   0  0  0  0  0  0  0  0  0  0  0  0
   10.1189   -5.0054   19.6987 C   0  0  0  0  0  0  0  0  0  0  0  0
  1  3  4  0
  1  7  4  0
  2 21  4  0
  2 27  4  0
  3  9  4  0
  3 10  4  0
  4  8  4  0
  4 18  4  0
  4 25  1  0
  5  9  4  0
  5 12  4  0
  6 13  1  0
  6 27  1  0
  7 28  4  0
  8 11  4  0
  9 29  4  0
 10 12  4  0
 11 24  1  0
 11 26  4  0
 12 25  1  0
 13 28  1  0
 14 20  4  0
 14 23  4  0
 15 17  4  0
 15 21  4  0
 16 19  4  0
 16 23  4  0
 17 22  4  0
 18 26  4  0
 19 24  4  0
 20 24  4  0
 22 27  4  0
 28 29  4  0
M  END
$$$$

 Created by Python create_sdf_string function

 29 33  0  0  0  0  0  0  0  0999 V2000
   10.7215   -3.3326   17.6437 C   0  0  0  0  0  0  0  0  0  0  0  0
    9.9489   -3.4675   24.6487 N   0  0  0  0  0  0  0  0  0  0  0  0
   10.0172   -4.4740   17.4101 C   0  0  0  0  0  0  0  0  0  0  0  0
    6.9051   -7.9575   16.4222 C   0  0  0  0  0  0  0  0  0  0  0  0
    8.9969   -6.3552   17.9668 N   0  0  0  0  0  0  0  0  0  0  0  0
   10.6702   -3.9051   22.4070 C   0  0  0  0  0  0  0  0  0  0  0  0
   11.0625   -3.0028   18.8894 C   0  0  0  0  0  0  0  0  0  0  0  0
    5.6180   -7.9194   16.1754 O   0  0  0  0  0  0  0  0  0  0  0  0
    9.7259   -5.3080   18.4485 C   0  0  0  0  0  0  0  0  0  0  0  0
    9.4578   -5.0200   16.3036 N   0  0  0  0  0  0  0  0  0  0  0  0
    5.0287   -8.9365   16.8223 C   0  0  0  0  0  0  0  0  0  0  0  0
    8.7742   -6.1498   16.6764 C   0  0  0  0  0  0  0  0  0  0  0  0
   10.9418   -3.4032   21.2053 O   0  0  0  0  0  0  0  0  0  0  0  0
    1.4797   -8.6258   16.2950 C   0  0  0  0  0  0  0  0  0  0  0  0
    9.2861   -1.2743   25.3585 C   0  0  0  0  0  0  0  0  0  0  0  0
    1.8892  -10.3985   17.7511 N   0  0  0  0  0  0  0  0  0  0  0  0
    9.6210   -0.6952   24.0976 C   0  0  0  0  0  0  0  0  0  0  0  0
    7.0792   -9.0217   17.1429 C   0  0  0  0  0  0  0  0  0  0  0  0
    3.1713  -10.1816   17.6634 C   0  0  0  0  0  0  0  0  0  0  0  0
    2.7878   -8.3822   16.2137 C   0  0  0  0  0  0  0  0  0  0  0  0
    9.4601   -2.6590   25.6528 C   0  0  0  0  0  0  0  0  0  0  0  0
   10.1182   -1.5672   23.1165 C   0  0  0  0  0  0  0  0  0  0  0  0
    1.0552   -9.6360   17.0650 C   0  0  0  0  0  0  0  0  0  0  0  0
    3.6519   -9.1783   16.9039 C   0  0  0  0  0  0  0  0  0  0  0  0
    7.8675   -7.0096   15.9415 C   0  0  0  0  0  0  0  0  0  0  0  0
    5.9733   -9.6553   17.3832 N   0  0  0  0  0  0  0  0  0  0  0  0
   10.2411   -2.9363   23.4301 C   0  0  0  0  0  0  0  0  0  0  0  0
   10.7288   -3.8197   19.9525 C   0  0  0  0  0  0  0  0  0  0  0  0
   10.1189   -5.0054   19.6987 C   0  0  0  0  0  0  0  0  0  0  0  0
  1  3  4  0
  1  7  4  0
  2 21  4  0
  2 27  4  0
  3  9  4  0
  3 10  4  0
  4  8  4  0
  4 18  4  0
  4 25  1  0
  5  9  4  0
  5 12  4  0
  6 13  1  0
  6 27  1  0
  7 28  4  0
  8 11  4  0
  9 29  4  0
 10 12  4  0
 11 24  1  0
 11 26  4  0
 12 25  1  0
 13 28  1  0
 14 20  4  0
 14 23  4  0
 15 17  4  0
 15 21  4  0
 16 19  4  0
 16 23  4  0
 17 22  4  0
 18 26  4  0
 19 24  4  0
 20 24  4  0
 22 27  4  0
 28 29  4  0
M  END
$$$$

 Created by Python create_sdf_string function

 29 33  0  0  0  0  0  0  0  0999 V2000
   10.7215   -3.3326   17.6437 C   0  0  0  0  0  0  0  0  0  0  0  0
    9.9489   -3.4675   24.6487 N   0  0  0  0  0  0  0  0  0  0  0  0
   10.0172   -4.4740   17.4101 C   0  0  0  0  0  0  0  0  0  0  0  0
    6.9051   -7.9575   16.4222 C   0  0  0  0  0  0  0  0  0  0  0  0
    8.9969   -6.3552   17.9668 N   0  0  0  0  0  0  0  0  0  0  0  0
   10.6702   -3.9051   22.4070 C   0  0  0  0  0  0  0  0  0  0  0  0
   11.0625   -3.0028   18.8894 C   0  0  0  0  0  0  0  0  0  0  0  0
    5.6180   -7.9194   16.1754 O   0  0  0  0  0  0  0  0  0  0  0  0
    9.7259   -5.3080   18.4485 C   0  0  0  0  0  0  0  0  0  0  0  0
    9.4578   -5.0200   16.3036 N   0  0  0  0  0  0  0  0  0  0  0  0
    5.0287   -8.9365   16.8223 C   0  0  0  0  0  0  0  0  0  0  0  0
    8.7742   -6.1498   16.6764 C   0  0  0  0  0  0  0  0  0  0  0  0
   10.9418   -3.4032   21.2053 O   0  0  0  0  0  0  0  0  0  0  0  0
    1.4797   -8.6258   16.2950 C   0  0  0  0  0  0  0  0  0  0  0  0
    9.2861   -1.2743   25.3585 C   0  0  0  0  0  0  0  0  0  0  0  0
    1.8892  -10.3985   17.7511 N   0  0  0  0  0  0  0  0  0  0  0  0
    9.6210   -0.6952   24.0976 C   0  0  0  0  0  0  0  0  0  0  0  0
    7.0792   -9.0217   17.1429 C   0  0  0  0  0  0  0  0  0  0  0  0
    3.1713  -10.1816   17.6634 C   0  0  0  0  0  0  0  0  0  0  0  0
    2.7878   -8.3822   16.2137 C   0  0  0  0  0  0  0  0  0  0  0  0
    9.4601   -2.6590   25.6528 C   0  0  0  0  0  0  0  0  0  0  0  0
   10.1182   -1.5672   23.1165 C   0  0  0  0  0  0  0  0  0  0  0  0
    1.0552   -9.6360   17.0650 C   0  0  0  0  0  0  0  0  0  0  0  0
    3.6519   -9.1783   16.9039 C   0  0  0  0  0  0  0  0  0  0  0  0
    7.8675   -7.0096   15.9415 C   0  0  0  0  0  0  0  0  0  0  0  0
    5.9733   -9.6553   17.3832 N   0  0  0  0  0  0  0  0  0  0  0  0
   10.2411   -2.9363   23.4301 C   0  0  0  0  0  0  0  0  0  0  0  0
   10.7288   -3.8197   19.9525 C   0  0  0  0  0  0  0  0  0  0  0  0
   10.1189   -5.0054   19.6987 C   0  0  0  0  0  0  0  0  0  0  0  0
  1  3  4  0
  1  7  4  0
  2 21  4  0
  2 27  4  0
  3  9  4  0
  3 10  4  0
  4  8  4  0
  4 18  4  0
  4 25  1  0
  5  9  4  0
  5 12  4  0
  6 13  1  0
  6 27  1  0
  7 28  4  0
  8 11  4  0
  9 29  4  0
 10 12  4  0
 11 24  1  0
 11 26  4  0
 12 25  1  0
 13 28  1  0
 14 20  4  0
 14 23  4  0
 15 17  4  0
 15 21  4  0
 16 19  4  0
 16 23  4  0
 17 22  4  0
 18 26  4  0
 19 24  4  0
 20 24  4  0
 22 27  4  0
 28 29  4  0
M  END
$$$$

 Created by Python create_sdf_string function

 29 33  0  0  0  0  0  0  0  0999 V2000
   10.7215   -3.3326   17.6437 C   0  0  0  0  0  0  0  0  0  0  0  0
    9.9489   -3.4675   24.6487 N   0  0  0  0  0  0  0  0  0  0  0  0
   10.0172   -4.4740   17.4101 C   0  0  0  0  0  0  0  0  0  0  0  0
    6.9051   -7.9575   16.4222 C   0  0  0  0  0  0  0  0  0  0  0  0
    8.9969   -6.3552   17.9668 N   0  0  0  0  0  0  0  0  0  0  0  0
   10.6702   -3.9051   22.4070 C   0  0  0  0  0  0  0  0  0  0  0  0
   11.0625   -3.0028   18.8894 C   0  0  0  0  0  0  0  0  0  0  0  0
    5.6180   -7.9194   16.1754 O   0  0  0  0  0  0  0  0  0  0  0  0
    9.7259   -5.3080   18.4485 C   0  0  0  0  0  0  0  0  0  0  0  0
    9.4578   -5.0200   16.3036 N   0  0  0  0  0  0  0  0  0  0  0  0
    5.0287   -8.9365   16.8223 C   0  0  0  0  0  0  0  0  0  0  0  0
    8.7742   -6.1498   16.6764 C   0  0  0  0  0  0  0  0  0  0  0  0
   10.9418   -3.4032   21.2053 O   0  0  0  0  0  0  0  0  0  0  0  0
    1.4797   -8.6258   16.2950 C   0  0  0  0  0  0  0  0  0  0  0  0
    9.2861   -1.2743   25.3585 C   0  0  0  0  0  0  0  0  0  0  0  0
    1.8892  -10.3985   17.7511 N   0  0  0  0  0  0  0  0  0  0  0  0
    9.6210   -0.6952   24.0976 C   0  0  0  0  0  0  0  0  0  0  0  0
    7.0792   -9.0217   17.1429 C   0  0  0  0  0  0  0  0  0  0  0  0
    3.1713  -10.1816   17.6634 C   0  0  0  0  0  0  0  0  0  0  0  0
    2.7878   -8.3822   16.2137 C   0  0  0  0  0  0  0  0  0  0  0  0
    9.4601   -2.6590   25.6528 C   0  0  0  0  0  0  0  0  0  0  0  0
   10.1182   -1.5672   23.1165 C   0  0  0  0  0  0  0  0  0  0  0  0
    1.0552   -9.6360   17.0650 C   0  0  0  0  0  0  0  0  0  0  0  0
    3.6519   -9.1783   16.9039 C   0  0  0  0  0  0  0  0  0  0  0  0
    7.8675   -7.0096   15.9415 C   0  0  0  0  0  0  0  0  0  0  0  0
    5.9733   -9.6553   17.3832 N   0  0  0  0  0  0  0  0  0  0  0  0
   10.2411   -2.9363   23.4301 C   0  0  0  0  0  0  0  0  0  0  0  0
   10.7288   -3.8197   19.9525 C   0  0  0  0  0  0  0  0  0  0  0  0
   10.1189   -5.0054   19.6987 C   0  0  0  0  0  0  0  0  0  0  0  0
  1  3  4  0
  1  7  4  0
  2 21  4  0
  2 27  4  0
  3  9  4  0
  3 10  4  0
  4  8  4  0
  4 18  4  0
  4 25  1  0
  5  9  4  0
  5 12  4  0
  6 13  1  0
  6 27  1  0
  7 28  4  0
  8 11  4  0
  9 29  4  0
 10 12  4  0
 11 24  1  0
 11 26  4  0
 12 25  1  0
 13 28  1  0
 14 20  4  0
 14 23  4  0
 15 17  4  0
 15 21  4  0
 16 19  4  0
 16 23  4  0
 17 22  4  0
 18 26  4  0
 19 24  4  0
 20 24  4  0
 22 27  4  0
 28 29  4  0
M  END
$$$$

 Created by Python create_sdf_string function

 29 33  0  0  0  0  0  0  0  0999 V2000
   10.7215   -3.3326   17.6437 C   0  0  0  0  0  0  0  0  0  0  0  0
    9.9489   -3.4675   24.6487 N   0  0  0  0  0  0  0  0  0  0  0  0
   10.0172   -4.4740   17.4101 C   0  0  0  0  0  0  0  0  0  0  0  0
    6.9051   -7.9575   16.4222 C   0  0  0  0  0  0  0  0  0  0  0  0
    8.9969   -6.3552   17.9668 N   0  0  0  0  0  0  0  0  0  0  0  0
   10.6702   -3.9051   22.4070 C   0  0  0  0  0  0  0  0  0  0  0  0
   11.0625   -3.0028   18.8894 C   0  0  0  0  0  0  0  0  0  0  0  0
    5.6180   -7.9194   16.1754 O   0  0  0  0  0  0  0  0  0  0  0  0
    9.7259   -5.3080   18.4485 C   0  0  0  0  0  0  0  0  0  0  0  0
    9.4578   -5.0200   16.3036 N   0  0  0  0  0  0  0  0  0  0  0  0
    5.0287   -8.9365   16.8223 C   0  0  0  0  0  0  0  0  0  0  0  0
    8.7742   -6.1498   16.6764 C   0  0  0  0  0  0  0  0  0  0  0  0
   10.9418   -3.4032   21.2053 O   0  0  0  0  0  0  0  0  0  0  0  0
    1.4797   -8.6258   16.2950 C   0  0  0  0  0  0  0  0  0  0  0  0
    9.2861   -1.2743   25.3585 C   0  0  0  0  0  0  0  0  0  0  0  0
    1.8892  -10.3985   17.7511 N   0  0  0  0  0  0  0  0  0  0  0  0
    9.6210   -0.6952   24.0976 C   0  0  0  0  0  0  0  0  0  0  0  0
    7.0792   -9.0217   17.1429 C   0  0  0  0  0  0  0  0  0  0  0  0
    3.1713  -10.1816   17.6634 C   0  0  0  0  0  0  0  0  0  0  0  0
    2.7878   -8.3822   16.2137 C   0  0  0  0  0  0  0  0  0  0  0  0
    9.4601   -2.6590   25.6528 C   0  0  0  0  0  0  0  0  0  0  0  0
   10.1182   -1.5672   23.1165 C   0  0  0  0  0  0  0  0  0  0  0  0
    1.0552   -9.6360   17.0650 C   0  0  0  0  0  0  0  0  0  0  0  0
    3.6519   -9.1783   16.9039 C   0  0  0  0  0  0  0  0  0  0  0  0
    7.8675   -7.0096   15.9415 C   0  0  0  0  0  0  0  0  0  0  0  0
    5.9733   -9.6553   17.3832 N   0  0  0  0  0  0  0  0  0  0  0  0
   10.2411   -2.9363   23.4301 C   0  0  0  0  0  0  0  0  0  0  0  0
   10.7288   -3.8197   19.9525 C   0  0  0  0  0  0  0  0  0  0  0  0
   10.1189   -5.0054   19.6987 C   0  0  0  0  0  0  0  0  0  0  0  0
  1  3  4  0
  1  7  4  0
  2 21  4  0
  2 27  4  0
  3  9  4  0
  3 10  4  0
  4  8  4  0
  4 18  4  0
  4 25  1  0
  5  9  4  0
  5 12  4  0
  6 13  1  0
  6 27  1  0
  7 28  4  0
  8 11  4  0
  9 29  4  0
 10 12  4  0
 11 24  1  0
 11 26  4  0
 12 25  1  0
 13 28  1  0
 14 20  4  0
 14 23  4  0
 15 17  4  0
 15 21  4  0
 16 19  4  0
 16 23  4  0
 17 22  4  0
 18 26  4  0
 19 24  4  0
 20 24  4  0
 22 27  4  0
 28 29  4  0
M  END
$$$$

 Created by Python create_sdf_string function

 29 33  0  0  0  0  0  0  0  0999 V2000
   10.7215   -3.3326   17.6437 C   0  0  0  0  0  0  0  0  0  0  0  0
    9.9489   -3.4675   24.6487 N   0  0  0  0  0  0  0  0  0  0  0  0
   10.0172   -4.4740   17.4101 C   0  0  0  0  0  0  0  0  0  0  0  0
    6.9051   -7.9575   16.4222 C   0  0  0  0  0  0  0  0  0  0  0  0
    8.9969   -6.3552   17.9668 N   0  0  0  0  0  0  0  0  0  0  0  0
   10.6702   -3.9051   22.4070 C   0  0  0  0  0  0  0  0  0  0  0  0
   11.0625   -3.0028   18.8894 C   0  0  0  0  0  0  0  0  0  0  0  0
    5.6180   -7.9194   16.1754 O   0  0  0  0  0  0  0  0  0  0  0  0
    9.7259   -5.3080   18.4485 C   0  0  0  0  0  0  0  0  0  0  0  0
    9.4578   -5.0200   16.3036 N   0  0  0  0  0  0  0  0  0  0  0  0
    5.0287   -8.9365   16.8223 C   0  0  0  0  0  0  0  0  0  0  0  0
    8.7742   -6.1498   16.6764 C   0  0  0  0  0  0  0  0  0  0  0  0
   10.9418   -3.4032   21.2053 O   0  0  0  0  0  0  0  0  0  0  0  0
    1.4797   -8.6258   16.2950 C   0  0  0  0  0  0  0  0  0  0  0  0
    9.2861   -1.2743   25.3585 C   0  0  0  0  0  0  0  0  0  0  0  0
    1.8892  -10.3985   17.7511 N   0  0  0  0  0  0  0  0  0  0  0  0
    9.6210   -0.6952   24.0976 C   0  0  0  0  0  0  0  0  0  0  0  0
    7.0792   -9.0217   17.1429 C   0  0  0  0  0  0  0  0  0  0  0  0
    3.1713  -10.1816   17.6634 C   0  0  0  0  0  0  0  0  0  0  0  0
    2.7878   -8.3822   16.2137 C   0  0  0  0  0  0  0  0  0  0  0  0
    9.4601   -2.6590   25.6528 C   0  0  0  0  0  0  0  0  0  0  0  0
   10.1182   -1.5672   23.1165 C   0  0  0  0  0  0  0  0  0  0  0  0
    1.0552   -9.6360   17.0650 C   0  0  0  0  0  0  0  0  0  0  0  0
    3.6519   -9.1783   16.9039 C   0  0  0  0  0  0  0  0  0  0  0  0
    7.8675   -7.0096   15.9415 C   0  0  0  0  0  0  0  0  0  0  0  0
    5.9733   -9.6553   17.3832 N   0  0  0  0  0  0  0  0  0  0  0  0
   10.2411   -2.9363   23.4301 C   0  0  0  0  0  0  0  0  0  0  0  0
   10.7288   -3.8197   19.9525 C   0  0  0  0  0  0  0  0  0  0  0  0
   10.1189   -5.0054   19.6987 C   0  0  0  0  0  0  0  0  0  0  0  0
  1  3  4  0
  1  7  4  0
  2 21  4  0
  2 27  4  0
  3  9  4  0
  3 10  4  0
  4  8  4  0
  4 18  4  0
  4 25  1  0
  5  9  4  0
  5 12  4  0
  6 13  1  0
  6 27  1  0
  7 28  4  0
  8 11  4  0
  9 29  4  0
 10 12  4  0
 11 24  1  0
 11 26  4  0
 12 25  1  0
 13 28  1  0
 14 20  4  0
 14 23  4  0
 15 17  4  0
 15 21  4  0
 16 19  4  0
 16 23  4  0
 17 22  4  0
 18 26  4  0
 19 24  4  0
 20 24  4  0
 22 27  4  0
 28 29  4  0
M  END
$$$$

 Created by Python create_sdf_string function

 29 33  0  0  0  0  0  0  0  0999 V2000
   10.7215   -3.3326   17.6437 C   0  0  0  0  0  0  0  0  0  0  0  0
    9.9489   -3.4675   24.6487 N   0  0  0  0  0  0  0  0  0  0  0  0
   10.0172   -4.4740   17.4101 C   0  0  0  0  0  0  0  0  0  0  0  0
    6.9051   -7.9575   16.4222 C   0  0  0  0  0  0  0  0  0  0  0  0
    8.9969   -6.3552   17.9668 N   0  0  0  0  0  0  0  0  0  0  0  0
   10.6702   -3.9051   22.4070 C   0  0  0  0  0  0  0  0  0  0  0  0
   11.0625   -3.0028   18.8894 C   0  0  0  0  0  0  0  0  0  0  0  0
    5.6180   -7.9194   16.1754 O   0  0  0  0  0  0  0  0  0  0  0  0
    9.7259   -5.3080   18.4485 C   0  0  0  0  0  0  0  0  0  0  0  0
    9.4578   -5.0200   16.3036 N   0  0  0  0  0  0  0  0  0  0  0  0
    5.0287   -8.9365   16.8223 C   0  0  0  0  0  0  0  0  0  0  0  0
    8.7742   -6.1498   16.6764 C   0  0  0  0  0  0  0  0  0  0  0  0
   10.9418   -3.4032   21.2053 O   0  0  0  0  0  0  0  0  0  0  0  0
    1.4797   -8.6258   16.2950 C   0  0  0  0  0  0  0  0  0  0  0  0
    9.2861   -1.2743   25.3585 C   0  0  0  0  0  0  0  0  0  0  0  0
    1.8892  -10.3985   17.7511 N   0  0  0  0  0  0  0  0  0  0  0  0
    9.6210   -0.6952   24.0976 C   0  0  0  0  0  0  0  0  0  0  0  0
    7.0792   -9.0217   17.1429 C   0  0  0  0  0  0  0  0  0  0  0  0
    3.1713  -10.1816   17.6634 C   0  0  0  0  0  0  0  0  0  0  0  0
    2.7878   -8.3822   16.2137 C   0  0  0  0  0  0  0  0  0  0  0  0
    9.4601   -2.6590   25.6528 C   0  0  0  0  0  0  0  0  0  0  0  0
   10.1182   -1.5672   23.1165 C   0  0  0  0  0  0  0  0  0  0  0  0
    1.0552   -9.6360   17.0650 C   0  0  0  0  0  0  0  0  0  0  0  0
    3.6519   -9.1783   16.9039 C   0  0  0  0  0  0  0  0  0  0  0  0
    7.8675   -7.0096   15.9415 C   0  0  0  0  0  0  0  0  0  0  0  0
    5.9733   -9.6553   17.3832 N   0  0  0  0  0  0  0  0  0  0  0  0
   10.2411   -2.9363   23.4301 C   0  0  0  0  0  0  0  0  0  0  0  0
   10.7288   -3.8197   19.9525 C   0  0  0  0  0  0  0  0  0  0  0  0
   10.1189   -5.0054   19.6987 C   0  0  0  0  0  0  0  0  0  0  0  0
  1  3  4  0
  1  7  4  0
  2 21  4  0
  2 27  4  0
  3  9  4  0
  3 10  4  0
  4  8  4  0
  4 18  4  0
  4 25  1  0
  5  9  4  0
  5 12  4  0
  6 13  1  0
  6 27  1  0
  7 28  4  0
  8 11  4  0
  9 29  4  0
 10 12  4  0
 11 24  1  0
 11 26  4  0
 12 25  1  0
 13 28  1  0
 14 20  4  0
 14 23  4  0
 15 17  4  0
 15 21  4  0
 16 19  4  0
 16 23  4  0
 17 22  4  0
 18 26  4  0
 19 24  4  0
 20 24  4  0
 22 27  4  0
 28 29  4  0
M  END
$$$$

 Created by Python create_sdf_string function

 29 33  0  0  0  0  0  0  0  0999 V2000
   10.7215   -3.3326   17.6437 C   0  0  0  0  0  0  0  0  0  0  0  0
    9.9489   -3.4675   24.6487 N   0  0  0  0  0  0  0  0  0  0  0  0
   10.0172   -4.4740   17.4101 C   0  0  0  0  0  0  0  0  0  0  0  0
    6.9051   -7.9575   16.4222 C   0  0  0  0  0  0  0  0  0  0  0  0
    8.9969   -6.3552   17.9668 N   0  0  0  0  0  0  0  0  0  0  0  0
   10.6702   -3.9051   22.4070 C   0  0  0  0  0  0  0  0  0  0  0  0
   11.0625   -3.0028   18.8894 C   0  0  0  0  0  0  0  0  0  0  0  0
    5.6180   -7.9194   16.1754 O   0  0  0  0  0  0  0  0  0  0  0  0
    9.7259   -5.3080   18.4485 C   0  0  0  0  0  0  0  0  0  0  0  0
    9.4578   -5.0200   16.3036 N   0  0  0  0  0  0  0  0  0  0  0  0
    5.0287   -8.9365   16.8223 C   0  0  0  0  0  0  0  0  0  0  0  0
    8.7742   -6.1498   16.6764 C   0  0  0  0  0  0  0  0  0  0  0  0
   10.9418   -3.4032   21.2053 O   0  0  0  0  0  0  0  0  0  0  0  0
    1.4797   -8.6258   16.2950 C   0  0  0  0  0  0  0  0  0  0  0  0
    9.2861   -1.2743   25.3585 C   0  0  0  0  0  0  0  0  0  0  0  0
    1.8892  -10.3985   17.7511 N   0  0  0  0  0  0  0  0  0  0  0  0
    9.6210   -0.6952   24.0976 C   0  0  0  0  0  0  0  0  0  0  0  0
    7.0792   -9.0217   17.1429 C   0  0  0  0  0  0  0  0  0  0  0  0
    3.1713  -10.1816   17.6634 C   0  0  0  0  0  0  0  0  0  0  0  0
    2.7878   -8.3822   16.2137 C   0  0  0  0  0  0  0  0  0  0  0  0
    9.4601   -2.6590   25.6528 C   0  0  0  0  0  0  0  0  0  0  0  0
   10.1182   -1.5672   23.1165 C   0  0  0  0  0  0  0  0  0  0  0  0
    1.0552   -9.6360   17.0650 C   0  0  0  0  0  0  0  0  0  0  0  0
    3.6519   -9.1783   16.9039 C   0  0  0  0  0  0  0  0  0  0  0  0
    7.8675   -7.0096   15.9415 C   0  0  0  0  0  0  0  0  0  0  0  0
    5.9733   -9.6553   17.3832 N   0  0  0  0  0  0  0  0  0  0  0  0
   10.2411   -2.9363   23.4301 C   0  0  0  0  0  0  0  0  0  0  0  0
   10.7288   -3.8197   19.9525 C   0  0  0  0  0  0  0  0  0  0  0  0
   10.1189   -5.0054   19.6987 C   0  0  0  0  0  0  0  0  0  0  0  0
  1  3  4  0
  1  7  4  0
  2 21  4  0
  2 27  4  0
  3  9  4  0
  3 10  4  0
  4  8  4  0
  4 18  4  0
  4 25  1  0
  5  9  4  0
  5 12  4  0
  6 13  1  0
  6 27  1  0
  7 28  4  0
  8 11  4  0
  9 29  4  0
 10 12  4  0
 11 24  1  0
 11 26  4  0
 12 25  1  0
 13 28  1  0
 14 20  4  0
 14 23  4  0
 15 17  4  0
 15 21  4  0
 16 19  4  0
 16 23  4  0
 17 22  4  0
 18 26  4  0
 19 24  4  0
 20 24  4  0
 22 27  4  0
 28 29  4  0
M  END
$$$$

 Created by Python create_sdf_string function

 29 33  0  0  0  0  0  0  0  0999 V2000
   10.7215   -3.3326   17.6437 C   0  0  0  0  0  0  0  0  0  0  0  0
    9.9489   -3.4675   24.6487 N   0  0  0  0  0  0  0  0  0  0  0  0
   10.0172   -4.4740   17.4101 C   0  0  0  0  0  0  0  0  0  0  0  0
    6.9051   -7.9575   16.4222 C   0  0  0  0  0  0  0  0  0  0  0  0
    8.9969   -6.3552   17.9668 N   0  0  0  0  0  0  0  0  0  0  0  0
   10.6702   -3.9051   22.4070 C   0  0  0  0  0  0  0  0  0  0  0  0
   11.0625   -3.0028   18.8894 C   0  0  0  0  0  0  0  0  0  0  0  0
    5.6180   -7.9194   16.1754 O   0  0  0  0  0  0  0  0  0  0  0  0
    9.7259   -5.3080   18.4485 C   0  0  0  0  0  0  0  0  0  0  0  0
    9.4578   -5.0200   16.3036 N   0  0  0  0  0  0  0  0  0  0  0  0
    5.0287   -8.9365   16.8223 C   0  0  0  0  0  0  0  0  0  0  0  0
    8.7742   -6.1498   16.6764 C   0  0  0  0  0  0  0  0  0  0  0  0
   10.9418   -3.4032   21.2053 O   0  0  0  0  0  0  0  0  0  0  0  0
    1.4797   -8.6258   16.2950 C   0  0  0  0  0  0  0  0  0  0  0  0
    9.2861   -1.2743   25.3585 C   0  0  0  0  0  0  0  0  0  0  0  0
    1.8892  -10.3985   17.7511 N   0  0  0  0  0  0  0  0  0  0  0  0
    9.6210   -0.6952   24.0976 C   0  0  0  0  0  0  0  0  0  0  0  0
    7.0792   -9.0217   17.1429 C   0  0  0  0  0  0  0  0  0  0  0  0
    3.1713  -10.1816   17.6634 C   0  0  0  0  0  0  0  0  0  0  0  0
    2.7878   -8.3822   16.2137 C   0  0  0  0  0  0  0  0  0  0  0  0
    9.4601   -2.6590   25.6528 C   0  0  0  0  0  0  0  0  0  0  0  0
   10.1182   -1.5672   23.1165 C   0  0  0  0  0  0  0  0  0  0  0  0
    1.0552   -9.6360   17.0650 C   0  0  0  0  0  0  0  0  0  0  0  0
    3.6519   -9.1783   16.9039 C   0  0  0  0  0  0  0  0  0  0  0  0
    7.8675   -7.0096   15.9415 C   0  0  0  0  0  0  0  0  0  0  0  0
    5.9733   -9.6553   17.3832 N   0  0  0  0  0  0  0  0  0  0  0  0
   10.2411   -2.9363   23.4301 C   0  0  0  0  0  0  0  0  0  0  0  0
   10.7288   -3.8197   19.9525 C   0  0  0  0  0  0  0  0  0  0  0  0
   10.1189   -5.0054   19.6987 C   0  0  0  0  0  0  0  0  0  0  0  0
  1  3  4  0
  1  7  4  0
  2 21  4  0
  2 27  4  0
  3  9  4  0
  3 10  4  0
  4  8  4  0
  4 18  4  0
  4 25  1  0
  5  9  4  0
  5 12  4  0
  6 13  1  0
  6 27  1  0
  7 28  4  0
  8 11  4  0
  9 29  4  0
 10 12  4  0
 11 24  1  0
 11 26  4  0
 12 25  1  0
 13 28  1  0
 14 20  4  0
 14 23  4  0
 15 17  4  0
 15 21  4  0
 16 19  4  0
 16 23  4  0
 17 22  4  0
 18 26  4  0
 19 24  4  0
 20 24  4  0
 22 27  4  0
 28 29  4  0
M  END
$$$$

 Created by Python create_sdf_string function

 29 33  0  0  0  0  0  0  0  0999 V2000
   10.7215   -3.3326   17.6437 C   0  0  0  0  0  0  0  0  0  0  0  0
    9.9489   -3.4675   24.6487 N   0  0  0  0  0  0  0  0  0  0  0  0
   10.0172   -4.4740   17.4101 C   0  0  0  0  0  0  0  0  0  0  0  0
    6.9051   -7.9575   16.4222 C   0  0  0  0  0  0  0  0  0  0  0  0
    8.9969   -6.3552   17.9668 N   0  0  0  0  0  0  0  0  0  0  0  0
   10.6702   -3.9051   22.4070 C   0  0  0  0  0  0  0  0  0  0  0  0
   11.0625   -3.0028   18.8894 C   0  0  0  0  0  0  0  0  0  0  0  0
    5.6180   -7.9194   16.1754 O   0  0  0  0  0  0  0  0  0  0  0  0
    9.7259   -5.3080   18.4485 C   0  0  0  0  0  0  0  0  0  0  0  0
    9.4578   -5.0200   16.3036 N   0  0  0  0  0  0  0  0  0  0  0  0
    5.0287   -8.9365   16.8223 C   0  0  0  0  0  0  0  0  0  0  0  0
    8.7742   -6.1498   16.6764 C   0  0  0  0  0  0  0  0  0  0  0  0
   10.9418   -3.4032   21.2053 O   0  0  0  0  0  0  0  0  0  0  0  0
    1.4797   -8.6258   16.2950 C   0  0  0  0  0  0  0  0  0  0  0  0
    9.2861   -1.2743   25.3585 C   0  0  0  0  0  0  0  0  0  0  0  0
    1.8892  -10.3985   17.7511 N   0  0  0  0  0  0  0  0  0  0  0  0
    9.6210   -0.6952   24.0976 C   0  0  0  0  0  0  0  0  0  0  0  0
    7.0792   -9.0217   17.1429 C   0  0  0  0  0  0  0  0  0  0  0  0
    3.1713  -10.1816   17.6634 C   0  0  0  0  0  0  0  0  0  0  0  0
    2.7878   -8.3822   16.2137 C   0  0  0  0  0  0  0  0  0  0  0  0
    9.4601   -2.6590   25.6528 C   0  0  0  0  0  0  0  0  0  0  0  0
   10.1182   -1.5672   23.1165 C   0  0  0  0  0  0  0  0  0  0  0  0
    1.0552   -9.6360   17.0650 C   0  0  0  0  0  0  0  0  0  0  0  0
    3.6519   -9.1783   16.9039 C   0  0  0  0  0  0  0  0  0  0  0  0
    7.8675   -7.0096   15.9415 C   0  0  0  0  0  0  0  0  0  0  0  0
    5.9733   -9.6553   17.3832 N   0  0  0  0  0  0  0  0  0  0  0  0
   10.2411   -2.9363   23.4301 C   0  0  0  0  0  0  0  0  0  0  0  0
   10.7288   -3.8197   19.9525 C   0  0  0  0  0  0  0  0  0  0  0  0
   10.1189   -5.0054   19.6987 C   0  0  0  0  0  0  0  0  0  0  0  0
  1  3  4  0
  1  7  4  0
  2 21  4  0
  2 27  4  0
  3  9  4  0
  3 10  4  0
  4  8  4  0
  4 18  4  0
  4 25  1  0
  5  9  4  0
  5 12  4  0
  6 13  1  0
  6 27  1  0
  7 28  4  0
  8 11  4  0
  9 29  4  0
 10 12  4  0
 11 24  1  0
 11 26  4  0
 12 25  1  0
 13 28  1  0
 14 20  4  0
 14 23  4  0
 15 17  4  0
 15 21  4  0
 16 19  4  0
 16 23  4  0
 17 22  4  0
 18 26  4  0
 19 24  4  0
 20 24  4  0
 22 27  4  0
 28 29  4  0
M  END
$$$$

 Created by Python create_sdf_string function

 29 33  0  0  0  0  0  0  0  0999 V2000
   10.7215   -3.3326   17.6437 C   0  0  0  0  0  0  0  0  0  0  0  0
    9.9489   -3.4675   24.6487 N   0  0  0  0  0  0  0  0  0  0  0  0
   10.0172   -4.4740   17.4101 C   0  0  0  0  0  0  0  0  0  0  0  0
    6.9051   -7.9575   16.4222 C   0  0  0  0  0  0  0  0  0  0  0  0
    8.9969   -6.3552   17.9668 N   0  0  0  0  0  0  0  0  0  0  0  0
   10.6702   -3.9051   22.4070 C   0  0  0  0  0  0  0  0  0  0  0  0
   11.0625   -3.0028   18.8894 C   0  0  0  0  0  0  0  0  0  0  0  0
    5.6180   -7.9194   16.1754 O   0  0  0  0  0  0  0  0  0  0  0  0
    9.7259   -5.3080   18.4485 C   0  0  0  0  0  0  0  0  0  0  0  0
    9.4578   -5.0200   16.3036 N   0  0  0  0  0  0  0  0  0  0  0  0
    5.0287   -8.9365   16.8223 C   0  0  0  0  0  0  0  0  0  0  0  0
    8.7742   -6.1498   16.6764 C   0  0  0  0  0  0  0  0  0  0  0  0
   10.9418   -3.4032   21.2053 O   0  0  0  0  0  0  0  0  0  0  0  0
    1.4797   -8.6258   16.2950 C   0  0  0  0  0  0  0  0  0  0  0  0
    9.2861   -1.2743   25.3585 C   0  0  0  0  0  0  0  0  0  0  0  0
    1.8892  -10.3985   17.7511 N   0  0  0  0  0  0  0  0  0  0  0  0
    9.6210   -0.6952   24.0976 C   0  0  0  0  0  0  0  0  0  0  0  0
    7.0792   -9.0217   17.1429 C   0  0  0  0  0  0  0  0  0  0  0  0
    3.1713  -10.1816   17.6634 C   0  0  0  0  0  0  0  0  0  0  0  0
    2.7878   -8.3822   16.2137 C   0  0  0  0  0  0  0  0  0  0  0  0
    9.4601   -2.6590   25.6528 C   0  0  0  0  0  0  0  0  0  0  0  0
   10.1182   -1.5672   23.1165 C   0  0  0  0  0  0  0  0  0  0  0  0
    1.0552   -9.6360   17.0650 C   0  0  0  0  0  0  0  0  0  0  0  0
    3.6519   -9.1783   16.9039 C   0  0  0  0  0  0  0  0  0  0  0  0
    7.8675   -7.0096   15.9415 C   0  0  0  0  0  0  0  0  0  0  0  0
    5.9733   -9.6553   17.3832 N   0  0  0  0  0  0  0  0  0  0  0  0
   10.2411   -2.9363   23.4301 C   0  0  0  0  0  0  0  0  0  0  0  0
   10.7288   -3.8197   19.9525 C   0  0  0  0  0  0  0  0  0  0  0  0
   10.1189   -5.0054   19.6987 C   0  0  0  0  0  0  0  0  0  0  0  0
  1  3  4  0
  1  7  4  0
  2 21  4  0
  2 27  4  0
  3  9  4  0
  3 10  4  0
  4  8  4  0
  4 18  4  0
  4 25  1  0
  5  9  4  0
  5 12  4  0
  6 13  1  0
  6 27  1  0
  7 28  4  0
  8 11  4  0
  9 29  4  0
 10 12  4  0
 11 24  1  0
 11 26  4  0
 12 25  1  0
 13 28  1  0
 14 20  4  0
 14 23  4  0
 15 17  4  0
 15 21  4  0
 16 19  4  0
 16 23  4  0
 17 22  4  0
 18 26  4  0
 19 24  4  0
 20 24  4  0
 22 27  4  0
 28 29  4  0
M  END
$$$$

 Created by Python create_sdf_string function

 29 33  0  0  0  0  0  0  0  0999 V2000
   10.7215   -3.3326   17.6437 C   0  0  0  0  0  0  0  0  0  0  0  0
    9.9489   -3.4675   24.6487 N   0  0  0  0  0  0  0  0  0  0  0  0
   10.0172   -4.4740   17.4101 C   0  0  0  0  0  0  0  0  0  0  0  0
    6.9051   -7.9575   16.4222 C   0  0  0  0  0  0  0  0  0  0  0  0
    8.9969   -6.3552   17.9668 N   0  0  0  0  0  0  0  0  0  0  0  0
   10.6702   -3.9051   22.4070 C   0  0  0  0  0  0  0  0  0  0  0  0
   11.0625   -3.0028   18.8894 C   0  0  0  0  0  0  0  0  0  0  0  0
    5.6180   -7.9194   16.1754 O   0  0  0  0  0  0  0  0  0  0  0  0
    9.7259   -5.3080   18.4485 C   0  0  0  0  0  0  0  0  0  0  0  0
    9.4578   -5.0200   16.3036 N   0  0  0  0  0  0  0  0  0  0  0  0
    5.0287   -8.9365   16.8223 C   0  0  0  0  0  0  0  0  0  0  0  0
    8.7742   -6.1498   16.6764 C   0  0  0  0  0  0  0  0  0  0  0  0
   10.9418   -3.4032   21.2053 O   0  0  0  0  0  0  0  0  0  0  0  0
    1.4797   -8.6258   16.2950 C   0  0  0  0  0  0  0  0  0  0  0  0
    9.2861   -1.2743   25.3585 C   0  0  0  0  0  0  0  0  0  0  0  0
    1.8892  -10.3985   17.7511 N   0  0  0  0  0  0  0  0  0  0  0  0
    9.6210   -0.6952   24.0976 C   0  0  0  0  0  0  0  0  0  0  0  0
    7.0792   -9.0217   17.1429 C   0  0  0  0  0  0  0  0  0  0  0  0
    3.1713  -10.1816   17.6634 C   0  0  0  0  0  0  0  0  0  0  0  0
    2.7878   -8.3822   16.2137 C   0  0  0  0  0  0  0  0  0  0  0  0
    9.4601   -2.6590   25.6528 C   0  0  0  0  0  0  0  0  0  0  0  0
   10.1182   -1.5672   23.1165 C   0  0  0  0  0  0  0  0  0  0  0  0
    1.0552   -9.6360   17.0650 C   0  0  0  0  0  0  0  0  0  0  0  0
    3.6519   -9.1783   16.9039 C   0  0  0  0  0  0  0  0  0  0  0  0
    7.8675   -7.0096   15.9415 C   0  0  0  0  0  0  0  0  0  0  0  0
    5.9733   -9.6553   17.3832 N   0  0  0  0  0  0  0  0  0  0  0  0
   10.2411   -2.9363   23.4301 C   0  0  0  0  0  0  0  0  0  0  0  0
   10.7288   -3.8197   19.9525 C   0  0  0  0  0  0  0  0  0  0  0  0
   10.1189   -5.0054   19.6987 C   0  0  0  0  0  0  0  0  0  0  0  0
  1  3  4  0
  1  7  4  0
  2 21  4  0
  2 27  4  0
  3  9  4  0
  3 10  4  0
  4  8  4  0
  4 18  4  0
  4 25  1  0
  5  9  4  0
  5 12  4  0
  6 13  1  0
  6 27  1  0
  7 28  4  0
  8 11  4  0
  9 29  4  0
 10 12  4  0
 11 24  1  0
 11 26  4  0
 12 25  1  0
 13 28  1  0
 14 20  4  0
 14 23  4  0
 15 17  4  0
 15 21  4  0
 16 19  4  0
 16 23  4  0
 17 22  4  0
 18 26  4  0
 19 24  4  0
 20 24  4  0
 22 27  4  0
 28 29  4  0
M  END
$$$$

 Created by Python create_sdf_string function

 29 33  0  0  0  0  0  0  0  0999 V2000
   10.7215   -3.3326   17.6437 C   0  0  0  0  0  0  0  0  0  0  0  0
    9.9489   -3.4675   24.6487 N   0  0  0  0  0  0  0  0  0  0  0  0
   10.0172   -4.4740   17.4101 C   0  0  0  0  0  0  0  0  0  0  0  0
    6.9051   -7.9575   16.4222 C   0  0  0  0  0  0  0  0  0  0  0  0
    8.9969   -6.3552   17.9668 N   0  0  0  0  0  0  0  0  0  0  0  0
   10.6702   -3.9051   22.4070 C   0  0  0  0  0  0  0  0  0  0  0  0
   11.0625   -3.0028   18.8894 C   0  0  0  0  0  0  0  0  0  0  0  0
    5.6180   -7.9194   16.1754 O   0  0  0  0  0  0  0  0  0  0  0  0
    9.7259   -5.3080   18.4485 C   0  0  0  0  0  0  0  0  0  0  0  0
    9.4578   -5.0200   16.3036 N   0  0  0  0  0  0  0  0  0  0  0  0
    5.0287   -8.9365   16.8223 C   0  0  0  0  0  0  0  0  0  0  0  0
    8.7742   -6.1498   16.6764 C   0  0  0  0  0  0  0  0  0  0  0  0
   10.9418   -3.4032   21.2053 O   0  0  0  0  0  0  0  0  0  0  0  0
    1.4797   -8.6258   16.2950 C   0  0  0  0  0  0  0  0  0  0  0  0
    9.2861   -1.2743   25.3585 C   0  0  0  0  0  0  0  0  0  0  0  0
    1.8892  -10.3985   17.7511 N   0  0  0  0  0  0  0  0  0  0  0  0
    9.6210   -0.6952   24.0976 C   0  0  0  0  0  0  0  0  0  0  0  0
    7.0792   -9.0217   17.1429 C   0  0  0  0  0  0  0  0  0  0  0  0
    3.1713  -10.1816   17.6634 C   0  0  0  0  0  0  0  0  0  0  0  0
    2.7878   -8.3822   16.2137 C   0  0  0  0  0  0  0  0  0  0  0  0
    9.4601   -2.6590   25.6528 C   0  0  0  0  0  0  0  0  0  0  0  0
   10.1182   -1.5672   23.1165 C   0  0  0  0  0  0  0  0  0  0  0  0
    1.0552   -9.6360   17.0650 C   0  0  0  0  0  0  0  0  0  0  0  0
    3.6519   -9.1783   16.9039 C   0  0  0  0  0  0  0  0  0  0  0  0
    7.8675   -7.0096   15.9415 C   0  0  0  0  0  0  0  0  0  0  0  0
    5.9733   -9.6553   17.3832 N   0  0  0  0  0  0  0  0  0  0  0  0
   10.2411   -2.9363   23.4301 C   0  0  0  0  0  0  0  0  0  0  0  0
   10.7288   -3.8197   19.9525 C   0  0  0  0  0  0  0  0  0  0  0  0
   10.1189   -5.0054   19.6987 C   0  0  0  0  0  0  0  0  0  0  0  0
  1  3  4  0
  1  7  4  0
  2 21  4  0
  2 27  4  0
  3  9  4  0
  3 10  4  0
  4  8  4  0
  4 18  4  0
  4 25  1  0
  5  9  4  0
  5 12  4  0
  6 13  1  0
  6 27  1  0
  7 28  4  0
  8 11  4  0
  9 29  4  0
 10 12  4  0
 11 24  1  0
 11 26  4  0
 12 25  1  0
 13 28  1  0
 14 20  4  0
 14 23  4  0
 15 17  4  0
 15 21  4  0
 16 19  4  0
 16 23  4  0
 17 22  4  0
 18 26  4  0
 19 24  4  0
 20 24  4  0
 22 27  4  0
 28 29  4  0
M  END
$$$$

 Created by Python create_sdf_string function

 29 33  0  0  0  0  0  0  0  0999 V2000
   10.7215   -3.3326   17.6437 C   0  0  0  0  0  0  0  0  0  0  0  0
    9.9489   -3.4675   24.6487 N   0  0  0  0  0  0  0  0  0  0  0  0
   10.0172   -4.4740   17.4101 C   0  0  0  0  0  0  0  0  0  0  0  0
    6.9051   -7.9575   16.4222 C   0  0  0  0  0  0  0  0  0  0  0  0
    8.9969   -6.3552   17.9668 N   0  0  0  0  0  0  0  0  0  0  0  0
   10.6702   -3.9051   22.4070 C   0  0  0  0  0  0  0  0  0  0  0  0
   11.0625   -3.0028   18.8894 C   0  0  0  0  0  0  0  0  0  0  0  0
    5.6180   -7.9194   16.1754 O   0  0  0  0  0  0  0  0  0  0  0  0
    9.7259   -5.3080   18.4485 C   0  0  0  0  0  0  0  0  0  0  0  0
    9.4578   -5.0200   16.3036 N   0  0  0  0  0  0  0  0  0  0  0  0
    5.0287   -8.9365   16.8223 C   0  0  0  0  0  0  0  0  0  0  0  0
    8.7742   -6.1498   16.6764 C   0  0  0  0  0  0  0  0  0  0  0  0
   10.9418   -3.4032   21.2053 O   0  0  0  0  0  0  0  0  0  0  0  0
    1.4797   -8.6258   16.2950 C   0  0  0  0  0  0  0  0  0  0  0  0
    9.2861   -1.2743   25.3585 C   0  0  0  0  0  0  0  0  0  0  0  0
    1.8892  -10.3985   17.7511 N   0  0  0  0  0  0  0  0  0  0  0  0
    9.6210   -0.6952   24.0976 C   0  0  0  0  0  0  0  0  0  0  0  0
    7.0792   -9.0217   17.1429 C   0  0  0  0  0  0  0  0  0  0  0  0
    3.1713  -10.1816   17.6634 C   0  0  0  0  0  0  0  0  0  0  0  0
    2.7878   -8.3822   16.2137 C   0  0  0  0  0  0  0  0  0  0  0  0
    9.4601   -2.6590   25.6528 C   0  0  0  0  0  0  0  0  0  0  0  0
   10.1182   -1.5672   23.1165 C   0  0  0  0  0  0  0  0  0  0  0  0
    1.0552   -9.6360   17.0650 C   0  0  0  0  0  0  0  0  0  0  0  0
    3.6519   -9.1783   16.9039 C   0  0  0  0  0  0  0  0  0  0  0  0
    7.8675   -7.0096   15.9415 C   0  0  0  0  0  0  0  0  0  0  0  0
    5.9733   -9.6553   17.3832 N   0  0  0  0  0  0  0  0  0  0  0  0
   10.2411   -2.9363   23.4301 C   0  0  0  0  0  0  0  0  0  0  0  0
   10.7288   -3.8197   19.9525 C   0  0  0  0  0  0  0  0  0  0  0  0
   10.1189   -5.0054   19.6987 C   0  0  0  0  0  0  0  0  0  0  0  0
  1  3  4  0
  1  7  4  0
  2 21  4  0
  2 27  4  0
  3  9  4  0
  3 10  4  0
  4  8  4  0
  4 18  4  0
  4 25  1  0
  5  9  4  0
  5 12  4  0
  6 13  1  0
  6 27  1  0
  7 28  4  0
  8 11  4  0
  9 29  4  0
 10 12  4  0
 11 24  1  0
 11 26  4  0
 12 25  1  0
 13 28  1  0
 14 20  4  0
 14 23  4  0
 15 17  4  0
 15 21  4  0
 16 19  4  0
 16 23  4  0
 17 22  4  0
 18 26  4  0
 19 24  4  0
 20 24  4  0
 22 27  4  0
 28 29  4  0
M  END
$$$$

 Created by Python create_sdf_string function

 29 33  0  0  0  0  0  0  0  0999 V2000
   10.7215   -3.3326   17.6437 C   0  0  0  0  0  0  0  0  0  0  0  0
    9.9489   -3.4675   24.6487 N   0  0  0  0  0  0  0  0  0  0  0  0
   10.0172   -4.4740   17.4101 C   0  0  0  0  0  0  0  0  0  0  0  0
    6.9051   -7.9575   16.4222 C   0  0  0  0  0  0  0  0  0  0  0  0
    8.9969   -6.3552   17.9668 N   0  0  0  0  0  0  0  0  0  0  0  0
   10.6702   -3.9051   22.4070 C   0  0  0  0  0  0  0  0  0  0  0  0
   11.0625   -3.0028   18.8894 C   0  0  0  0  0  0  0  0  0  0  0  0
    5.6180   -7.9194   16.1754 O   0  0  0  0  0  0  0  0  0  0  0  0
    9.7259   -5.3080   18.4485 C   0  0  0  0  0  0  0  0  0  0  0  0
    9.4578   -5.0200   16.3036 N   0  0  0  0  0  0  0  0  0  0  0  0
    5.0287   -8.9365   16.8223 C   0  0  0  0  0  0  0  0  0  0  0  0
    8.7742   -6.1498   16.6764 C   0  0  0  0  0  0  0  0  0  0  0  0
   10.9418   -3.4032   21.2053 O   0  0  0  0  0  0  0  0  0  0  0  0
    1.4797   -8.6258   16.2950 C   0  0  0  0  0  0  0  0  0  0  0  0
    9.2861   -1.2743   25.3585 C   0  0  0  0  0  0  0  0  0  0  0  0
    1.8892  -10.3985   17.7511 N   0  0  0  0  0  0  0  0  0  0  0  0
    9.6210   -0.6952   24.0976 C   0  0  0  0  0  0  0  0  0  0  0  0
    7.0792   -9.0217   17.1429 C   0  0  0  0  0  0  0  0  0  0  0  0
    3.1713  -10.1816   17.6634 C   0  0  0  0  0  0  0  0  0  0  0  0
    2.7878   -8.3822   16.2137 C   0  0  0  0  0  0  0  0  0  0  0  0
    9.4601   -2.6590   25.6528 C   0  0  0  0  0  0  0  0  0  0  0  0
   10.1182   -1.5672   23.1165 C   0  0  0  0  0  0  0  0  0  0  0  0
    1.0552   -9.6360   17.0650 C   0  0  0  0  0  0  0  0  0  0  0  0
    3.6519   -9.1783   16.9039 C   0  0  0  0  0  0  0  0  0  0  0  0
    7.8675   -7.0096   15.9415 C   0  0  0  0  0  0  0  0  0  0  0  0
    5.9733   -9.6553   17.3832 N   0  0  0  0  0  0  0  0  0  0  0  0
   10.2411   -2.9363   23.4301 C   0  0  0  0  0  0  0  0  0  0  0  0
   10.7288   -3.8197   19.9525 C   0  0  0  0  0  0  0  0  0  0  0  0
   10.1189   -5.0054   19.6987 C   0  0  0  0  0  0  0  0  0  0  0  0
  1  3  4  0
  1  7  4  0
  2 21  4  0
  2 27  4  0
  3  9  4  0
  3 10  4  0
  4  8  4  0
  4 18  4  0
  4 25  1  0
  5  9  4  0
  5 12  4  0
  6 13  1  0
  6 27  1  0
  7 28  4  0
  8 11  4  0
  9 29  4  0
 10 12  4  0
 11 24  1  0
 11 26  4  0
 12 25  1  0
 13 28  1  0
 14 20  4  0
 14 23  4  0
 15 17  4  0
 15 21  4  0
 16 19  4  0
 16 23  4  0
 17 22  4  0
 18 26  4  0
 19 24  4  0
 20 24  4  0
 22 27  4  0
 28 29  4  0
M  END
$$$$

 Created by Python create_sdf_string function

 29 33  0  0  0  0  0  0  0  0999 V2000
   10.7215   -3.3326   17.6437 C   0  0  0  0  0  0  0  0  0  0  0  0
    9.9489   -3.4675   24.6487 N   0  0  0  0  0  0  0  0  0  0  0  0
   10.0172   -4.4740   17.4101 C   0  0  0  0  0  0  0  0  0  0  0  0
    6.9051   -7.9575   16.4222 C   0  0  0  0  0  0  0  0  0  0  0  0
    8.9969   -6.3552   17.9668 N   0  0  0  0  0  0  0  0  0  0  0  0
   10.6702   -3.9051   22.4070 C   0  0  0  0  0  0  0  0  0  0  0  0
   11.0625   -3.0028   18.8894 C   0  0  0  0  0  0  0  0  0  0  0  0
    5.6180   -7.9194   16.1754 O   0  0  0  0  0  0  0  0  0  0  0  0
    9.7259   -5.3080   18.4485 C   0  0  0  0  0  0  0  0  0  0  0  0
    9.4578   -5.0200   16.3036 N   0  0  0  0  0  0  0  0  0  0  0  0
    5.0287   -8.9365   16.8223 C   0  0  0  0  0  0  0  0  0  0  0  0
    8.7742   -6.1498   16.6764 C   0  0  0  0  0  0  0  0  0  0  0  0
   10.9418   -3.4032   21.2053 O   0  0  0  0  0  0  0  0  0  0  0  0
    1.4797   -8.6258   16.2950 C   0  0  0  0  0  0  0  0  0  0  0  0
    9.2861   -1.2743   25.3585 C   0  0  0  0  0  0  0  0  0  0  0  0
    1.8892  -10.3985   17.7511 N   0  0  0  0  0  0  0  0  0  0  0  0
    9.6210   -0.6952   24.0976 C   0  0  0  0  0  0  0  0  0  0  0  0
    7.0792   -9.0217   17.1429 C   0  0  0  0  0  0  0  0  0  0  0  0
    3.1713  -10.1816   17.6634 C   0  0  0  0  0  0  0  0  0  0  0  0
    2.7878   -8.3822   16.2137 C   0  0  0  0  0  0  0  0  0  0  0  0
    9.4601   -2.6590   25.6528 C   0  0  0  0  0  0  0  0  0  0  0  0
   10.1182   -1.5672   23.1165 C   0  0  0  0  0  0  0  0  0  0  0  0
    1.0552   -9.6360   17.0650 C   0  0  0  0  0  0  0  0  0  0  0  0
    3.6519   -9.1783   16.9039 C   0  0  0  0  0  0  0  0  0  0  0  0
    7.8675   -7.0096   15.9415 C   0  0  0  0  0  0  0  0  0  0  0  0
    5.9733   -9.6553   17.3832 N   0  0  0  0  0  0  0  0  0  0  0  0
   10.2411   -2.9363   23.4301 C   0  0  0  0  0  0  0  0  0  0  0  0
   10.7288   -3.8197   19.9525 C   0  0  0  0  0  0  0  0  0  0  0  0
   10.1189   -5.0054   19.6987 C   0  0  0  0  0  0  0  0  0  0  0  0
  1  3  4  0
  1  7  4  0
  2 21  4  0
  2 27  4  0
  3  9  4  0
  3 10  4  0
  4  8  4  0
  4 18  4  0
  4 25  1  0
  5  9  4  0
  5 12  4  0
  6 13  1  0
  6 27  1  0
  7 28  4  0
  8 11  4  0
  9 29  4  0
 10 12  4  0
 11 24  1  0
 11 26  4  0
 12 25  1  0
 13 28  1  0
 14 20  4  0
 14 23  4  0
 15 17  4  0
 15 21  4  0
 16 19  4  0
 16 23  4  0
 17 22  4  0
 18 26  4  0
 19 24  4  0
 20 24  4  0
 22 27  4  0
 28 29  4  0
M  END
$$$$

 Created by Python create_sdf_string function

 29 33  0  0  0  0  0  0  0  0999 V2000
   10.7215   -3.3326   17.6437 C   0  0  0  0  0  0  0  0  0  0  0  0
    9.9489   -3.4675   24.6487 N   0  0  0  0  0  0  0  0  0  0  0  0
   10.0172   -4.4740   17.4101 C   0  0  0  0  0  0  0  0  0  0  0  0
    6.9051   -7.9575   16.4222 C   0  0  0  0  0  0  0  0  0  0  0  0
    8.9969   -6.3552   17.9668 N   0  0  0  0  0  0  0  0  0  0  0  0
   10.6702   -3.9051   22.4070 C   0  0  0  0  0  0  0  0  0  0  0  0
   11.0625   -3.0028   18.8894 C   0  0  0  0  0  0  0  0  0  0  0  0
    5.6180   -7.9194   16.1754 O   0  0  0  0  0  0  0  0  0  0  0  0
    9.7259   -5.3080   18.4485 C   0  0  0  0  0  0  0  0  0  0  0  0
    9.4578   -5.0200   16.3036 N   0  0  0  0  0  0  0  0  0  0  0  0
    5.0287   -8.9365   16.8223 C   0  0  0  0  0  0  0  0  0  0  0  0
    8.7742   -6.1498   16.6764 C   0  0  0  0  0  0  0  0  0  0  0  0
   10.9418   -3.4032   21.2053 O   0  0  0  0  0  0  0  0  0  0  0  0
    1.4797   -8.6258   16.2950 C   0  0  0  0  0  0  0  0  0  0  0  0
    9.2861   -1.2743   25.3585 C   0  0  0  0  0  0  0  0  0  0  0  0
    1.8892  -10.3985   17.7511 N   0  0  0  0  0  0  0  0  0  0  0  0
    9.6210   -0.6952   24.0976 C   0  0  0  0  0  0  0  0  0  0  0  0
    7.0792   -9.0217   17.1429 C   0  0  0  0  0  0  0  0  0  0  0  0
    3.1713  -10.1816   17.6634 C   0  0  0  0  0  0  0  0  0  0  0  0
    2.7878   -8.3822   16.2137 C   0  0  0  0  0  0  0  0  0  0  0  0
    9.4601   -2.6590   25.6528 C   0  0  0  0  0  0  0  0  0  0  0  0
   10.1182   -1.5672   23.1165 C   0  0  0  0  0  0  0  0  0  0  0  0
    1.0552   -9.6360   17.0650 C   0  0  0  0  0  0  0  0  0  0  0  0
    3.6519   -9.1783   16.9039 C   0  0  0  0  0  0  0  0  0  0  0  0
    7.8675   -7.0096   15.9415 C   0  0  0  0  0  0  0  0  0  0  0  0
    5.9733   -9.6553   17.3832 N   0  0  0  0  0  0  0  0  0  0  0  0
   10.2411   -2.9363   23.4301 C   0  0  0  0  0  0  0  0  0  0  0  0
   10.7288   -3.8197   19.9525 C   0  0  0  0  0  0  0  0  0  0  0  0
   10.1189   -5.0054   19.6987 C   0  0  0  0  0  0  0  0  0  0  0  0
  1  3  4  0
  1  7  4  0
  2 21  4  0
  2 27  4  0
  3  9  4  0
  3 10  4  0
  4  8  4  0
  4 18  4  0
  4 25  1  0
  5  9  4  0
  5 12  4  0
  6 13  1  0
  6 27  1  0
  7 28  4  0
  8 11  4  0
  9 29  4  0
 10 12  4  0
 11 24  1  0
 11 26  4  0
 12 25  1  0
 13 28  1  0
 14 20  4  0
 14 23  4  0
 15 17  4  0
 15 21  4  0
 16 19  4  0
 16 23  4  0
 17 22  4  0
 18 26  4  0
 19 24  4  0
 20 24  4  0
 22 27  4  0
 28 29  4  0
M  END
$$$$

 Created by Python create_sdf_string function

 29 33  0  0  0  0  0  0  0  0999 V2000
   10.7215   -3.3326   17.6437 C   0  0  0  0  0  0  0  0  0  0  0  0
    9.9489   -3.4675   24.6487 N   0  0  0  0  0  0  0  0  0  0  0  0
   10.0172   -4.4740   17.4101 C   0  0  0  0  0  0  0  0  0  0  0  0
    6.9051   -7.9575   16.4222 C   0  0  0  0  0  0  0  0  0  0  0  0
    8.9969   -6.3552   17.9668 N   0  0  0  0  0  0  0  0  0  0  0  0
   10.6702   -3.9051   22.4070 C   0  0  0  0  0  0  0  0  0  0  0  0
   11.0625   -3.0028   18.8894 C   0  0  0  0  0  0  0  0  0  0  0  0
    5.6180   -7.9194   16.1754 O   0  0  0  0  0  0  0  0  0  0  0  0
    9.7259   -5.3080   18.4485 C   0  0  0  0  0  0  0  0  0  0  0  0
    9.4578   -5.0200   16.3036 N   0  0  0  0  0  0  0  0  0  0  0  0
    5.0287   -8.9365   16.8223 C   0  0  0  0  0  0  0  0  0  0  0  0
    8.7742   -6.1498   16.6764 C   0  0  0  0  0  0  0  0  0  0  0  0
   10.9418   -3.4032   21.2053 O   0  0  0  0  0  0  0  0  0  0  0  0
    1.4797   -8.6258   16.2950 C   0  0  0  0  0  0  0  0  0  0  0  0
    9.2861   -1.2743   25.3585 C   0  0  0  0  0  0  0  0  0  0  0  0
    1.8892  -10.3985   17.7511 N   0  0  0  0  0  0  0  0  0  0  0  0
    9.6210   -0.6952   24.0976 C   0  0  0  0  0  0  0  0  0  0  0  0
    7.0792   -9.0217   17.1429 C   0  0  0  0  0  0  0  0  0  0  0  0
    3.1713  -10.1816   17.6634 C   0  0  0  0  0  0  0  0  0  0  0  0
    2.7878   -8.3822   16.2137 C   0  0  0  0  0  0  0  0  0  0  0  0
    9.4601   -2.6590   25.6528 C   0  0  0  0  0  0  0  0  0  0  0  0
   10.1182   -1.5672   23.1165 C   0  0  0  0  0  0  0  0  0  0  0  0
    1.0552   -9.6360   17.0650 C   0  0  0  0  0  0  0  0  0  0  0  0
    3.6519   -9.1783   16.9039 C   0  0  0  0  0  0  0  0  0  0  0  0
    7.8675   -7.0096   15.9415 C   0  0  0  0  0  0  0  0  0  0  0  0
    5.9733   -9.6553   17.3832 N   0  0  0  0  0  0  0  0  0  0  0  0
   10.2411   -2.9363   23.4301 C   0  0  0  0  0  0  0  0  0  0  0  0
   10.7288   -3.8197   19.9525 C   0  0  0  0  0  0  0  0  0  0  0  0
   10.1189   -5.0054   19.6987 C   0  0  0  0  0  0  0  0  0  0  0  0
  1  3  4  0
  1  7  4  0
  2 21  4  0
  2 27  4  0
  3  9  4  0
  3 10  4  0
  4  8  4  0
  4 18  4  0
  4 25  1  0
  5  9  4  0
  5 12  4  0
  6 13  1  0
  6 27  1  0
  7 28  4  0
  8 11  4  0
  9 29  4  0
 10 12  4  0
 11 24  1  0
 11 26  4  0
 12 25  1  0
 13 28  1  0
 14 20  4  0
 14 23  4  0
 15 17  4  0
 15 21  4  0
 16 19  4  0
 16 23  4  0
 17 22  4  0
 18 26  4  0
 19 24  4  0
 20 24  4  0
 22 27  4  0
 28 29  4  0
M  END
$$$$

 Created by Python create_sdf_string function

 29 33  0  0  0  0  0  0  0  0999 V2000
   10.7215   -3.3326   17.6437 C   0  0  0  0  0  0  0  0  0  0  0  0
    9.9489   -3.4675   24.6487 N   0  0  0  0  0  0  0  0  0  0  0  0
   10.0172   -4.4740   17.4101 C   0  0  0  0  0  0  0  0  0  0  0  0
    6.9051   -7.9575   16.4222 C   0  0  0  0  0  0  0  0  0  0  0  0
    8.9969   -6.3552   17.9668 N   0  0  0  0  0  0  0  0  0  0  0  0
   10.6702   -3.9051   22.4070 C   0  0  0  0  0  0  0  0  0  0  0  0
   11.0625   -3.0028   18.8894 C   0  0  0  0  0  0  0  0  0  0  0  0
    5.6180   -7.9194   16.1754 O   0  0  0  0  0  0  0  0  0  0  0  0
    9.7259   -5.3080   18.4485 C   0  0  0  0  0  0  0  0  0  0  0  0
    9.4578   -5.0200   16.3036 N   0  0  0  0  0  0  0  0  0  0  0  0
    5.0287   -8.9365   16.8223 C   0  0  0  0  0  0  0  0  0  0  0  0
    8.7742   -6.1498   16.6764 C   0  0  0  0  0  0  0  0  0  0  0  0
   10.9418   -3.4032   21.2053 O   0  0  0  0  0  0  0  0  0  0  0  0
    1.4797   -8.6258   16.2950 C   0  0  0  0  0  0  0  0  0  0  0  0
    9.2861   -1.2743   25.3585 C   0  0  0  0  0  0  0  0  0  0  0  0
    1.8892  -10.3985   17.7511 N   0  0  0  0  0  0  0  0  0  0  0  0
    9.6210   -0.6952   24.0976 C   0  0  0  0  0  0  0  0  0  0  0  0
    7.0792   -9.0217   17.1429 C   0  0  0  0  0  0  0  0  0  0  0  0
    3.1713  -10.1816   17.6634 C   0  0  0  0  0  0  0  0  0  0  0  0
    2.7878   -8.3822   16.2137 C   0  0  0  0  0  0  0  0  0  0  0  0
    9.4601   -2.6590   25.6528 C   0  0  0  0  0  0  0  0  0  0  0  0
   10.1182   -1.5672   23.1165 C   0  0  0  0  0  0  0  0  0  0  0  0
    1.0552   -9.6360   17.0650 C   0  0  0  0  0  0  0  0  0  0  0  0
    3.6519   -9.1783   16.9039 C   0  0  0  0  0  0  0  0  0  0  0  0
    7.8675   -7.0096   15.9415 C   0  0  0  0  0  0  0  0  0  0  0  0
    5.9733   -9.6553   17.3832 N   0  0  0  0  0  0  0  0  0  0  0  0
   10.2411   -2.9363   23.4301 C   0  0  0  0  0  0  0  0  0  0  0  0
   10.7288   -3.8197   19.9525 C   0  0  0  0  0  0  0  0  0  0  0  0
   10.1189   -5.0054   19.6987 C   0  0  0  0  0  0  0  0  0  0  0  0
  1  3  4  0
  1  7  4  0
  2 21  4  0
  2 27  4  0
  3  9  4  0
  3 10  4  0
  4  8  4  0
  4 18  4  0
  4 25  1  0
  5  9  4  0
  5 12  4  0
  6 13  1  0
  6 27  1  0
  7 28  4  0
  8 11  4  0
  9 29  4  0
 10 12  4  0
 11 24  1  0
 11 26  4  0
 12 25  1  0
 13 28  1  0
 14 20  4  0
 14 23  4  0
 15 17  4  0
 15 21  4  0
 16 19  4  0
 16 23  4  0
 17 22  4  0
 18 26  4  0
 19 24  4  0
 20 24  4  0
 22 27  4  0
 28 29  4  0
M  END
$$$$

 Created by Python create_sdf_string function

 29 33  0  0  0  0  0  0  0  0999 V2000
   10.7215   -3.3326   17.6437 C   0  0  0  0  0  0  0  0  0  0  0  0
    9.9489   -3.4675   24.6487 N   0  0  0  0  0  0  0  0  0  0  0  0
   10.0172   -4.4740   17.4101 C   0  0  0  0  0  0  0  0  0  0  0  0
    6.9051   -7.9575   16.4222 C   0  0  0  0  0  0  0  0  0  0  0  0
    8.9969   -6.3552   17.9668 N   0  0  0  0  0  0  0  0  0  0  0  0
   10.6702   -3.9051   22.4070 C   0  0  0  0  0  0  0  0  0  0  0  0
   11.0625   -3.0028   18.8894 C   0  0  0  0  0  0  0  0  0  0  0  0
    5.6180   -7.9194   16.1754 O   0  0  0  0  0  0  0  0  0  0  0  0
    9.7259   -5.3080   18.4485 C   0  0  0  0  0  0  0  0  0  0  0  0
    9.4578   -5.0200   16.3036 N   0  0  0  0  0  0  0  0  0  0  0  0
    5.0287   -8.9365   16.8223 C   0  0  0  0  0  0  0  0  0  0  0  0
    8.7742   -6.1498   16.6764 C   0  0  0  0  0  0  0  0  0  0  0  0
   10.9418   -3.4032   21.2053 O   0  0  0  0  0  0  0  0  0  0  0  0
    1.4797   -8.6258   16.2950 C   0  0  0  0  0  0  0  0  0  0  0  0
    9.2861   -1.2743   25.3585 C   0  0  0  0  0  0  0  0  0  0  0  0
    1.8892  -10.3985   17.7511 N   0  0  0  0  0  0  0  0  0  0  0  0
    9.6210   -0.6952   24.0976 C   0  0  0  0  0  0  0  0  0  0  0  0
    7.0792   -9.0217   17.1429 C   0  0  0  0  0  0  0  0  0  0  0  0
    3.1713  -10.1816   17.6634 C   0  0  0  0  0  0  0  0  0  0  0  0
    2.7878   -8.3822   16.2137 C   0  0  0  0  0  0  0  0  0  0  0  0
    9.4601   -2.6590   25.6528 C   0  0  0  0  0  0  0  0  0  0  0  0
   10.1182   -1.5672   23.1165 C   0  0  0  0  0  0  0  0  0  0  0  0
    1.0552   -9.6360   17.0650 C   0  0  0  0  0  0  0  0  0  0  0  0
    3.6519   -9.1783   16.9039 C   0  0  0  0  0  0  0  0  0  0  0  0
    7.8675   -7.0096   15.9415 C   0  0  0  0  0  0  0  0  0  0  0  0
    5.9733   -9.6553   17.3832 N   0  0  0  0  0  0  0  0  0  0  0  0
   10.2411   -2.9363   23.4301 C   0  0  0  0  0  0  0  0  0  0  0  0
   10.7288   -3.8197   19.9525 C   0  0  0  0  0  0  0  0  0  0  0  0
   10.1189   -5.0054   19.6987 C   0  0  0  0  0  0  0  0  0  0  0  0
  1  3  4  0
  1  7  4  0
  2 21  4  0
  2 27  4  0
  3  9  4  0
  3 10  4  0
  4  8  4  0
  4 18  4  0
  4 25  1  0
  5  9  4  0
  5 12  4  0
  6 13  1  0
  6 27  1  0
  7 28  4  0
  8 11  4  0
  9 29  4  0
 10 12  4  0
 11 24  1  0
 11 26  4  0
 12 25  1  0
 13 28  1  0
 14 20  4  0
 14 23  4  0
 15 17  4  0
 15 21  4  0
 16 19  4  0
 16 23  4  0
 17 22  4  0
 18 26  4  0
 19 24  4  0
 20 24  4  0
 22 27  4  0
 28 29  4  0
M  END
$$$$

 Created by Python create_sdf_string function

 29 33  0  0  0  0  0  0  0  0999 V2000
   10.7215   -3.3326   17.6437 C   0  0  0  0  0  0  0  0  0  0  0  0
    9.9489   -3.4675   24.6487 N   0  0  0  0  0  0  0  0  0  0  0  0
   10.0172   -4.4740   17.4101 C   0  0  0  0  0  0  0  0  0  0  0  0
    6.9051   -7.9575   16.4222 C   0  0  0  0  0  0  0  0  0  0  0  0
    8.9969   -6.3552   17.9668 N   0  0  0  0  0  0  0  0  0  0  0  0
   10.6702   -3.9051   22.4070 C   0  0  0  0  0  0  0  0  0  0  0  0
   11.0625   -3.0028   18.8894 C   0  0  0  0  0  0  0  0  0  0  0  0
    5.6180   -7.9194   16.1754 O   0  0  0  0  0  0  0  0  0  0  0  0
    9.7259   -5.3080   18.4485 C   0  0  0  0  0  0  0  0  0  0  0  0
    9.4578   -5.0200   16.3036 N   0  0  0  0  0  0  0  0  0  0  0  0
    5.0287   -8.9365   16.8223 C   0  0  0  0  0  0  0  0  0  0  0  0
    8.7742   -6.1498   16.6764 C   0  0  0  0  0  0  0  0  0  0  0  0
   10.9418   -3.4032   21.2053 O   0  0  0  0  0  0  0  0  0  0  0  0
    1.4797   -8.6258   16.2950 C   0  0  0  0  0  0  0  0  0  0  0  0
    9.2861   -1.2743   25.3585 C   0  0  0  0  0  0  0  0  0  0  0  0
    1.8892  -10.3985   17.7511 N   0  0  0  0  0  0  0  0  0  0  0  0
    9.6210   -0.6952   24.0976 C   0  0  0  0  0  0  0  0  0  0  0  0
    7.0792   -9.0217   17.1429 C   0  0  0  0  0  0  0  0  0  0  0  0
    3.1713  -10.1816   17.6634 C   0  0  0  0  0  0  0  0  0  0  0  0
    2.7878   -8.3822   16.2137 C   0  0  0  0  0  0  0  0  0  0  0  0
    9.4601   -2.6590   25.6528 C   0  0  0  0  0  0  0  0  0  0  0  0
   10.1182   -1.5672   23.1165 C   0  0  0  0  0  0  0  0  0  0  0  0
    1.0552   -9.6360   17.0650 C   0  0  0  0  0  0  0  0  0  0  0  0
    3.6519   -9.1783   16.9039 C   0  0  0  0  0  0  0  0  0  0  0  0
    7.8675   -7.0096   15.9415 C   0  0  0  0  0  0  0  0  0  0  0  0
    5.9733   -9.6553   17.3832 N   0  0  0  0  0  0  0  0  0  0  0  0
   10.2411   -2.9363   23.4301 C   0  0  0  0  0  0  0  0  0  0  0  0
   10.7288   -3.8197   19.9525 C   0  0  0  0  0  0  0  0  0  0  0  0
   10.1189   -5.0054   19.6987 C   0  0  0  0  0  0  0  0  0  0  0  0
  1  3  4  0
  1  7  4  0
  2 21  4  0
  2 27  4  0
  3  9  4  0
  3 10  4  0
  4  8  4  0
  4 18  4  0
  4 25  1  0
  5  9  4  0
  5 12  4  0
  6 13  1  0
  6 27  1  0
  7 28  4  0
  8 11  4  0
  9 29  4  0
 10 12  4  0
 11 24  1  0
 11 26  4  0
 12 25  1  0
 13 28  1  0
 14 20  4  0
 14 23  4  0
 15 17  4  0
 15 21  4  0
 16 19  4  0
 16 23  4  0
 17 22  4  0
 18 26  4  0
 19 24  4  0
 20 24  4  0
 22 27  4  0
 28 29  4  0
M  END
$$$$

 Created by Python create_sdf_string function

 29 33  0  0  0  0  0  0  0  0999 V2000
   10.7215   -3.3326   17.6437 C   0  0  0  0  0  0  0  0  0  0  0  0
    9.9489   -3.4675   24.6487 N   0  0  0  0  0  0  0  0  0  0  0  0
   10.0172   -4.4740   17.4101 C   0  0  0  0  0  0  0  0  0  0  0  0
    6.9051   -7.9575   16.4222 C   0  0  0  0  0  0  0  0  0  0  0  0
    8.9969   -6.3552   17.9668 N   0  0  0  0  0  0  0  0  0  0  0  0
   10.6702   -3.9051   22.4070 C   0  0  0  0  0  0  0  0  0  0  0  0
   11.0625   -3.0028   18.8894 C   0  0  0  0  0  0  0  0  0  0  0  0
    5.6180   -7.9194   16.1754 O   0  0  0  0  0  0  0  0  0  0  0  0
    9.7259   -5.3080   18.4485 C   0  0  0  0  0  0  0  0  0  0  0  0
    9.4578   -5.0200   16.3036 N   0  0  0  0  0  0  0  0  0  0  0  0
    5.0287   -8.9365   16.8223 C   0  0  0  0  0  0  0  0  0  0  0  0
    8.7742   -6.1498   16.6764 C   0  0  0  0  0  0  0  0  0  0  0  0
   10.9418   -3.4032   21.2053 O   0  0  0  0  0  0  0  0  0  0  0  0
    1.4797   -8.6258   16.2950 C   0  0  0  0  0  0  0  0  0  0  0  0
    9.2861   -1.2743   25.3585 C   0  0  0  0  0  0  0  0  0  0  0  0
    1.8892  -10.3985   17.7511 N   0  0  0  0  0  0  0  0  0  0  0  0
    9.6210   -0.6952   24.0976 C   0  0  0  0  0  0  0  0  0  0  0  0
    7.0792   -9.0217   17.1429 C   0  0  0  0  0  0  0  0  0  0  0  0
    3.1713  -10.1816   17.6634 C   0  0  0  0  0  0  0  0  0  0  0  0
    2.7878   -8.3822   16.2137 C   0  0  0  0  0  0  0  0  0  0  0  0
    9.4601   -2.6590   25.6528 C   0  0  0  0  0  0  0  0  0  0  0  0
   10.1182   -1.5672   23.1165 C   0  0  0  0  0  0  0  0  0  0  0  0
    1.0552   -9.6360   17.0650 C   0  0  0  0  0  0  0  0  0  0  0  0
    3.6519   -9.1783   16.9039 C   0  0  0  0  0  0  0  0  0  0  0  0
    7.8675   -7.0096   15.9415 C   0  0  0  0  0  0  0  0  0  0  0  0
    5.9733   -9.6553   17.3832 N   0  0  0  0  0  0  0  0  0  0  0  0
   10.2411   -2.9363   23.4301 C   0  0  0  0  0  0  0  0  0  0  0  0
   10.7288   -3.8197   19.9525 C   0  0  0  0  0  0  0  0  0  0  0  0
   10.1189   -5.0054   19.6987 C   0  0  0  0  0  0  0  0  0  0  0  0
  1  3  4  0
  1  7  4  0
  2 21  4  0
  2 27  4  0
  3  9  4  0
  3 10  4  0
  4  8  4  0
  4 18  4  0
  4 25  1  0
  5  9  4  0
  5 12  4  0
  6 13  1  0
  6 27  1  0
  7 28  4  0
  8 11  4  0
  9 29  4  0
 10 12  4  0
 11 24  1  0
 11 26  4  0
 12 25  1  0
 13 28  1  0
 14 20  4  0
 14 23  4  0
 15 17  4  0
 15 21  4  0
 16 19  4  0
 16 23  4  0
 17 22  4  0
 18 26  4  0
 19 24  4  0
 20 24  4  0
 22 27  4  0
 28 29  4  0
M  END
$$$$

 Created by Python create_sdf_string function

 29 33  0  0  0  0  0  0  0  0999 V2000
   10.7215   -3.3326   17.6437 C   0  0  0  0  0  0  0  0  0  0  0  0
    9.9489   -3.4675   24.6487 N   0  0  0  0  0  0  0  0  0  0  0  0
   10.0172   -4.4740   17.4101 C   0  0  0  0  0  0  0  0  0  0  0  0
    6.9051   -7.9575   16.4222 C   0  0  0  0  0  0  0  0  0  0  0  0
    8.9969   -6.3552   17.9668 N   0  0  0  0  0  0  0  0  0  0  0  0
   10.6702   -3.9051   22.4070 C   0  0  0  0  0  0  0  0  0  0  0  0
   11.0625   -3.0028   18.8894 C   0  0  0  0  0  0  0  0  0  0  0  0
    5.6180   -7.9194   16.1754 O   0  0  0  0  0  0  0  0  0  0  0  0
    9.7259   -5.3080   18.4485 C   0  0  0  0  0  0  0  0  0  0  0  0
    9.4578   -5.0200   16.3036 N   0  0  0  0  0  0  0  0  0  0  0  0
    5.0287   -8.9365   16.8223 C   0  0  0  0  0  0  0  0  0  0  0  0
    8.7742   -6.1498   16.6764 C   0  0  0  0  0  0  0  0  0  0  0  0
   10.9418   -3.4032   21.2053 O   0  0  0  0  0  0  0  0  0  0  0  0
    1.4797   -8.6258   16.2950 C   0  0  0  0  0  0  0  0  0  0  0  0
    9.2861   -1.2743   25.3585 C   0  0  0  0  0  0  0  0  0  0  0  0
    1.8892  -10.3985   17.7511 N   0  0  0  0  0  0  0  0  0  0  0  0
    9.6210   -0.6952   24.0976 C   0  0  0  0  0  0  0  0  0  0  0  0
    7.0792   -9.0217   17.1429 C   0  0  0  0  0  0  0  0  0  0  0  0
    3.1713  -10.1816   17.6634 C   0  0  0  0  0  0  0  0  0  0  0  0
    2.7878   -8.3822   16.2137 C   0  0  0  0  0  0  0  0  0  0  0  0
    9.4601   -2.6590   25.6528 C   0  0  0  0  0  0  0  0  0  0  0  0
   10.1182   -1.5672   23.1165 C   0  0  0  0  0  0  0  0  0  0  0  0
    1.0552   -9.6360   17.0650 C   0  0  0  0  0  0  0  0  0  0  0  0
    3.6519   -9.1783   16.9039 C   0  0  0  0  0  0  0  0  0  0  0  0
    7.8675   -7.0096   15.9415 C   0  0  0  0  0  0  0  0  0  0  0  0
    5.9733   -9.6553   17.3832 N   0  0  0  0  0  0  0  0  0  0  0  0
   10.2411   -2.9363   23.4301 C   0  0  0  0  0  0  0  0  0  0  0  0
   10.7288   -3.8197   19.9525 C   0  0  0  0  0  0  0  0  0  0  0  0
   10.1189   -5.0054   19.6987 C   0  0  0  0  0  0  0  0  0  0  0  0
  1  3  4  0
  1  7  4  0
  2 21  4  0
  2 27  4  0
  3  9  4  0
  3 10  4  0
  4  8  4  0
  4 18  4  0
  4 25  1  0
  5  9  4  0
  5 12  4  0
  6 13  1  0
  6 27  1  0
  7 28  4  0
  8 11  4  0
  9 29  4  0
 10 12  4  0
 11 24  1  0
 11 26  4  0
 12 25  1  0
 13 28  1  0
 14 20  4  0
 14 23  4  0
 15 17  4  0
 15 21  4  0
 16 19  4  0
 16 23  4  0
 17 22  4  0
 18 26  4  0
 19 24  4  0
 20 24  4  0
 22 27  4  0
 28 29  4  0
M  END
$$$$

 Created by Python create_sdf_string function

 29 33  0  0  0  0  0  0  0  0999 V2000
   10.7215   -3.3326   17.6437 C   0  0  0  0  0  0  0  0  0  0  0  0
    9.9489   -3.4675   24.6487 N   0  0  0  0  0  0  0  0  0  0  0  0
   10.0172   -4.4740   17.4101 C   0  0  0  0  0  0  0  0  0  0  0  0
    6.9051   -7.9575   16.4222 C   0  0  0  0  0  0  0  0  0  0  0  0
    8.9969   -6.3552   17.9668 N   0  0  0  0  0  0  0  0  0  0  0  0
   10.6702   -3.9051   22.4070 C   0  0  0  0  0  0  0  0  0  0  0  0
   11.0625   -3.0028   18.8894 C   0  0  0  0  0  0  0  0  0  0  0  0
    5.6180   -7.9194   16.1754 O   0  0  0  0  0  0  0  0  0  0  0  0
    9.7259   -5.3080   18.4485 C   0  0  0  0  0  0  0  0  0  0  0  0
    9.4578   -5.0200   16.3036 N   0  0  0  0  0  0  0  0  0  0  0  0
    5.0287   -8.9365   16.8223 C   0  0  0  0  0  0  0  0  0  0  0  0
    8.7742   -6.1498   16.6764 C   0  0  0  0  0  0  0  0  0  0  0  0
   10.9418   -3.4032   21.2053 O   0  0  0  0  0  0  0  0  0  0  0  0
    1.4797   -8.6258   16.2950 C   0  0  0  0  0  0  0  0  0  0  0  0
    9.2861   -1.2743   25.3585 C   0  0  0  0  0  0  0  0  0  0  0  0
    1.8892  -10.3985   17.7511 N   0  0  0  0  0  0  0  0  0  0  0  0
    9.6210   -0.6952   24.0976 C   0  0  0  0  0  0  0  0  0  0  0  0
    7.0792   -9.0217   17.1429 C   0  0  0  0  0  0  0  0  0  0  0  0
    3.1713  -10.1816   17.6634 C   0  0  0  0  0  0  0  0  0  0  0  0
    2.7878   -8.3822   16.2137 C   0  0  0  0  0  0  0  0  0  0  0  0
    9.4601   -2.6590   25.6528 C   0  0  0  0  0  0  0  0  0  0  0  0
   10.1182   -1.5672   23.1165 C   0  0  0  0  0  0  0  0  0  0  0  0
    1.0552   -9.6360   17.0650 C   0  0  0  0  0  0  0  0  0  0  0  0
    3.6519   -9.1783   16.9039 C   0  0  0  0  0  0  0  0  0  0  0  0
    7.8675   -7.0096   15.9415 C   0  0  0  0  0  0  0  0  0  0  0  0
    5.9733   -9.6553   17.3832 N   0  0  0  0  0  0  0  0  0  0  0  0
   10.2411   -2.9363   23.4301 C   0  0  0  0  0  0  0  0  0  0  0  0
   10.7288   -3.8197   19.9525 C   0  0  0  0  0  0  0  0  0  0  0  0
   10.1189   -5.0054   19.6987 C   0  0  0  0  0  0  0  0  0  0  0  0
  1  3  4  0
  1  7  4  0
  2 21  4  0
  2 27  4  0
  3  9  4  0
  3 10  4  0
  4  8  4  0
  4 18  4  0
  4 25  1  0
  5  9  4  0
  5 12  4  0
  6 13  1  0
  6 27  1  0
  7 28  4  0
  8 11  4  0
  9 29  4  0
 10 12  4  0
 11 24  1  0
 11 26  4  0
 12 25  1  0
 13 28  1  0
 14 20  4  0
 14 23  4  0
 15 17  4  0
 15 21  4  0
 16 19  4  0
 16 23  4  0
 17 22  4  0
 18 26  4  0
 19 24  4  0
 20 24  4  0
 22 27  4  0
 28 29  4  0
M  END
$$$$

 Created by Python create_sdf_string function

 29 33  0  0  0  0  0  0  0  0999 V2000
   10.7215   -3.3326   17.6437 C   0  0  0  0  0  0  0  0  0  0  0  0
    9.9489   -3.4675   24.6487 N   0  0  0  0  0  0  0  0  0  0  0  0
   10.0172   -4.4740   17.4101 C   0  0  0  0  0  0  0  0  0  0  0  0
    6.9051   -7.9575   16.4222 C   0  0  0  0  0  0  0  0  0  0  0  0
    8.9969   -6.3552   17.9668 N   0  0  0  0  0  0  0  0  0  0  0  0
   10.6702   -3.9051   22.4070 C   0  0  0  0  0  0  0  0  0  0  0  0
   11.0625   -3.0028   18.8894 C   0  0  0  0  0  0  0  0  0  0  0  0
    5.6180   -7.9194   16.1754 O   0  0  0  0  0  0  0  0  0  0  0  0
    9.7259   -5.3080   18.4485 C   0  0  0  0  0  0  0  0  0  0  0  0
    9.4578   -5.0200   16.3036 N   0  0  0  0  0  0  0  0  0  0  0  0
    5.0287   -8.9365   16.8223 C   0  0  0  0  0  0  0  0  0  0  0  0
    8.7742   -6.1498   16.6764 C   0  0  0  0  0  0  0  0  0  0  0  0
   10.9418   -3.4032   21.2053 O   0  0  0  0  0  0  0  0  0  0  0  0
    1.4797   -8.6258   16.2950 C   0  0  0  0  0  0  0  0  0  0  0  0
    9.2861   -1.2743   25.3585 C   0  0  0  0  0  0  0  0  0  0  0  0
    1.8892  -10.3985   17.7511 N   0  0  0  0  0  0  0  0  0  0  0  0
    9.6210   -0.6952   24.0976 C   0  0  0  0  0  0  0  0  0  0  0  0
    7.0792   -9.0217   17.1429 C   0  0  0  0  0  0  0  0  0  0  0  0
    3.1713  -10.1816   17.6634 C   0  0  0  0  0  0  0  0  0  0  0  0
    2.7878   -8.3822   16.2137 C   0  0  0  0  0  0  0  0  0  0  0  0
    9.4601   -2.6590   25.6528 C   0  0  0  0  0  0  0  0  0  0  0  0
   10.1182   -1.5672   23.1165 C   0  0  0  0  0  0  0  0  0  0  0  0
    1.0552   -9.6360   17.0650 C   0  0  0  0  0  0  0  0  0  0  0  0
    3.6519   -9.1783   16.9039 C   0  0  0  0  0  0  0  0  0  0  0  0
    7.8675   -7.0096   15.9415 C   0  0  0  0  0  0  0  0  0  0  0  0
    5.9733   -9.6553   17.3832 N   0  0  0  0  0  0  0  0  0  0  0  0
   10.2411   -2.9363   23.4301 C   0  0  0  0  0  0  0  0  0  0  0  0
   10.7288   -3.8197   19.9525 C   0  0  0  0  0  0  0  0  0  0  0  0
   10.1189   -5.0054   19.6987 C   0  0  0  0  0  0  0  0  0  0  0  0
  1  3  4  0
  1  7  4  0
  2 21  4  0
  2 27  4  0
  3  9  4  0
  3 10  4  0
  4  8  4  0
  4 18  4  0
  4 25  1  0
  5  9  4  0
  5 12  4  0
  6 13  1  0
  6 27  1  0
  7 28  4  0
  8 11  4  0
  9 29  4  0
 10 12  4  0
 11 24  1  0
 11 26  4  0
 12 25  1  0
 13 28  1  0
 14 20  4  0
 14 23  4  0
 15 17  4  0
 15 21  4  0
 16 19  4  0
 16 23  4  0
 17 22  4  0
 18 26  4  0
 19 24  4  0
 20 24  4  0
 22 27  4  0
 28 29  4  0
M  END
$$$$

 Created by Python create_sdf_string function

 29 33  0  0  0  0  0  0  0  0999 V2000
   10.7215   -3.3326   17.6437 C   0  0  0  0  0  0  0  0  0  0  0  0
    9.9489   -3.4675   24.6487 N   0  0  0  0  0  0  0  0  0  0  0  0
   10.0172   -4.4740   17.4101 C   0  0  0  0  0  0  0  0  0  0  0  0
    6.9051   -7.9575   16.4222 C   0  0  0  0  0  0  0  0  0  0  0  0
    8.9969   -6.3552   17.9668 N   0  0  0  0  0  0  0  0  0  0  0  0
   10.6702   -3.9051   22.4070 C   0  0  0  0  0  0  0  0  0  0  0  0
   11.0625   -3.0028   18.8894 C   0  0  0  0  0  0  0  0  0  0  0  0
    5.6180   -7.9194   16.1754 O   0  0  0  0  0  0  0  0  0  0  0  0
    9.7259   -5.3080   18.4485 C   0  0  0  0  0  0  0  0  0  0  0  0
    9.4578   -5.0200   16.3036 N   0  0  0  0  0  0  0  0  0  0  0  0
    5.0287   -8.9365   16.8223 C   0  0  0  0  0  0  0  0  0  0  0  0
    8.7742   -6.1498   16.6764 C   0  0  0  0  0  0  0  0  0  0  0  0
   10.9418   -3.4032   21.2053 O   0  0  0  0  0  0  0  0  0  0  0  0
    1.4797   -8.6258   16.2950 C   0  0  0  0  0  0  0  0  0  0  0  0
    9.2861   -1.2743   25.3585 C   0  0  0  0  0  0  0  0  0  0  0  0
    1.8892  -10.3985   17.7511 N   0  0  0  0  0  0  0  0  0  0  0  0
    9.6210   -0.6952   24.0976 C   0  0  0  0  0  0  0  0  0  0  0  0
    7.0792   -9.0217   17.1429 C   0  0  0  0  0  0  0  0  0  0  0  0
    3.1713  -10.1816   17.6634 C   0  0  0  0  0  0  0  0  0  0  0  0
    2.7878   -8.3822   16.2137 C   0  0  0  0  0  0  0  0  0  0  0  0
    9.4601   -2.6590   25.6528 C   0  0  0  0  0  0  0  0  0  0  0  0
   10.1182   -1.5672   23.1165 C   0  0  0  0  0  0  0  0  0  0  0  0
    1.0552   -9.6360   17.0650 C   0  0  0  0  0  0  0  0  0  0  0  0
    3.6519   -9.1783   16.9039 C   0  0  0  0  0  0  0  0  0  0  0  0
    7.8675   -7.0096   15.9415 C   0  0  0  0  0  0  0  0  0  0  0  0
    5.9733   -9.6553   17.3832 N   0  0  0  0  0  0  0  0  0  0  0  0
   10.2411   -2.9363   23.4301 C   0  0  0  0  0  0  0  0  0  0  0  0
   10.7288   -3.8197   19.9525 C   0  0  0  0  0  0  0  0  0  0  0  0
   10.1189   -5.0054   19.6987 C   0  0  0  0  0  0  0  0  0  0  0  0
  1  3  4  0
  1  7  4  0
  2 21  4  0
  2 27  4  0
  3  9  4  0
  3 10  4  0
  4  8  4  0
  4 18  4  0
  4 25  1  0
  5  9  4  0
  5 12  4  0
  6 13  1  0
  6 27  1  0
  7 28  4  0
  8 11  4  0
  9 29  4  0
 10 12  4  0
 11 24  1  0
 11 26  4  0
 12 25  1  0
 13 28  1  0
 14 20  4  0
 14 23  4  0
 15 17  4  0
 15 21  4  0
 16 19  4  0
 16 23  4  0
 17 22  4  0
 18 26  4  0
 19 24  4  0
 20 24  4  0
 22 27  4  0
 28 29  4  0
M  END
$$$$

 Created by Python create_sdf_string function

 29 33  0  0  0  0  0  0  0  0999 V2000
   10.7215   -3.3326   17.6437 C   0  0  0  0  0  0  0  0  0  0  0  0
    9.9489   -3.4675   24.6487 N   0  0  0  0  0  0  0  0  0  0  0  0
   10.0172   -4.4740   17.4101 C   0  0  0  0  0  0  0  0  0  0  0  0
    6.9051   -7.9575   16.4222 C   0  0  0  0  0  0  0  0  0  0  0  0
    8.9969   -6.3552   17.9668 N   0  0  0  0  0  0  0  0  0  0  0  0
   10.6702   -3.9051   22.4070 C   0  0  0  0  0  0  0  0  0  0  0  0
   11.0625   -3.0028   18.8894 C   0  0  0  0  0  0  0  0  0  0  0  0
    5.6180   -7.9194   16.1754 O   0  0  0  0  0  0  0  0  0  0  0  0
    9.7259   -5.3080   18.4485 C   0  0  0  0  0  0  0  0  0  0  0  0
    9.4578   -5.0200   16.3036 N   0  0  0  0  0  0  0  0  0  0  0  0
    5.0287   -8.9365   16.8223 C   0  0  0  0  0  0  0  0  0  0  0  0
    8.7742   -6.1498   16.6764 C   0  0  0  0  0  0  0  0  0  0  0  0
   10.9418   -3.4032   21.2053 O   0  0  0  0  0  0  0  0  0  0  0  0
    1.4797   -8.6258   16.2950 C   0  0  0  0  0  0  0  0  0  0  0  0
    9.2861   -1.2743   25.3585 C   0  0  0  0  0  0  0  0  0  0  0  0
    1.8892  -10.3985   17.7511 N   0  0  0  0  0  0  0  0  0  0  0  0
    9.6210   -0.6952   24.0976 C   0  0  0  0  0  0  0  0  0  0  0  0
    7.0792   -9.0217   17.1429 C   0  0  0  0  0  0  0  0  0  0  0  0
    3.1713  -10.1816   17.6634 C   0  0  0  0  0  0  0  0  0  0  0  0
    2.7878   -8.3822   16.2137 C   0  0  0  0  0  0  0  0  0  0  0  0
    9.4601   -2.6590   25.6528 C   0  0  0  0  0  0  0  0  0  0  0  0
   10.1182   -1.5672   23.1165 C   0  0  0  0  0  0  0  0  0  0  0  0
    1.0552   -9.6360   17.0650 C   0  0  0  0  0  0  0  0  0  0  0  0
    3.6519   -9.1783   16.9039 C   0  0  0  0  0  0  0  0  0  0  0  0
    7.8675   -7.0096   15.9415 C   0  0  0  0  0  0  0  0  0  0  0  0
    5.9733   -9.6553   17.3832 N   0  0  0  0  0  0  0  0  0  0  0  0
   10.2411   -2.9363   23.4301 C   0  0  0  0  0  0  0  0  0  0  0  0
   10.7288   -3.8197   19.9525 C   0  0  0  0  0  0  0  0  0  0  0  0
   10.1189   -5.0054   19.6987 C   0  0  0  0  0  0  0  0  0  0  0  0
  1  3  4  0
  1  7  4  0
  2 21  4  0
  2 27  4  0
  3  9  4  0
  3 10  4  0
  4  8  4  0
  4 18  4  0
  4 25  1  0
  5  9  4  0
  5 12  4  0
  6 13  1  0
  6 27  1  0
  7 28  4  0
  8 11  4  0
  9 29  4  0
 10 12  4  0
 11 24  1  0
 11 26  4  0
 12 25  1  0
 13 28  1  0
 14 20  4  0
 14 23  4  0
 15 17  4  0
 15 21  4  0
 16 19  4  0
 16 23  4  0
 17 22  4  0
 18 26  4  0
 19 24  4  0
 20 24  4  0
 22 27  4  0
 28 29  4  0
M  END
$$$$

 Created by Python create_sdf_string function

 29 33  0  0  0  0  0  0  0  0999 V2000
   10.7215   -3.3326   17.6437 C   0  0  0  0  0  0  0  0  0  0  0  0
    9.9489   -3.4675   24.6487 N   0  0  0  0  0  0  0  0  0  0  0  0
   10.0172   -4.4740   17.4101 C   0  0  0  0  0  0  0  0  0  0  0  0
    6.9051   -7.9575   16.4222 C   0  0  0  0  0  0  0  0  0  0  0  0
    8.9969   -6.3552   17.9668 N   0  0  0  0  0  0  0  0  0  0  0  0
   10.6702   -3.9051   22.4070 C   0  0  0  0  0  0  0  0  0  0  0  0
   11.0625   -3.0028   18.8894 C   0  0  0  0  0  0  0  0  0  0  0  0
    5.6180   -7.9194   16.1754 O   0  0  0  0  0  0  0  0  0  0  0  0
    9.7259   -5.3080   18.4485 C   0  0  0  0  0  0  0  0  0  0  0  0
    9.4578   -5.0200   16.3036 N   0  0  0  0  0  0  0  0  0  0  0  0
    5.0287   -8.9365   16.8223 C   0  0  0  0  0  0  0  0  0  0  0  0
    8.7742   -6.1498   16.6764 C   0  0  0  0  0  0  0  0  0  0  0  0
   10.9418   -3.4032   21.2053 O   0  0  0  0  0  0  0  0  0  0  0  0
    1.4797   -8.6258   16.2950 C   0  0  0  0  0  0  0  0  0  0  0  0
    9.2861   -1.2743   25.3585 C   0  0  0  0  0  0  0  0  0  0  0  0
    1.8892  -10.3985   17.7511 N   0  0  0  0  0  0  0  0  0  0  0  0
    9.6210   -0.6952   24.0976 C   0  0  0  0  0  0  0  0  0  0  0  0
    7.0792   -9.0217   17.1429 C   0  0  0  0  0  0  0  0  0  0  0  0
    3.1713  -10.1816   17.6634 C   0  0  0  0  0  0  0  0  0  0  0  0
    2.7878   -8.3822   16.2137 C   0  0  0  0  0  0  0  0  0  0  0  0
    9.4601   -2.6590   25.6528 C   0  0  0  0  0  0  0  0  0  0  0  0
   10.1182   -1.5672   23.1165 C   0  0  0  0  0  0  0  0  0  0  0  0
    1.0552   -9.6360   17.0650 C   0  0  0  0  0  0  0  0  0  0  0  0
    3.6519   -9.1783   16.9039 C   0  0  0  0  0  0  0  0  0  0  0  0
    7.8675   -7.0096   15.9415 C   0  0  0  0  0  0  0  0  0  0  0  0
    5.9733   -9.6553   17.3832 N   0  0  0  0  0  0  0  0  0  0  0  0
   10.2411   -2.9363   23.4301 C   0  0  0  0  0  0  0  0  0  0  0  0
   10.7288   -3.8197   19.9525 C   0  0  0  0  0  0  0  0  0  0  0  0
   10.1189   -5.0054   19.6987 C   0  0  0  0  0  0  0  0  0  0  0  0
  1  3  4  0
  1  7  4  0
  2 21  4  0
  2 27  4  0
  3  9  4  0
  3 10  4  0
  4  8  4  0
  4 18  4  0
  4 25  1  0
  5  9  4  0
  5 12  4  0
  6 13  1  0
  6 27  1  0
  7 28  4  0
  8 11  4  0
  9 29  4  0
 10 12  4  0
 11 24  1  0
 11 26  4  0
 12 25  1  0
 13 28  1  0
 14 20  4  0
 14 23  4  0
 15 17  4  0
 15 21  4  0
 16 19  4  0
 16 23  4  0
 17 22  4  0
 18 26  4  0
 19 24  4  0
 20 24  4  0
 22 27  4  0
 28 29  4  0
M  END
$$$$

 Created by Python create_sdf_string function

 29 33  0  0  0  0  0  0  0  0999 V2000
   10.7215   -3.3326   17.6437 C   0  0  0  0  0  0  0  0  0  0  0  0
    9.9489   -3.4675   24.6487 N   0  0  0  0  0  0  0  0  0  0  0  0
   10.0172   -4.4740   17.4101 C   0  0  0  0  0  0  0  0  0  0  0  0
    6.9051   -7.9575   16.4222 C   0  0  0  0  0  0  0  0  0  0  0  0
    8.9969   -6.3552   17.9668 N   0  0  0  0  0  0  0  0  0  0  0  0
   10.6702   -3.9051   22.4070 C   0  0  0  0  0  0  0  0  0  0  0  0
   11.0625   -3.0028   18.8894 C   0  0  0  0  0  0  0  0  0  0  0  0
    5.6180   -7.9194   16.1754 O   0  0  0  0  0  0  0  0  0  0  0  0
    9.7259   -5.3080   18.4485 C   0  0  0  0  0  0  0  0  0  0  0  0
    9.4578   -5.0200   16.3036 N   0  0  0  0  0  0  0  0  0  0  0  0
    5.0287   -8.9365   16.8223 C   0  0  0  0  0  0  0  0  0  0  0  0
    8.7742   -6.1498   16.6764 C   0  0  0  0  0  0  0  0  0  0  0  0
   10.9418   -3.4032   21.2053 O   0  0  0  0  0  0  0  0  0  0  0  0
    1.4797   -8.6258   16.2950 C   0  0  0  0  0  0  0  0  0  0  0  0
    9.2861   -1.2743   25.3585 C   0  0  0  0  0  0  0  0  0  0  0  0
    1.8892  -10.3985   17.7511 N   0  0  0  0  0  0  0  0  0  0  0  0
    9.6210   -0.6952   24.0976 C   0  0  0  0  0  0  0  0  0  0  0  0
    7.0792   -9.0217   17.1429 C   0  0  0  0  0  0  0  0  0  0  0  0
    3.1713  -10.1816   17.6634 C   0  0  0  0  0  0  0  0  0  0  0  0
    2.7878   -8.3822   16.2137 C   0  0  0  0  0  0  0  0  0  0  0  0
    9.4601   -2.6590   25.6528 C   0  0  0  0  0  0  0  0  0  0  0  0
   10.1182   -1.5672   23.1165 C   0  0  0  0  0  0  0  0  0  0  0  0
    1.0552   -9.6360   17.0650 C   0  0  0  0  0  0  0  0  0  0  0  0
    3.6519   -9.1783   16.9039 C   0  0  0  0  0  0  0  0  0  0  0  0
    7.8675   -7.0096   15.9415 C   0  0  0  0  0  0  0  0  0  0  0  0
    5.9733   -9.6553   17.3832 N   0  0  0  0  0  0  0  0  0  0  0  0
   10.2411   -2.9363   23.4301 C   0  0  0  0  0  0  0  0  0  0  0  0
   10.7288   -3.8197   19.9525 C   0  0  0  0  0  0  0  0  0  0  0  0
   10.1189   -5.0054   19.6987 C   0  0  0  0  0  0  0  0  0  0  0  0
  1  3  4  0
  1  7  4  0
  2 21  4  0
  2 27  4  0
  3  9  4  0
  3 10  4  0
  4  8  4  0
  4 18  4  0
  4 25  1  0
  5  9  4  0
  5 12  4  0
  6 13  1  0
  6 27  1  0
  7 28  4  0
  8 11  4  0
  9 29  4  0
 10 12  4  0
 11 24  1  0
 11 26  4  0
 12 25  1  0
 13 28  1  0
 14 20  4  0
 14 23  4  0
 15 17  4  0
 15 21  4  0
 16 19  4  0
 16 23  4  0
 17 22  4  0
 18 26  4  0
 19 24  4  0
 20 24  4  0
 22 27  4  0
 28 29  4  0
M  END
$$$$

 Created by Python create_sdf_string function

 29 33  0  0  0  0  0  0  0  0999 V2000
   10.7215   -3.3326   17.6437 C   0  0  0  0  0  0  0  0  0  0  0  0
    9.9489   -3.4675   24.6487 N   0  0  0  0  0  0  0  0  0  0  0  0
   10.0172   -4.4740   17.4101 C   0  0  0  0  0  0  0  0  0  0  0  0
    6.9051   -7.9575   16.4222 C   0  0  0  0  0  0  0  0  0  0  0  0
    8.9969   -6.3552   17.9668 N   0  0  0  0  0  0  0  0  0  0  0  0
   10.6702   -3.9051   22.4070 C   0  0  0  0  0  0  0  0  0  0  0  0
   11.0625   -3.0028   18.8894 C   0  0  0  0  0  0  0  0  0  0  0  0
    5.6180   -7.9194   16.1754 O   0  0  0  0  0  0  0  0  0  0  0  0
    9.7259   -5.3080   18.4485 C   0  0  0  0  0  0  0  0  0  0  0  0
    9.4578   -5.0200   16.3036 N   0  0  0  0  0  0  0  0  0  0  0  0
    5.0287   -8.9365   16.8223 C   0  0  0  0  0  0  0  0  0  0  0  0
    8.7742   -6.1498   16.6764 C   0  0  0  0  0  0  0  0  0  0  0  0
   10.9418   -3.4032   21.2053 O   0  0  0  0  0  0  0  0  0  0  0  0
    1.4797   -8.6258   16.2950 C   0  0  0  0  0  0  0  0  0  0  0  0
    9.2861   -1.2743   25.3585 C   0  0  0  0  0  0  0  0  0  0  0  0
    1.8892  -10.3985   17.7511 N   0  0  0  0  0  0  0  0  0  0  0  0
    9.6210   -0.6952   24.0976 C   0  0  0  0  0  0  0  0  0  0  0  0
    7.0792   -9.0217   17.1429 C   0  0  0  0  0  0  0  0  0  0  0  0
    3.1713  -10.1816   17.6634 C   0  0  0  0  0  0  0  0  0  0  0  0
    2.7878   -8.3822   16.2137 C   0  0  0  0  0  0  0  0  0  0  0  0
    9.4601   -2.6590   25.6528 C   0  0  0  0  0  0  0  0  0  0  0  0
   10.1182   -1.5672   23.1165 C   0  0  0  0  0  0  0  0  0  0  0  0
    1.0552   -9.6360   17.0650 C   0  0  0  0  0  0  0  0  0  0  0  0
    3.6519   -9.1783   16.9039 C   0  0  0  0  0  0  0  0  0  0  0  0
    7.8675   -7.0096   15.9415 C   0  0  0  0  0  0  0  0  0  0  0  0
    5.9733   -9.6553   17.3832 N   0  0  0  0  0  0  0  0  0  0  0  0
   10.2411   -2.9363   23.4301 C   0  0  0  0  0  0  0  0  0  0  0  0
   10.7288   -3.8197   19.9525 C   0  0  0  0  0  0  0  0  0  0  0  0
   10.1189   -5.0054   19.6987 C   0  0  0  0  0  0  0  0  0  0  0  0
  1  3  4  0
  1  7  4  0
  2 21  4  0
  2 27  4  0
  3  9  4  0
  3 10  4  0
  4  8  4  0
  4 18  4  0
  4 25  1  0
  5  9  4  0
  5 12  4  0
  6 13  1  0
  6 27  1  0
  7 28  4  0
  8 11  4  0
  9 29  4  0
 10 12  4  0
 11 24  1  0
 11 26  4  0
 12 25  1  0
 13 28  1  0
 14 20  4  0
 14 23  4  0
 15 17  4  0
 15 21  4  0
 16 19  4  0
 16 23  4  0
 17 22  4  0
 18 26  4  0
 19 24  4  0
 20 24  4  0
 22 27  4  0
 28 29  4  0
M  END
$$$$

 Created by Python create_sdf_string function

 29 33  0  0  0  0  0  0  0  0999 V2000
   10.7215   -3.3326   17.6437 C   0  0  0  0  0  0  0  0  0  0  0  0
    9.9489   -3.4675   24.6487 N   0  0  0  0  0  0  0  0  0  0  0  0
   10.0172   -4.4740   17.4101 C   0  0  0  0  0  0  0  0  0  0  0  0
    6.9051   -7.9575   16.4222 C   0  0  0  0  0  0  0  0  0  0  0  0
    8.9969   -6.3552   17.9668 N   0  0  0  0  0  0  0  0  0  0  0  0
   10.6702   -3.9051   22.4070 C   0  0  0  0  0  0  0  0  0  0  0  0
   11.0625   -3.0028   18.8894 C   0  0  0  0  0  0  0  0  0  0  0  0
    5.6180   -7.9194   16.1754 O   0  0  0  0  0  0  0  0  0  0  0  0
    9.7259   -5.3080   18.4485 C   0  0  0  0  0  0  0  0  0  0  0  0
    9.4578   -5.0200   16.3036 N   0  0  0  0  0  0  0  0  0  0  0  0
    5.0287   -8.9365   16.8223 C   0  0  0  0  0  0  0  0  0  0  0  0
    8.7742   -6.1498   16.6764 C   0  0  0  0  0  0  0  0  0  0  0  0
   10.9418   -3.4032   21.2053 O   0  0  0  0  0  0  0  0  0  0  0  0
    1.4797   -8.6258   16.2950 C   0  0  0  0  0  0  0  0  0  0  0  0
    9.2861   -1.2743   25.3585 C   0  0  0  0  0  0  0  0  0  0  0  0
    1.8892  -10.3985   17.7511 N   0  0  0  0  0  0  0  0  0  0  0  0
    9.6210   -0.6952   24.0976 C   0  0  0  0  0  0  0  0  0  0  0  0
    7.0792   -9.0217   17.1429 C   0  0  0  0  0  0  0  0  0  0  0  0
    3.1713  -10.1816   17.6634 C   0  0  0  0  0  0  0  0  0  0  0  0
    2.7878   -8.3822   16.2137 C   0  0  0  0  0  0  0  0  0  0  0  0
    9.4601   -2.6590   25.6528 C   0  0  0  0  0  0  0  0  0  0  0  0
   10.1182   -1.5672   23.1165 C   0  0  0  0  0  0  0  0  0  0  0  0
    1.0552   -9.6360   17.0650 C   0  0  0  0  0  0  0  0  0  0  0  0
    3.6519   -9.1783   16.9039 C   0  0  0  0  0  0  0  0  0  0  0  0
    7.8675   -7.0096   15.9415 C   0  0  0  0  0  0  0  0  0  0  0  0
    5.9733   -9.6553   17.3832 N   0  0  0  0  0  0  0  0  0  0  0  0
   10.2411   -2.9363   23.4301 C   0  0  0  0  0  0  0  0  0  0  0  0
   10.7288   -3.8197   19.9525 C   0  0  0  0  0  0  0  0  0  0  0  0
   10.1189   -5.0054   19.6987 C   0  0  0  0  0  0  0  0  0  0  0  0
  1  3  4  0
  1  7  4  0
  2 21  4  0
  2 27  4  0
  3  9  4  0
  3 10  4  0
  4  8  4  0
  4 18  4  0
  4 25  1  0
  5  9  4  0
  5 12  4  0
  6 13  1  0
  6 27  1  0
  7 28  4  0
  8 11  4  0
  9 29  4  0
 10 12  4  0
 11 24  1  0
 11 26  4  0
 12 25  1  0
 13 28  1  0
 14 20  4  0
 14 23  4  0
 15 17  4  0
 15 21  4  0
 16 19  4  0
 16 23  4  0
 17 22  4  0
 18 26  4  0
 19 24  4  0
 20 24  4  0
 22 27  4  0
 28 29  4  0
M  END
$$$$

 Created by Python create_sdf_string function

 29 33  0  0  0  0  0  0  0  0999 V2000
   10.7215   -3.3326   17.6437 C   0  0  0  0  0  0  0  0  0  0  0  0
    9.9489   -3.4675   24.6487 N   0  0  0  0  0  0  0  0  0  0  0  0
   10.0172   -4.4740   17.4101 C   0  0  0  0  0  0  0  0  0  0  0  0
    6.9051   -7.9575   16.4222 C   0  0  0  0  0  0  0  0  0  0  0  0
    8.9969   -6.3552   17.9668 N   0  0  0  0  0  0  0  0  0  0  0  0
   10.6702   -3.9051   22.4070 C   0  0  0  0  0  0  0  0  0  0  0  0
   11.0625   -3.0028   18.8894 C   0  0  0  0  0  0  0  0  0  0  0  0
    5.6180   -7.9194   16.1754 O   0  0  0  0  0  0  0  0  0  0  0  0
    9.7259   -5.3080   18.4485 C   0  0  0  0  0  0  0  0  0  0  0  0
    9.4578   -5.0200   16.3036 N   0  0  0  0  0  0  0  0  0  0  0  0
    5.0287   -8.9365   16.8223 C   0  0  0  0  0  0  0  0  0  0  0  0
    8.7742   -6.1498   16.6764 C   0  0  0  0  0  0  0  0  0  0  0  0
   10.9418   -3.4032   21.2053 O   0  0  0  0  0  0  0  0  0  0  0  0
    1.4797   -8.6258   16.2950 C   0  0  0  0  0  0  0  0  0  0  0  0
    9.2861   -1.2743   25.3585 C   0  0  0  0  0  0  0  0  0  0  0  0
    1.8892  -10.3985   17.7511 N   0  0  0  0  0  0  0  0  0  0  0  0
    9.6210   -0.6952   24.0976 C   0  0  0  0  0  0  0  0  0  0  0  0
    7.0792   -9.0217   17.1429 C   0  0  0  0  0  0  0  0  0  0  0  0
    3.1713  -10.1816   17.6634 C   0  0  0  0  0  0  0  0  0  0  0  0
    2.7878   -8.3822   16.2137 C   0  0  0  0  0  0  0  0  0  0  0  0
    9.4601   -2.6590   25.6528 C   0  0  0  0  0  0  0  0  0  0  0  0
   10.1182   -1.5672   23.1165 C   0  0  0  0  0  0  0  0  0  0  0  0
    1.0552   -9.6360   17.0650 C   0  0  0  0  0  0  0  0  0  0  0  0
    3.6519   -9.1783   16.9039 C   0  0  0  0  0  0  0  0  0  0  0  0
    7.8675   -7.0096   15.9415 C   0  0  0  0  0  0  0  0  0  0  0  0
    5.9733   -9.6553   17.3832 N   0  0  0  0  0  0  0  0  0  0  0  0
   10.2411   -2.9363   23.4301 C   0  0  0  0  0  0  0  0  0  0  0  0
   10.7288   -3.8197   19.9525 C   0  0  0  0  0  0  0  0  0  0  0  0
   10.1189   -5.0054   19.6987 C   0  0  0  0  0  0  0  0  0  0  0  0
  1  3  4  0
  1  7  4  0
  2 21  4  0
  2 27  4  0
  3  9  4  0
  3 10  4  0
  4  8  4  0
  4 18  4  0
  4 25  1  0
  5  9  4  0
  5 12  4  0
  6 13  1  0
  6 27  1  0
  7 28  4  0
  8 11  4  0
  9 29  4  0
 10 12  4  0
 11 24  1  0
 11 26  4  0
 12 25  1  0
 13 28  1  0
 14 20  4  0
 14 23  4  0
 15 17  4  0
 15 21  4  0
 16 19  4  0
 16 23  4  0
 17 22  4  0
 18 26  4  0
 19 24  4  0
 20 24  4  0
 22 27  4  0
 28 29  4  0
M  END
$$$$

 Created by Python create_sdf_string function

 29 33  0  0  0  0  0  0  0  0999 V2000
   10.7215   -3.3326   17.6437 C   0  0  0  0  0  0  0  0  0  0  0  0
    9.9489   -3.4675   24.6487 N   0  0  0  0  0  0  0  0  0  0  0  0
   10.0172   -4.4740   17.4101 C   0  0  0  0  0  0  0  0  0  0  0  0
    6.9051   -7.9575   16.4222 C   0  0  0  0  0  0  0  0  0  0  0  0
    8.9969   -6.3552   17.9668 N   0  0  0  0  0  0  0  0  0  0  0  0
   10.6702   -3.9051   22.4070 C   0  0  0  0  0  0  0  0  0  0  0  0
   11.0625   -3.0028   18.8894 C   0  0  0  0  0  0  0  0  0  0  0  0
    5.6180   -7.9194   16.1754 O   0  0  0  0  0  0  0  0  0  0  0  0
    9.7259   -5.3080   18.4485 C   0  0  0  0  0  0  0  0  0  0  0  0
    9.4578   -5.0200   16.3036 N   0  0  0  0  0  0  0  0  0  0  0  0
    5.0287   -8.9365   16.8223 C   0  0  0  0  0  0  0  0  0  0  0  0
    8.7742   -6.1498   16.6764 C   0  0  0  0  0  0  0  0  0  0  0  0
   10.9418   -3.4032   21.2053 O   0  0  0  0  0  0  0  0  0  0  0  0
    1.4797   -8.6258   16.2950 C   0  0  0  0  0  0  0  0  0  0  0  0
    9.2861   -1.2743   25.3585 C   0  0  0  0  0  0  0  0  0  0  0  0
    1.8892  -10.3985   17.7511 N   0  0  0  0  0  0  0  0  0  0  0  0
    9.6210   -0.6952   24.0976 C   0  0  0  0  0  0  0  0  0  0  0  0
    7.0792   -9.0217   17.1429 C   0  0  0  0  0  0  0  0  0  0  0  0
    3.1713  -10.1816   17.6634 C   0  0  0  0  0  0  0  0  0  0  0  0
    2.7878   -8.3822   16.2137 C   0  0  0  0  0  0  0  0  0  0  0  0
    9.4601   -2.6590   25.6528 C   0  0  0  0  0  0  0  0  0  0  0  0
   10.1182   -1.5672   23.1165 C   0  0  0  0  0  0  0  0  0  0  0  0
    1.0552   -9.6360   17.0650 C   0  0  0  0  0  0  0  0  0  0  0  0
    3.6519   -9.1783   16.9039 C   0  0  0  0  0  0  0  0  0  0  0  0
    7.8675   -7.0096   15.9415 C   0  0  0  0  0  0  0  0  0  0  0  0
    5.9733   -9.6553   17.3832 N   0  0  0  0  0  0  0  0  0  0  0  0
   10.2411   -2.9363   23.4301 C   0  0  0  0  0  0  0  0  0  0  0  0
   10.7288   -3.8197   19.9525 C   0  0  0  0  0  0  0  0  0  0  0  0
   10.1189   -5.0054   19.6987 C   0  0  0  0  0  0  0  0  0  0  0  0
  1  3  4  0
  1  7  4  0
  2 21  4  0
  2 27  4  0
  3  9  4  0
  3 10  4  0
  4  8  4  0
  4 18  4  0
  4 25  1  0
  5  9  4  0
  5 12  4  0
  6 13  1  0
  6 27  1  0
  7 28  4  0
  8 11  4  0
  9 29  4  0
 10 12  4  0
 11 24  1  0
 11 26  4  0
 12 25  1  0
 13 28  1  0
 14 20  4  0
 14 23  4  0
 15 17  4  0
 15 21  4  0
 16 19  4  0
 16 23  4  0
 17 22  4  0
 18 26  4  0
 19 24  4  0
 20 24  4  0
 22 27  4  0
 28 29  4  0
M  END
$$$$

 Created by Python create_sdf_string function

 29 33  0  0  0  0  0  0  0  0999 V2000
   10.7215   -3.3326   17.6437 C   0  0  0  0  0  0  0  0  0  0  0  0
    9.9489   -3.4675   24.6487 N   0  0  0  0  0  0  0  0  0  0  0  0
   10.0172   -4.4740   17.4101 C   0  0  0  0  0  0  0  0  0  0  0  0
    6.9051   -7.9575   16.4222 C   0  0  0  0  0  0  0  0  0  0  0  0
    8.9969   -6.3552   17.9668 N   0  0  0  0  0  0  0  0  0  0  0  0
   10.6702   -3.9051   22.4070 C   0  0  0  0  0  0  0  0  0  0  0  0
   11.0625   -3.0028   18.8894 C   0  0  0  0  0  0  0  0  0  0  0  0
    5.6180   -7.9194   16.1754 O   0  0  0  0  0  0  0  0  0  0  0  0
    9.7259   -5.3080   18.4485 C   0  0  0  0  0  0  0  0  0  0  0  0
    9.4578   -5.0200   16.3036 N   0  0  0  0  0  0  0  0  0  0  0  0
    5.0287   -8.9365   16.8223 C   0  0  0  0  0  0  0  0  0  0  0  0
    8.7742   -6.1498   16.6764 C   0  0  0  0  0  0  0  0  0  0  0  0
   10.9418   -3.4032   21.2053 O   0  0  0  0  0  0  0  0  0  0  0  0
    1.4797   -8.6258   16.2950 C   0  0  0  0  0  0  0  0  0  0  0  0
    9.2861   -1.2743   25.3585 C   0  0  0  0  0  0  0  0  0  0  0  0
    1.8892  -10.3985   17.7511 N   0  0  0  0  0  0  0  0  0  0  0  0
    9.6210   -0.6952   24.0976 C   0  0  0  0  0  0  0  0  0  0  0  0
    7.0792   -9.0217   17.1429 C   0  0  0  0  0  0  0  0  0  0  0  0
    3.1713  -10.1816   17.6634 C   0  0  0  0  0  0  0  0  0  0  0  0
    2.7878   -8.3822   16.2137 C   0  0  0  0  0  0  0  0  0  0  0  0
    9.4601   -2.6590   25.6528 C   0  0  0  0  0  0  0  0  0  0  0  0
   10.1182   -1.5672   23.1165 C   0  0  0  0  0  0  0  0  0  0  0  0
    1.0552   -9.6360   17.0650 C   0  0  0  0  0  0  0  0  0  0  0  0
    3.6519   -9.1783   16.9039 C   0  0  0  0  0  0  0  0  0  0  0  0
    7.8675   -7.0096   15.9415 C   0  0  0  0  0  0  0  0  0  0  0  0
    5.9733   -9.6553   17.3832 N   0  0  0  0  0  0  0  0  0  0  0  0
   10.2411   -2.9363   23.4301 C   0  0  0  0  0  0  0  0  0  0  0  0
   10.7288   -3.8197   19.9525 C   0  0  0  0  0  0  0  0  0  0  0  0
   10.1189   -5.0054   19.6987 C   0  0  0  0  0  0  0  0  0  0  0  0
  1  3  4  0
  1  7  4  0
  2 21  4  0
  2 27  4  0
  3  9  4  0
  3 10  4  0
  4  8  4  0
  4 18  4  0
  4 25  1  0
  5  9  4  0
  5 12  4  0
  6 13  1  0
  6 27  1  0
  7 28  4  0
  8 11  4  0
  9 29  4  0
 10 12  4  0
 11 24  1  0
 11 26  4  0
 12 25  1  0
 13 28  1  0
 14 20  4  0
 14 23  4  0
 15 17  4  0
 15 21  4  0
 16 19  4  0
 16 23  4  0
 17 22  4  0
 18 26  4  0
 19 24  4  0
 20 24  4  0
 22 27  4  0
 28 29  4  0
M  END
$$$$

 Created by Python create_sdf_string function

 29 33  0  0  0  0  0  0  0  0999 V2000
   10.7215   -3.3326   17.6437 C   0  0  0  0  0  0  0  0  0  0  0  0
    9.9489   -3.4675   24.6487 N   0  0  0  0  0  0  0  0  0  0  0  0
   10.0172   -4.4740   17.4101 C   0  0  0  0  0  0  0  0  0  0  0  0
    6.9051   -7.9575   16.4222 C   0  0  0  0  0  0  0  0  0  0  0  0
    8.9969   -6.3552   17.9668 N   0  0  0  0  0  0  0  0  0  0  0  0
   10.6702   -3.9051   22.4070 C   0  0  0  0  0  0  0  0  0  0  0  0
   11.0625   -3.0028   18.8894 C   0  0  0  0  0  0  0  0  0  0  0  0
    5.6180   -7.9194   16.1754 O   0  0  0  0  0  0  0  0  0  0  0  0
    9.7259   -5.3080   18.4485 C   0  0  0  0  0  0  0  0  0  0  0  0
    9.4578   -5.0200   16.3036 N   0  0  0  0  0  0  0  0  0  0  0  0
    5.0287   -8.9365   16.8223 C   0  0  0  0  0  0  0  0  0  0  0  0
    8.7742   -6.1498   16.6764 C   0  0  0  0  0  0  0  0  0  0  0  0
   10.9418   -3.4032   21.2053 O   0  0  0  0  0  0  0  0  0  0  0  0
    1.4797   -8.6258   16.2950 C   0  0  0  0  0  0  0  0  0  0  0  0
    9.2861   -1.2743   25.3585 C   0  0  0  0  0  0  0  0  0  0  0  0
    1.8892  -10.3985   17.7511 N   0  0  0  0  0  0  0  0  0  0  0  0
    9.6210   -0.6952   24.0976 C   0  0  0  0  0  0  0  0  0  0  0  0
    7.0792   -9.0217   17.1429 C   0  0  0  0  0  0  0  0  0  0  0  0
    3.1713  -10.1816   17.6634 C   0  0  0  0  0  0  0  0  0  0  0  0
    2.7878   -8.3822   16.2137 C   0  0  0  0  0  0  0  0  0  0  0  0
    9.4601   -2.6590   25.6528 C   0  0  0  0  0  0  0  0  0  0  0  0
   10.1182   -1.5672   23.1165 C   0  0  0  0  0  0  0  0  0  0  0  0
    1.0552   -9.6360   17.0650 C   0  0  0  0  0  0  0  0  0  0  0  0
    3.6519   -9.1783   16.9039 C   0  0  0  0  0  0  0  0  0  0  0  0
    7.8675   -7.0096   15.9415 C   0  0  0  0  0  0  0  0  0  0  0  0
    5.9733   -9.6553   17.3832 N   0  0  0  0  0  0  0  0  0  0  0  0
   10.2411   -2.9363   23.4301 C   0  0  0  0  0  0  0  0  0  0  0  0
   10.7288   -3.8197   19.9525 C   0  0  0  0  0  0  0  0  0  0  0  0
   10.1189   -5.0054   19.6987 C   0  0  0  0  0  0  0  0  0  0  0  0
  1  3  4  0
  1  7  4  0
  2 21  4  0
  2 27  4  0
  3  9  4  0
  3 10  4  0
  4  8  4  0
  4 18  4  0
  4 25  1  0
  5  9  4  0
  5 12  4  0
  6 13  1  0
  6 27  1  0
  7 28  4  0
  8 11  4  0
  9 29  4  0
 10 12  4  0
 11 24  1  0
 11 26  4  0
 12 25  1  0
 13 28  1  0
 14 20  4  0
 14 23  4  0
 15 17  4  0
 15 21  4  0
 16 19  4  0
 16 23  4  0
 17 22  4  0
 18 26  4  0
 19 24  4  0
 20 24  4  0
 22 27  4  0
 28 29  4  0
M  END
$$$$

 Created by Python create_sdf_string function

 29 33  0  0  0  0  0  0  0  0999 V2000
   10.7215   -3.3326   17.6437 C   0  0  0  0  0  0  0  0  0  0  0  0
    9.9489   -3.4675   24.6487 N   0  0  0  0  0  0  0  0  0  0  0  0
   10.0172   -4.4740   17.4101 C   0  0  0  0  0  0  0  0  0  0  0  0
    6.9051   -7.9575   16.4222 C   0  0  0  0  0  0  0  0  0  0  0  0
    8.9969   -6.3552   17.9668 N   0  0  0  0  0  0  0  0  0  0  0  0
   10.6702   -3.9051   22.4070 C   0  0  0  0  0  0  0  0  0  0  0  0
   11.0625   -3.0028   18.8894 C   0  0  0  0  0  0  0  0  0  0  0  0
    5.6180   -7.9194   16.1754 O   0  0  0  0  0  0  0  0  0  0  0  0
    9.7259   -5.3080   18.4485 C   0  0  0  0  0  0  0  0  0  0  0  0
    9.4578   -5.0200   16.3036 N   0  0  0  0  0  0  0  0  0  0  0  0
    5.0287   -8.9365   16.8223 C   0  0  0  0  0  0  0  0  0  0  0  0
    8.7742   -6.1498   16.6764 C   0  0  0  0  0  0  0  0  0  0  0  0
   10.9418   -3.4032   21.2053 O   0  0  0  0  0  0  0  0  0  0  0  0
    1.4797   -8.6258   16.2950 C   0  0  0  0  0  0  0  0  0  0  0  0
    9.2861   -1.2743   25.3585 C   0  0  0  0  0  0  0  0  0  0  0  0
    1.8892  -10.3985   17.7511 N   0  0  0  0  0  0  0  0  0  0  0  0
    9.6210   -0.6952   24.0976 C   0  0  0  0  0  0  0  0  0  0  0  0
    7.0792   -9.0217   17.1429 C   0  0  0  0  0  0  0  0  0  0  0  0
    3.1713  -10.1816   17.6634 C   0  0  0  0  0  0  0  0  0  0  0  0
    2.7878   -8.3822   16.2137 C   0  0  0  0  0  0  0  0  0  0  0  0
    9.4601   -2.6590   25.6528 C   0  0  0  0  0  0  0  0  0  0  0  0
   10.1182   -1.5672   23.1165 C   0  0  0  0  0  0  0  0  0  0  0  0
    1.0552   -9.6360   17.0650 C   0  0  0  0  0  0  0  0  0  0  0  0
    3.6519   -9.1783   16.9039 C   0  0  0  0  0  0  0  0  0  0  0  0
    7.8675   -7.0096   15.9415 C   0  0  0  0  0  0  0  0  0  0  0  0
    5.9733   -9.6553   17.3832 N   0  0  0  0  0  0  0  0  0  0  0  0
   10.2411   -2.9363   23.4301 C   0  0  0  0  0  0  0  0  0  0  0  0
   10.7288   -3.8197   19.9525 C   0  0  0  0  0  0  0  0  0  0  0  0
   10.1189   -5.0054   19.6987 C   0  0  0  0  0  0  0  0  0  0  0  0
  1  3  4  0
  1  7  4  0
  2 21  4  0
  2 27  4  0
  3  9  4  0
  3 10  4  0
  4  8  4  0
  4 18  4  0
  4 25  1  0
  5  9  4  0
  5 12  4  0
  6 13  1  0
  6 27  1  0
  7 28  4  0
  8 11  4  0
  9 29  4  0
 10 12  4  0
 11 24  1  0
 11 26  4  0
 12 25  1  0
 13 28  1  0
 14 20  4  0
 14 23  4  0
 15 17  4  0
 15 21  4  0
 16 19  4  0
 16 23  4  0
 17 22  4  0
 18 26  4  0
 19 24  4  0
 20 24  4  0
 22 27  4  0
 28 29  4  0
M  END
$$$$

 Created by Python create_sdf_string function

 29 33  0  0  0  0  0  0  0  0999 V2000
   10.7215   -3.3326   17.6437 C   0  0  0  0  0  0  0  0  0  0  0  0
    9.9489   -3.4675   24.6487 N   0  0  0  0  0  0  0  0  0  0  0  0
   10.0172   -4.4740   17.4101 C   0  0  0  0  0  0  0  0  0  0  0  0
    6.9051   -7.9575   16.4222 C   0  0  0  0  0  0  0  0  0  0  0  0
    8.9969   -6.3552   17.9668 N   0  0  0  0  0  0  0  0  0  0  0  0
   10.6702   -3.9051   22.4070 C   0  0  0  0  0  0  0  0  0  0  0  0
   11.0625   -3.0028   18.8894 C   0  0  0  0  0  0  0  0  0  0  0  0
    5.6180   -7.9194   16.1754 O   0  0  0  0  0  0  0  0  0  0  0  0
    9.7259   -5.3080   18.4485 C   0  0  0  0  0  0  0  0  0  0  0  0
    9.4578   -5.0200   16.3036 N   0  0  0  0  0  0  0  0  0  0  0  0
    5.0287   -8.9365   16.8223 C   0  0  0  0  0  0  0  0  0  0  0  0
    8.7742   -6.1498   16.6764 C   0  0  0  0  0  0  0  0  0  0  0  0
   10.9418   -3.4032   21.2053 O   0  0  0  0  0  0  0  0  0  0  0  0
    1.4797   -8.6258   16.2950 C   0  0  0  0  0  0  0  0  0  0  0  0
    9.2861   -1.2743   25.3585 C   0  0  0  0  0  0  0  0  0  0  0  0
    1.8892  -10.3985   17.7511 N   0  0  0  0  0  0  0  0  0  0  0  0
    9.6210   -0.6952   24.0976 C   0  0  0  0  0  0  0  0  0  0  0  0
    7.0792   -9.0217   17.1429 C   0  0  0  0  0  0  0  0  0  0  0  0
    3.1713  -10.1816   17.6634 C   0  0  0  0  0  0  0  0  0  0  0  0
    2.7878   -8.3822   16.2137 C   0  0  0  0  0  0  0  0  0  0  0  0
    9.4601   -2.6590   25.6528 C   0  0  0  0  0  0  0  0  0  0  0  0
   10.1182   -1.5672   23.1165 C   0  0  0  0  0  0  0  0  0  0  0  0
    1.0552   -9.6360   17.0650 C   0  0  0  0  0  0  0  0  0  0  0  0
    3.6519   -9.1783   16.9039 C   0  0  0  0  0  0  0  0  0  0  0  0
    7.8675   -7.0096   15.9415 C   0  0  0  0  0  0  0  0  0  0  0  0
    5.9733   -9.6553   17.3832 N   0  0  0  0  0  0  0  0  0  0  0  0
   10.2411   -2.9363   23.4301 C   0  0  0  0  0  0  0  0  0  0  0  0
   10.7288   -3.8197   19.9525 C   0  0  0  0  0  0  0  0  0  0  0  0
   10.1189   -5.0054   19.6987 C   0  0  0  0  0  0  0  0  0  0  0  0
  1  3  4  0
  1  7  4  0
  2 21  4  0
  2 27  4  0
  3  9  4  0
  3 10  4  0
  4  8  4  0
  4 18  4  0
  4 25  1  0
  5  9  4  0
  5 12  4  0
  6 13  1  0
  6 27  1  0
  7 28  4  0
  8 11  4  0
  9 29  4  0
 10 12  4  0
 11 24  1  0
 11 26  4  0
 12 25  1  0
 13 28  1  0
 14 20  4  0
 14 23  4  0
 15 17  4  0
 15 21  4  0
 16 19  4  0
 16 23  4  0
 17 22  4  0
 18 26  4  0
 19 24  4  0
 20 24  4  0
 22 27  4  0
 28 29  4  0
M  END
$$$$

 Created by Python create_sdf_string function

 29 33  0  0  0  0  0  0  0  0999 V2000
   10.7215   -3.3326   17.6437 C   0  0  0  0  0  0  0  0  0  0  0  0
    9.9489   -3.4675   24.6487 N   0  0  0  0  0  0  0  0  0  0  0  0
   10.0172   -4.4740   17.4101 C   0  0  0  0  0  0  0  0  0  0  0  0
    6.9051   -7.9575   16.4222 C   0  0  0  0  0  0  0  0  0  0  0  0
    8.9969   -6.3552   17.9668 N   0  0  0  0  0  0  0  0  0  0  0  0
   10.6702   -3.9051   22.4070 C   0  0  0  0  0  0  0  0  0  0  0  0
   11.0625   -3.0028   18.8894 C   0  0  0  0  0  0  0  0  0  0  0  0
    5.6180   -7.9194   16.1754 O   0  0  0  0  0  0  0  0  0  0  0  0
    9.7259   -5.3080   18.4485 C   0  0  0  0  0  0  0  0  0  0  0  0
    9.4578   -5.0200   16.3036 N   0  0  0  0  0  0  0  0  0  0  0  0
    5.0287   -8.9365   16.8223 C   0  0  0  0  0  0  0  0  0  0  0  0
    8.7742   -6.1498   16.6764 C   0  0  0  0  0  0  0  0  0  0  0  0
   10.9418   -3.4032   21.2053 O   0  0  0  0  0  0  0  0  0  0  0  0
    1.4797   -8.6258   16.2950 C   0  0  0  0  0  0  0  0  0  0  0  0
    9.2861   -1.2743   25.3585 C   0  0  0  0  0  0  0  0  0  0  0  0
    1.8892  -10.3985   17.7511 N   0  0  0  0  0  0  0  0  0  0  0  0
    9.6210   -0.6952   24.0976 C   0  0  0  0  0  0  0  0  0  0  0  0
    7.0792   -9.0217   17.1429 C   0  0  0  0  0  0  0  0  0  0  0  0
    3.1713  -10.1816   17.6634 C   0  0  0  0  0  0  0  0  0  0  0  0
    2.7878   -8.3822   16.2137 C   0  0  0  0  0  0  0  0  0  0  0  0
    9.4601   -2.6590   25.6528 C   0  0  0  0  0  0  0  0  0  0  0  0
   10.1182   -1.5672   23.1165 C   0  0  0  0  0  0  0  0  0  0  0  0
    1.0552   -9.6360   17.0650 C   0  0  0  0  0  0  0  0  0  0  0  0
    3.6519   -9.1783   16.9039 C   0  0  0  0  0  0  0  0  0  0  0  0
    7.8675   -7.0096   15.9415 C   0  0  0  0  0  0  0  0  0  0  0  0
    5.9733   -9.6553   17.3832 N   0  0  0  0  0  0  0  0  0  0  0  0
   10.2411   -2.9363   23.4301 C   0  0  0  0  0  0  0  0  0  0  0  0
   10.7288   -3.8197   19.9525 C   0  0  0  0  0  0  0  0  0  0  0  0
   10.1189   -5.0054   19.6987 C   0  0  0  0  0  0  0  0  0  0  0  0
  1  3  4  0
  1  7  4  0
  2 21  4  0
  2 27  4  0
  3  9  4  0
  3 10  4  0
  4  8  4  0
  4 18  4  0
  4 25  1  0
  5  9  4  0
  5 12  4  0
  6 13  1  0
  6 27  1  0
  7 28  4  0
  8 11  4  0
  9 29  4  0
 10 12  4  0
 11 24  1  0
 11 26  4  0
 12 25  1  0
 13 28  1  0
 14 20  4  0
 14 23  4  0
 15 17  4  0
 15 21  4  0
 16 19  4  0
 16 23  4  0
 17 22  4  0
 18 26  4  0
 19 24  4  0
 20 24  4  0
 22 27  4  0
 28 29  4  0
M  END
$$$$

 Created by Python create_sdf_string function

 29 33  0  0  0  0  0  0  0  0999 V2000
   10.7215   -3.3326   17.6437 C   0  0  0  0  0  0  0  0  0  0  0  0
    9.9489   -3.4675   24.6487 N   0  0  0  0  0  0  0  0  0  0  0  0
   10.0172   -4.4740   17.4101 C   0  0  0  0  0  0  0  0  0  0  0  0
    6.9051   -7.9575   16.4222 C   0  0  0  0  0  0  0  0  0  0  0  0
    8.9969   -6.3552   17.9668 N   0  0  0  0  0  0  0  0  0  0  0  0
   10.6702   -3.9051   22.4070 C   0  0  0  0  0  0  0  0  0  0  0  0
   11.0625   -3.0028   18.8894 C   0  0  0  0  0  0  0  0  0  0  0  0
    5.6180   -7.9194   16.1754 O   0  0  0  0  0  0  0  0  0  0  0  0
    9.7259   -5.3080   18.4485 C   0  0  0  0  0  0  0  0  0  0  0  0
    9.4578   -5.0200   16.3036 N   0  0  0  0  0  0  0  0  0  0  0  0
    5.0287   -8.9365   16.8223 C   0  0  0  0  0  0  0  0  0  0  0  0
    8.7742   -6.1498   16.6764 C   0  0  0  0  0  0  0  0  0  0  0  0
   10.9418   -3.4032   21.2053 O   0  0  0  0  0  0  0  0  0  0  0  0
    1.4797   -8.6258   16.2950 C   0  0  0  0  0  0  0  0  0  0  0  0
    9.2861   -1.2743   25.3585 C   0  0  0  0  0  0  0  0  0  0  0  0
    1.8892  -10.3985   17.7511 N   0  0  0  0  0  0  0  0  0  0  0  0
    9.6210   -0.6952   24.0976 C   0  0  0  0  0  0  0  0  0  0  0  0
    7.0792   -9.0217   17.1429 C   0  0  0  0  0  0  0  0  0  0  0  0
    3.1713  -10.1816   17.6634 C   0  0  0  0  0  0  0  0  0  0  0  0
    2.7878   -8.3822   16.2137 C   0  0  0  0  0  0  0  0  0  0  0  0
    9.4601   -2.6590   25.6528 C   0  0  0  0  0  0  0  0  0  0  0  0
   10.1182   -1.5672   23.1165 C   0  0  0  0  0  0  0  0  0  0  0  0
    1.0552   -9.6360   17.0650 C   0  0  0  0  0  0  0  0  0  0  0  0
    3.6519   -9.1783   16.9039 C   0  0  0  0  0  0  0  0  0  0  0  0
    7.8675   -7.0096   15.9415 C   0  0  0  0  0  0  0  0  0  0  0  0
    5.9733   -9.6553   17.3832 N   0  0  0  0  0  0  0  0  0  0  0  0
   10.2411   -2.9363   23.4301 C   0  0  0  0  0  0  0  0  0  0  0  0
   10.7288   -3.8197   19.9525 C   0  0  0  0  0  0  0  0  0  0  0  0
   10.1189   -5.0054   19.6987 C   0  0  0  0  0  0  0  0  0  0  0  0
  1  3  4  0
  1  7  4  0
  2 21  4  0
  2 27  4  0
  3  9  4  0
  3 10  4  0
  4  8  4  0
  4 18  4  0
  4 25  1  0
  5  9  4  0
  5 12  4  0
  6 13  1  0
  6 27  1  0
  7 28  4  0
  8 11  4  0
  9 29  4  0
 10 12  4  0
 11 24  1  0
 11 26  4  0
 12 25  1  0
 13 28  1  0
 14 20  4  0
 14 23  4  0
 15 17  4  0
 15 21  4  0
 16 19  4  0
 16 23  4  0
 17 22  4  0
 18 26  4  0
 19 24  4  0
 20 24  4  0
 22 27  4  0
 28 29  4  0
M  END
$$$$

 Created by Python create_sdf_string function

 29 33  0  0  0  0  0  0  0  0999 V2000
   10.7215   -3.3326   17.6437 C   0  0  0  0  0  0  0  0  0  0  0  0
    9.9489   -3.4675   24.6487 N   0  0  0  0  0  0  0  0  0  0  0  0
   10.0172   -4.4740   17.4101 C   0  0  0  0  0  0  0  0  0  0  0  0
    6.9051   -7.9575   16.4222 C   0  0  0  0  0  0  0  0  0  0  0  0
    8.9969   -6.3552   17.9668 N   0  0  0  0  0  0  0  0  0  0  0  0
   10.6702   -3.9051   22.4070 C   0  0  0  0  0  0  0  0  0  0  0  0
   11.0625   -3.0028   18.8894 C   0  0  0  0  0  0  0  0  0  0  0  0
    5.6180   -7.9194   16.1754 O   0  0  0  0  0  0  0  0  0  0  0  0
    9.7259   -5.3080   18.4485 C   0  0  0  0  0  0  0  0  0  0  0  0
    9.4578   -5.0200   16.3036 N   0  0  0  0  0  0  0  0  0  0  0  0
    5.0287   -8.9365   16.8223 C   0  0  0  0  0  0  0  0  0  0  0  0
    8.7742   -6.1498   16.6764 C   0  0  0  0  0  0  0  0  0  0  0  0
   10.9418   -3.4032   21.2053 O   0  0  0  0  0  0  0  0  0  0  0  0
    1.4797   -8.6258   16.2950 C   0  0  0  0  0  0  0  0  0  0  0  0
    9.2861   -1.2743   25.3585 C   0  0  0  0  0  0  0  0  0  0  0  0
    1.8892  -10.3985   17.7511 N   0  0  0  0  0  0  0  0  0  0  0  0
    9.6210   -0.6952   24.0976 C   0  0  0  0  0  0  0  0  0  0  0  0
    7.0792   -9.0217   17.1429 C   0  0  0  0  0  0  0  0  0  0  0  0
    3.1713  -10.1816   17.6634 C   0  0  0  0  0  0  0  0  0  0  0  0
    2.7878   -8.3822   16.2137 C   0  0  0  0  0  0  0  0  0  0  0  0
    9.4601   -2.6590   25.6528 C   0  0  0  0  0  0  0  0  0  0  0  0
   10.1182   -1.5672   23.1165 C   0  0  0  0  0  0  0  0  0  0  0  0
    1.0552   -9.6360   17.0650 C   0  0  0  0  0  0  0  0  0  0  0  0
    3.6519   -9.1783   16.9039 C   0  0  0  0  0  0  0  0  0  0  0  0
    7.8675   -7.0096   15.9415 C   0  0  0  0  0  0  0  0  0  0  0  0
    5.9733   -9.6553   17.3832 N   0  0  0  0  0  0  0  0  0  0  0  0
   10.2411   -2.9363   23.4301 C   0  0  0  0  0  0  0  0  0  0  0  0
   10.7288   -3.8197   19.9525 C   0  0  0  0  0  0  0  0  0  0  0  0
   10.1189   -5.0054   19.6987 C   0  0  0  0  0  0  0  0  0  0  0  0
  1  3  4  0
  1  7  4  0
  2 21  4  0
  2 27  4  0
  3  9  4  0
  3 10  4  0
  4  8  4  0
  4 18  4  0
  4 25  1  0
  5  9  4  0
  5 12  4  0
  6 13  1  0
  6 27  1  0
  7 28  4  0
  8 11  4  0
  9 29  4  0
 10 12  4  0
 11 24  1  0
 11 26  4  0
 12 25  1  0
 13 28  1  0
 14 20  4  0
 14 23  4  0
 15 17  4  0
 15 21  4  0
 16 19  4  0
 16 23  4  0
 17 22  4  0
 18 26  4  0
 19 24  4  0
 20 24  4  0
 22 27  4  0
 28 29  4  0
M  END
$$$$

 Created by Python create_sdf_string function

 29 33  0  0  0  0  0  0  0  0999 V2000
   10.7215   -3.3326   17.6437 C   0  0  0  0  0  0  0  0  0  0  0  0
    9.9489   -3.4675   24.6487 N   0  0  0  0  0  0  0  0  0  0  0  0
   10.0172   -4.4740   17.4101 C   0  0  0  0  0  0  0  0  0  0  0  0
    6.9051   -7.9575   16.4222 C   0  0  0  0  0  0  0  0  0  0  0  0
    8.9969   -6.3552   17.9668 N   0  0  0  0  0  0  0  0  0  0  0  0
   10.6702   -3.9051   22.4070 C   0  0  0  0  0  0  0  0  0  0  0  0
   11.0625   -3.0028   18.8894 C   0  0  0  0  0  0  0  0  0  0  0  0
    5.6180   -7.9194   16.1754 O   0  0  0  0  0  0  0  0  0  0  0  0
    9.7259   -5.3080   18.4485 C   0  0  0  0  0  0  0  0  0  0  0  0
    9.4578   -5.0200   16.3036 N   0  0  0  0  0  0  0  0  0  0  0  0
    5.0287   -8.9365   16.8223 C   0  0  0  0  0  0  0  0  0  0  0  0
    8.7742   -6.1498   16.6764 C   0  0  0  0  0  0  0  0  0  0  0  0
   10.9418   -3.4032   21.2053 O   0  0  0  0  0  0  0  0  0  0  0  0
    1.4797   -8.6258   16.2950 C   0  0  0  0  0  0  0  0  0  0  0  0
    9.2861   -1.2743   25.3585 C   0  0  0  0  0  0  0  0  0  0  0  0
    1.8892  -10.3985   17.7511 N   0  0  0  0  0  0  0  0  0  0  0  0
    9.6210   -0.6952   24.0976 C   0  0  0  0  0  0  0  0  0  0  0  0
    7.0792   -9.0217   17.1429 C   0  0  0  0  0  0  0  0  0  0  0  0
    3.1713  -10.1816   17.6634 C   0  0  0  0  0  0  0  0  0  0  0  0
    2.7878   -8.3822   16.2137 C   0  0  0  0  0  0  0  0  0  0  0  0
    9.4601   -2.6590   25.6528 C   0  0  0  0  0  0  0  0  0  0  0  0
   10.1182   -1.5672   23.1165 C   0  0  0  0  0  0  0  0  0  0  0  0
    1.0552   -9.6360   17.0650 C   0  0  0  0  0  0  0  0  0  0  0  0
    3.6519   -9.1783   16.9039 C   0  0  0  0  0  0  0  0  0  0  0  0
    7.8675   -7.0096   15.9415 C   0  0  0  0  0  0  0  0  0  0  0  0
    5.9733   -9.6553   17.3832 N   0  0  0  0  0  0  0  0  0  0  0  0
   10.2411   -2.9363   23.4301 C   0  0  0  0  0  0  0  0  0  0  0  0
   10.7288   -3.8197   19.9525 C   0  0  0  0  0  0  0  0  0  0  0  0
   10.1189   -5.0054   19.6987 C   0  0  0  0  0  0  0  0  0  0  0  0
  1  3  4  0
  1  7  4  0
  2 21  4  0
  2 27  4  0
  3  9  4  0
  3 10  4  0
  4  8  4  0
  4 18  4  0
  4 25  1  0
  5  9  4  0
  5 12  4  0
  6 13  1  0
  6 27  1  0
  7 28  4  0
  8 11  4  0
  9 29  4  0
 10 12  4  0
 11 24  1  0
 11 26  4  0
 12 25  1  0
 13 28  1  0
 14 20  4  0
 14 23  4  0
 15 17  4  0
 15 21  4  0
 16 19  4  0
 16 23  4  0
 17 22  4  0
 18 26  4  0
 19 24  4  0
 20 24  4  0
 22 27  4  0
 28 29  4  0
M  END
$$$$

 Created by Python create_sdf_string function

 29 33  0  0  0  0  0  0  0  0999 V2000
   10.7215   -3.3326   17.6437 C   0  0  0  0  0  0  0  0  0  0  0  0
    9.9489   -3.4675   24.6487 N   0  0  0  0  0  0  0  0  0  0  0  0
   10.0172   -4.4740   17.4101 C   0  0  0  0  0  0  0  0  0  0  0  0
    6.9051   -7.9575   16.4222 C   0  0  0  0  0  0  0  0  0  0  0  0
    8.9969   -6.3552   17.9668 N   0  0  0  0  0  0  0  0  0  0  0  0
   10.6702   -3.9051   22.4070 C   0  0  0  0  0  0  0  0  0  0  0  0
   11.0625   -3.0028   18.8894 C   0  0  0  0  0  0  0  0  0  0  0  0
    5.6180   -7.9194   16.1754 O   0  0  0  0  0  0  0  0  0  0  0  0
    9.7259   -5.3080   18.4485 C   0  0  0  0  0  0  0  0  0  0  0  0
    9.4578   -5.0200   16.3036 N   0  0  0  0  0  0  0  0  0  0  0  0
    5.0287   -8.9365   16.8223 C   0  0  0  0  0  0  0  0  0  0  0  0
    8.7742   -6.1498   16.6764 C   0  0  0  0  0  0  0  0  0  0  0  0
   10.9418   -3.4032   21.2053 O   0  0  0  0  0  0  0  0  0  0  0  0
    1.4797   -8.6258   16.2950 C   0  0  0  0  0  0  0  0  0  0  0  0
    9.2861   -1.2743   25.3585 C   0  0  0  0  0  0  0  0  0  0  0  0
    1.8892  -10.3985   17.7511 N   0  0  0  0  0  0  0  0  0  0  0  0
    9.6210   -0.6952   24.0976 C   0  0  0  0  0  0  0  0  0  0  0  0
    7.0792   -9.0217   17.1429 C   0  0  0  0  0  0  0  0  0  0  0  0
    3.1713  -10.1816   17.6634 C   0  0  0  0  0  0  0  0  0  0  0  0
    2.7878   -8.3822   16.2137 C   0  0  0  0  0  0  0  0  0  0  0  0
    9.4601   -2.6590   25.6528 C   0  0  0  0  0  0  0  0  0  0  0  0
   10.1182   -1.5672   23.1165 C   0  0  0  0  0  0  0  0  0  0  0  0
    1.0552   -9.6360   17.0650 C   0  0  0  0  0  0  0  0  0  0  0  0
    3.6519   -9.1783   16.9039 C   0  0  0  0  0  0  0  0  0  0  0  0
    7.8675   -7.0096   15.9415 C   0  0  0  0  0  0  0  0  0  0  0  0
    5.9733   -9.6553   17.3832 N   0  0  0  0  0  0  0  0  0  0  0  0
   10.2411   -2.9363   23.4301 C   0  0  0  0  0  0  0  0  0  0  0  0
   10.7288   -3.8197   19.9525 C   0  0  0  0  0  0  0  0  0  0  0  0
   10.1189   -5.0054   19.6987 C   0  0  0  0  0  0  0  0  0  0  0  0
  1  3  4  0
  1  7  4  0
  2 21  4  0
  2 27  4  0
  3  9  4  0
  3 10  4  0
  4  8  4  0
  4 18  4  0
  4 25  1  0
  5  9  4  0
  5 12  4  0
  6 13  1  0
  6 27  1  0
  7 28  4  0
  8 11  4  0
  9 29  4  0
 10 12  4  0
 11 24  1  0
 11 26  4  0
 12 25  1  0
 13 28  1  0
 14 20  4  0
 14 23  4  0
 15 17  4  0
 15 21  4  0
 16 19  4  0
 16 23  4  0
 17 22  4  0
 18 26  4  0
 19 24  4  0
 20 24  4  0
 22 27  4  0
 28 29  4  0
M  END
$$$$

 Created by Python create_sdf_string function

 29 33  0  0  0  0  0  0  0  0999 V2000
   10.7215   -3.3326   17.6437 C   0  0  0  0  0  0  0  0  0  0  0  0
    9.9489   -3.4675   24.6487 N   0  0  0  0  0  0  0  0  0  0  0  0
   10.0172   -4.4740   17.4101 C   0  0  0  0  0  0  0  0  0  0  0  0
    6.9051   -7.9575   16.4222 C   0  0  0  0  0  0  0  0  0  0  0  0
    8.9969   -6.3552   17.9668 N   0  0  0  0  0  0  0  0  0  0  0  0
   10.6702   -3.9051   22.4070 C   0  0  0  0  0  0  0  0  0  0  0  0
   11.0625   -3.0028   18.8894 C   0  0  0  0  0  0  0  0  0  0  0  0
    5.6180   -7.9194   16.1754 O   0  0  0  0  0  0  0  0  0  0  0  0
    9.7259   -5.3080   18.4485 C   0  0  0  0  0  0  0  0  0  0  0  0
    9.4578   -5.0200   16.3036 N   0  0  0  0  0  0  0  0  0  0  0  0
    5.0287   -8.9365   16.8223 C   0  0  0  0  0  0  0  0  0  0  0  0
    8.7742   -6.1498   16.6764 C   0  0  0  0  0  0  0  0  0  0  0  0
   10.9418   -3.4032   21.2053 O   0  0  0  0  0  0  0  0  0  0  0  0
    1.4797   -8.6258   16.2950 C   0  0  0  0  0  0  0  0  0  0  0  0
    9.2861   -1.2743   25.3585 C   0  0  0  0  0  0  0  0  0  0  0  0
    1.8892  -10.3985   17.7511 N   0  0  0  0  0  0  0  0  0  0  0  0
    9.6210   -0.6952   24.0976 C   0  0  0  0  0  0  0  0  0  0  0  0
    7.0792   -9.0217   17.1429 C   0  0  0  0  0  0  0  0  0  0  0  0
    3.1713  -10.1816   17.6634 C   0  0  0  0  0  0  0  0  0  0  0  0
    2.7878   -8.3822   16.2137 C   0  0  0  0  0  0  0  0  0  0  0  0
    9.4601   -2.6590   25.6528 C   0  0  0  0  0  0  0  0  0  0  0  0
   10.1182   -1.5672   23.1165 C   0  0  0  0  0  0  0  0  0  0  0  0
    1.0552   -9.6360   17.0650 C   0  0  0  0  0  0  0  0  0  0  0  0
    3.6519   -9.1783   16.9039 C   0  0  0  0  0  0  0  0  0  0  0  0
    7.8675   -7.0096   15.9415 C   0  0  0  0  0  0  0  0  0  0  0  0
    5.9733   -9.6553   17.3832 N   0  0  0  0  0  0  0  0  0  0  0  0
   10.2411   -2.9363   23.4301 C   0  0  0  0  0  0  0  0  0  0  0  0
   10.7288   -3.8197   19.9525 C   0  0  0  0  0  0  0  0  0  0  0  0
   10.1189   -5.0054   19.6987 C   0  0  0  0  0  0  0  0  0  0  0  0
  1  3  4  0
  1  7  4  0
  2 21  4  0
  2 27  4  0
  3  9  4  0
  3 10  4  0
  4  8  4  0
  4 18  4  0
  4 25  1  0
  5  9  4  0
  5 12  4  0
  6 13  1  0
  6 27  1  0
  7 28  4  0
  8 11  4  0
  9 29  4  0
 10 12  4  0
 11 24  1  0
 11 26  4  0
 12 25  1  0
 13 28  1  0
 14 20  4  0
 14 23  4  0
 15 17  4  0
 15 21  4  0
 16 19  4  0
 16 23  4  0
 17 22  4  0
 18 26  4  0
 19 24  4  0
 20 24  4  0
 22 27  4  0
 28 29  4  0
M  END
$$$$

 Created by Python create_sdf_string function

 29 33  0  0  0  0  0  0  0  0999 V2000
   10.7215   -3.3326   17.6437 C   0  0  0  0  0  0  0  0  0  0  0  0
    9.9489   -3.4675   24.6487 N   0  0  0  0  0  0  0  0  0  0  0  0
   10.0172   -4.4740   17.4101 C   0  0  0  0  0  0  0  0  0  0  0  0
    6.9051   -7.9575   16.4222 C   0  0  0  0  0  0  0  0  0  0  0  0
    8.9969   -6.3552   17.9668 N   0  0  0  0  0  0  0  0  0  0  0  0
   10.6702   -3.9051   22.4070 C   0  0  0  0  0  0  0  0  0  0  0  0
   11.0625   -3.0028   18.8894 C   0  0  0  0  0  0  0  0  0  0  0  0
    5.6180   -7.9194   16.1754 O   0  0  0  0  0  0  0  0  0  0  0  0
    9.7259   -5.3080   18.4485 C   0  0  0  0  0  0  0  0  0  0  0  0
    9.4578   -5.0200   16.3036 N   0  0  0  0  0  0  0  0  0  0  0  0
    5.0287   -8.9365   16.8223 C   0  0  0  0  0  0  0  0  0  0  0  0
    8.7742   -6.1498   16.6764 C   0  0  0  0  0  0  0  0  0  0  0  0
   10.9418   -3.4032   21.2053 O   0  0  0  0  0  0  0  0  0  0  0  0
    1.4797   -8.6258   16.2950 C   0  0  0  0  0  0  0  0  0  0  0  0
    9.2861   -1.2743   25.3585 C   0  0  0  0  0  0  0  0  0  0  0  0
    1.8892  -10.3985   17.7511 N   0  0  0  0  0  0  0  0  0  0  0  0
    9.6210   -0.6952   24.0976 C   0  0  0  0  0  0  0  0  0  0  0  0
    7.0792   -9.0217   17.1429 C   0  0  0  0  0  0  0  0  0  0  0  0
    3.1713  -10.1816   17.6634 C   0  0  0  0  0  0  0  0  0  0  0  0
    2.7878   -8.3822   16.2137 C   0  0  0  0  0  0  0  0  0  0  0  0
    9.4601   -2.6590   25.6528 C   0  0  0  0  0  0  0  0  0  0  0  0
   10.1182   -1.5672   23.1165 C   0  0  0  0  0  0  0  0  0  0  0  0
    1.0552   -9.6360   17.0650 C   0  0  0  0  0  0  0  0  0  0  0  0
    3.6519   -9.1783   16.9039 C   0  0  0  0  0  0  0  0  0  0  0  0
    7.8675   -7.0096   15.9415 C   0  0  0  0  0  0  0  0  0  0  0  0
    5.9733   -9.6553   17.3832 N   0  0  0  0  0  0  0  0  0  0  0  0
   10.2411   -2.9363   23.4301 C   0  0  0  0  0  0  0  0  0  0  0  0
   10.7288   -3.8197   19.9525 C   0  0  0  0  0  0  0  0  0  0  0  0
   10.1189   -5.0054   19.6987 C   0  0  0  0  0  0  0  0  0  0  0  0
  1  3  4  0
  1  7  4  0
  2 21  4  0
  2 27  4  0
  3  9  4  0
  3 10  4  0
  4  8  4  0
  4 18  4  0
  4 25  1  0
  5  9  4  0
  5 12  4  0
  6 13  1  0
  6 27  1  0
  7 28  4  0
  8 11  4  0
  9 29  4  0
 10 12  4  0
 11 24  1  0
 11 26  4  0
 12 25  1  0
 13 28  1  0
 14 20  4  0
 14 23  4  0
 15 17  4  0
 15 21  4  0
 16 19  4  0
 16 23  4  0
 17 22  4  0
 18 26  4  0
 19 24  4  0
 20 24  4  0
 22 27  4  0
 28 29  4  0
M  END
$$$$

 Created by Python create_sdf_string function

 29 33  0  0  0  0  0  0  0  0999 V2000
   10.7215   -3.3326   17.6437 C   0  0  0  0  0  0  0  0  0  0  0  0
    9.9489   -3.4675   24.6487 N   0  0  0  0  0  0  0  0  0  0  0  0
   10.0172   -4.4740   17.4101 C   0  0  0  0  0  0  0  0  0  0  0  0
    6.9051   -7.9575   16.4222 C   0  0  0  0  0  0  0  0  0  0  0  0
    8.9969   -6.3552   17.9668 N   0  0  0  0  0  0  0  0  0  0  0  0
   10.6702   -3.9051   22.4070 C   0  0  0  0  0  0  0  0  0  0  0  0
   11.0625   -3.0028   18.8894 C   0  0  0  0  0  0  0  0  0  0  0  0
    5.6180   -7.9194   16.1754 O   0  0  0  0  0  0  0  0  0  0  0  0
    9.7259   -5.3080   18.4485 C   0  0  0  0  0  0  0  0  0  0  0  0
    9.4578   -5.0200   16.3036 N   0  0  0  0  0  0  0  0  0  0  0  0
    5.0287   -8.9365   16.8223 C   0  0  0  0  0  0  0  0  0  0  0  0
    8.7742   -6.1498   16.6764 C   0  0  0  0  0  0  0  0  0  0  0  0
   10.9418   -3.4032   21.2053 O   0  0  0  0  0  0  0  0  0  0  0  0
    1.4797   -8.6258   16.2950 C   0  0  0  0  0  0  0  0  0  0  0  0
    9.2861   -1.2743   25.3585 C   0  0  0  0  0  0  0  0  0  0  0  0
    1.8892  -10.3985   17.7511 N   0  0  0  0  0  0  0  0  0  0  0  0
    9.6210   -0.6952   24.0976 C   0  0  0  0  0  0  0  0  0  0  0  0
    7.0792   -9.0217   17.1429 C   0  0  0  0  0  0  0  0  0  0  0  0
    3.1713  -10.1816   17.6634 C   0  0  0  0  0  0  0  0  0  0  0  0
    2.7878   -8.3822   16.2137 C   0  0  0  0  0  0  0  0  0  0  0  0
    9.4601   -2.6590   25.6528 C   0  0  0  0  0  0  0  0  0  0  0  0
   10.1182   -1.5672   23.1165 C   0  0  0  0  0  0  0  0  0  0  0  0
    1.0552   -9.6360   17.0650 C   0  0  0  0  0  0  0  0  0  0  0  0
    3.6519   -9.1783   16.9039 C   0  0  0  0  0  0  0  0  0  0  0  0
    7.8675   -7.0096   15.9415 C   0  0  0  0  0  0  0  0  0  0  0  0
    5.9733   -9.6553   17.3832 N   0  0  0  0  0  0  0  0  0  0  0  0
   10.2411   -2.9363   23.4301 C   0  0  0  0  0  0  0  0  0  0  0  0
   10.7288   -3.8197   19.9525 C   0  0  0  0  0  0  0  0  0  0  0  0
   10.1189   -5.0054   19.6987 C   0  0  0  0  0  0  0  0  0  0  0  0
  1  3  4  0
  1  7  4  0
  2 21  4  0
  2 27  4  0
  3  9  4  0
  3 10  4  0
  4  8  4  0
  4 18  4  0
  4 25  1  0
  5  9  4  0
  5 12  4  0
  6 13  1  0
  6 27  1  0
  7 28  4  0
  8 11  4  0
  9 29  4  0
 10 12  4  0
 11 24  1  0
 11 26  4  0
 12 25  1  0
 13 28  1  0
 14 20  4  0
 14 23  4  0
 15 17  4  0
 15 21  4  0
 16 19  4  0
 16 23  4  0
 17 22  4  0
 18 26  4  0
 19 24  4  0
 20 24  4  0
 22 27  4  0
 28 29  4  0
M  END
$$$$

 Created by Python create_sdf_string function

 29 33  0  0  0  0  0  0  0  0999 V2000
   10.7215   -3.3326   17.6437 C   0  0  0  0  0  0  0  0  0  0  0  0
    9.9489   -3.4675   24.6487 N   0  0  0  0  0  0  0  0  0  0  0  0
   10.0172   -4.4740   17.4101 C   0  0  0  0  0  0  0  0  0  0  0  0
    6.9051   -7.9575   16.4222 C   0  0  0  0  0  0  0  0  0  0  0  0
    8.9969   -6.3552   17.9668 N   0  0  0  0  0  0  0  0  0  0  0  0
   10.6702   -3.9051   22.4070 C   0  0  0  0  0  0  0  0  0  0  0  0
   11.0625   -3.0028   18.8894 C   0  0  0  0  0  0  0  0  0  0  0  0
    5.6180   -7.9194   16.1754 O   0  0  0  0  0  0  0  0  0  0  0  0
    9.7259   -5.3080   18.4485 C   0  0  0  0  0  0  0  0  0  0  0  0
    9.4578   -5.0200   16.3036 N   0  0  0  0  0  0  0  0  0  0  0  0
    5.0287   -8.9365   16.8223 C   0  0  0  0  0  0  0  0  0  0  0  0
    8.7742   -6.1498   16.6764 C   0  0  0  0  0  0  0  0  0  0  0  0
   10.9418   -3.4032   21.2053 O   0  0  0  0  0  0  0  0  0  0  0  0
    1.4797   -8.6258   16.2950 C   0  0  0  0  0  0  0  0  0  0  0  0
    9.2861   -1.2743   25.3585 C   0  0  0  0  0  0  0  0  0  0  0  0
    1.8892  -10.3985   17.7511 N   0  0  0  0  0  0  0  0  0  0  0  0
    9.6210   -0.6952   24.0976 C   0  0  0  0  0  0  0  0  0  0  0  0
    7.0792   -9.0217   17.1429 C   0  0  0  0  0  0  0  0  0  0  0  0
    3.1713  -10.1816   17.6634 C   0  0  0  0  0  0  0  0  0  0  0  0
    2.7878   -8.3822   16.2137 C   0  0  0  0  0  0  0  0  0  0  0  0
    9.4601   -2.6590   25.6528 C   0  0  0  0  0  0  0  0  0  0  0  0
   10.1182   -1.5672   23.1165 C   0  0  0  0  0  0  0  0  0  0  0  0
    1.0552   -9.6360   17.0650 C   0  0  0  0  0  0  0  0  0  0  0  0
    3.6519   -9.1783   16.9039 C   0  0  0  0  0  0  0  0  0  0  0  0
    7.8675   -7.0096   15.9415 C   0  0  0  0  0  0  0  0  0  0  0  0
    5.9733   -9.6553   17.3832 N   0  0  0  0  0  0  0  0  0  0  0  0
   10.2411   -2.9363   23.4301 C   0  0  0  0  0  0  0  0  0  0  0  0
   10.7288   -3.8197   19.9525 C   0  0  0  0  0  0  0  0  0  0  0  0
   10.1189   -5.0054   19.6987 C   0  0  0  0  0  0  0  0  0  0  0  0
  1  3  4  0
  1  7  4  0
  2 21  4  0
  2 27  4  0
  3  9  4  0
  3 10  4  0
  4  8  4  0
  4 18  4  0
  4 25  1  0
  5  9  4  0
  5 12  4  0
  6 13  1  0
  6 27  1  0
  7 28  4  0
  8 11  4  0
  9 29  4  0
 10 12  4  0
 11 24  1  0
 11 26  4  0
 12 25  1  0
 13 28  1  0
 14 20  4  0
 14 23  4  0
 15 17  4  0
 15 21  4  0
 16 19  4  0
 16 23  4  0
 17 22  4  0
 18 26  4  0
 19 24  4  0
 20 24  4  0
 22 27  4  0
 28 29  4  0
M  END
$$$$

 Created by Python create_sdf_string function

 29 33  0  0  0  0  0  0  0  0999 V2000
   10.7215   -3.3326   17.6437 C   0  0  0  0  0  0  0  0  0  0  0  0
    9.9489   -3.4675   24.6487 N   0  0  0  0  0  0  0  0  0  0  0  0
   10.0172   -4.4740   17.4101 C   0  0  0  0  0  0  0  0  0  0  0  0
    6.9051   -7.9575   16.4222 C   0  0  0  0  0  0  0  0  0  0  0  0
    8.9969   -6.3552   17.9668 N   0  0  0  0  0  0  0  0  0  0  0  0
   10.6702   -3.9051   22.4070 C   0  0  0  0  0  0  0  0  0  0  0  0
   11.0625   -3.0028   18.8894 C   0  0  0  0  0  0  0  0  0  0  0  0
    5.6180   -7.9194   16.1754 O   0  0  0  0  0  0  0  0  0  0  0  0
    9.7259   -5.3080   18.4485 C   0  0  0  0  0  0  0  0  0  0  0  0
    9.4578   -5.0200   16.3036 N   0  0  0  0  0  0  0  0  0  0  0  0
    5.0287   -8.9365   16.8223 C   0  0  0  0  0  0  0  0  0  0  0  0
    8.7742   -6.1498   16.6764 C   0  0  0  0  0  0  0  0  0  0  0  0
   10.9418   -3.4032   21.2053 O   0  0  0  0  0  0  0  0  0  0  0  0
    1.4797   -8.6258   16.2950 C   0  0  0  0  0  0  0  0  0  0  0  0
    9.2861   -1.2743   25.3585 C   0  0  0  0  0  0  0  0  0  0  0  0
    1.8892  -10.3985   17.7511 N   0  0  0  0  0  0  0  0  0  0  0  0
    9.6210   -0.6952   24.0976 C   0  0  0  0  0  0  0  0  0  0  0  0
    7.0792   -9.0217   17.1429 C   0  0  0  0  0  0  0  0  0  0  0  0
    3.1713  -10.1816   17.6634 C   0  0  0  0  0  0  0  0  0  0  0  0
    2.7878   -8.3822   16.2137 C   0  0  0  0  0  0  0  0  0  0  0  0
    9.4601   -2.6590   25.6528 C   0  0  0  0  0  0  0  0  0  0  0  0
   10.1182   -1.5672   23.1165 C   0  0  0  0  0  0  0  0  0  0  0  0
    1.0552   -9.6360   17.0650 C   0  0  0  0  0  0  0  0  0  0  0  0
    3.6519   -9.1783   16.9039 C   0  0  0  0  0  0  0  0  0  0  0  0
    7.8675   -7.0096   15.9415 C   0  0  0  0  0  0  0  0  0  0  0  0
    5.9733   -9.6553   17.3832 N   0  0  0  0  0  0  0  0  0  0  0  0
   10.2411   -2.9363   23.4301 C   0  0  0  0  0  0  0  0  0  0  0  0
   10.7288   -3.8197   19.9525 C   0  0  0  0  0  0  0  0  0  0  0  0
   10.1189   -5.0054   19.6987 C   0  0  0  0  0  0  0  0  0  0  0  0
  1  3  4  0
  1  7  4  0
  2 21  4  0
  2 27  4  0
  3  9  4  0
  3 10  4  0
  4  8  4  0
  4 18  4  0
  4 25  1  0
  5  9  4  0
  5 12  4  0
  6 13  1  0
  6 27  1  0
  7 28  4  0
  8 11  4  0
  9 29  4  0
 10 12  4  0
 11 24  1  0
 11 26  4  0
 12 25  1  0
 13 28  1  0
 14 20  4  0
 14 23  4  0
 15 17  4  0
 15 21  4  0
 16 19  4  0
 16 23  4  0
 17 22  4  0
 18 26  4  0
 19 24  4  0
 20 24  4  0
 22 27  4  0
 28 29  4  0
M  END
$$$$

 Created by Python create_sdf_string function

 29 33  0  0  0  0  0  0  0  0999 V2000
   10.7215   -3.3326   17.6437 C   0  0  0  0  0  0  0  0  0  0  0  0
    9.9489   -3.4675   24.6487 N   0  0  0  0  0  0  0  0  0  0  0  0
   10.0172   -4.4740   17.4101 C   0  0  0  0  0  0  0  0  0  0  0  0
    6.9051   -7.9575   16.4222 C   0  0  0  0  0  0  0  0  0  0  0  0
    8.9969   -6.3552   17.9668 N   0  0  0  0  0  0  0  0  0  0  0  0
   10.6702   -3.9051   22.4070 C   0  0  0  0  0  0  0  0  0  0  0  0
   11.0625   -3.0028   18.8894 C   0  0  0  0  0  0  0  0  0  0  0  0
    5.6180   -7.9194   16.1754 O   0  0  0  0  0  0  0  0  0  0  0  0
    9.7259   -5.3080   18.4485 C   0  0  0  0  0  0  0  0  0  0  0  0
    9.4578   -5.0200   16.3036 N   0  0  0  0  0  0  0  0  0  0  0  0
    5.0287   -8.9365   16.8223 C   0  0  0  0  0  0  0  0  0  0  0  0
    8.7742   -6.1498   16.6764 C   0  0  0  0  0  0  0  0  0  0  0  0
   10.9418   -3.4032   21.2053 O   0  0  0  0  0  0  0  0  0  0  0  0
    1.4797   -8.6258   16.2950 C   0  0  0  0  0  0  0  0  0  0  0  0
    9.2861   -1.2743   25.3585 C   0  0  0  0  0  0  0  0  0  0  0  0
    1.8892  -10.3985   17.7511 N   0  0  0  0  0  0  0  0  0  0  0  0
    9.6210   -0.6952   24.0976 C   0  0  0  0  0  0  0  0  0  0  0  0
    7.0792   -9.0217   17.1429 C   0  0  0  0  0  0  0  0  0  0  0  0
    3.1713  -10.1816   17.6634 C   0  0  0  0  0  0  0  0  0  0  0  0
    2.7878   -8.3822   16.2137 C   0  0  0  0  0  0  0  0  0  0  0  0
    9.4601   -2.6590   25.6528 C   0  0  0  0  0  0  0  0  0  0  0  0
   10.1182   -1.5672   23.1165 C   0  0  0  0  0  0  0  0  0  0  0  0
    1.0552   -9.6360   17.0650 C   0  0  0  0  0  0  0  0  0  0  0  0
    3.6519   -9.1783   16.9039 C   0  0  0  0  0  0  0  0  0  0  0  0
    7.8675   -7.0096   15.9415 C   0  0  0  0  0  0  0  0  0  0  0  0
    5.9733   -9.6553   17.3832 N   0  0  0  0  0  0  0  0  0  0  0  0
   10.2411   -2.9363   23.4301 C   0  0  0  0  0  0  0  0  0  0  0  0
   10.7288   -3.8197   19.9525 C   0  0  0  0  0  0  0  0  0  0  0  0
   10.1189   -5.0054   19.6987 C   0  0  0  0  0  0  0  0  0  0  0  0
  1  3  4  0
  1  7  4  0
  2 21  4  0
  2 27  4  0
  3  9  4  0
  3 10  4  0
  4  8  4  0
  4 18  4  0
  4 25  1  0
  5  9  4  0
  5 12  4  0
  6 13  1  0
  6 27  1  0
  7 28  4  0
  8 11  4  0
  9 29  4  0
 10 12  4  0
 11 24  1  0
 11 26  4  0
 12 25  1  0
 13 28  1  0
 14 20  4  0
 14 23  4  0
 15 17  4  0
 15 21  4  0
 16 19  4  0
 16 23  4  0
 17 22  4  0
 18 26  4  0
 19 24  4  0
 20 24  4  0
 22 27  4  0
 28 29  4  0
M  END
$$$$

 Created by Python create_sdf_string function

 29 33  0  0  0  0  0  0  0  0999 V2000
   10.7215   -3.3326   17.6437 C   0  0  0  0  0  0  0  0  0  0  0  0
    9.9489   -3.4675   24.6487 N   0  0  0  0  0  0  0  0  0  0  0  0
   10.0172   -4.4740   17.4101 C   0  0  0  0  0  0  0  0  0  0  0  0
    6.9051   -7.9575   16.4222 C   0  0  0  0  0  0  0  0  0  0  0  0
    8.9969   -6.3552   17.9668 N   0  0  0  0  0  0  0  0  0  0  0  0
   10.6702   -3.9051   22.4070 C   0  0  0  0  0  0  0  0  0  0  0  0
   11.0625   -3.0028   18.8894 C   0  0  0  0  0  0  0  0  0  0  0  0
    5.6180   -7.9194   16.1754 O   0  0  0  0  0  0  0  0  0  0  0  0
    9.7259   -5.3080   18.4485 C   0  0  0  0  0  0  0  0  0  0  0  0
    9.4578   -5.0200   16.3036 N   0  0  0  0  0  0  0  0  0  0  0  0
    5.0287   -8.9365   16.8223 C   0  0  0  0  0  0  0  0  0  0  0  0
    8.7742   -6.1498   16.6764 C   0  0  0  0  0  0  0  0  0  0  0  0
   10.9418   -3.4032   21.2053 O   0  0  0  0  0  0  0  0  0  0  0  0
    1.4797   -8.6258   16.2950 C   0  0  0  0  0  0  0  0  0  0  0  0
    9.2861   -1.2743   25.3585 C   0  0  0  0  0  0  0  0  0  0  0  0
    1.8892  -10.3985   17.7511 N   0  0  0  0  0  0  0  0  0  0  0  0
    9.6210   -0.6952   24.0976 C   0  0  0  0  0  0  0  0  0  0  0  0
    7.0792   -9.0217   17.1429 C   0  0  0  0  0  0  0  0  0  0  0  0
    3.1713  -10.1816   17.6634 C   0  0  0  0  0  0  0  0  0  0  0  0
    2.7878   -8.3822   16.2137 C   0  0  0  0  0  0  0  0  0  0  0  0
    9.4601   -2.6590   25.6528 C   0  0  0  0  0  0  0  0  0  0  0  0
   10.1182   -1.5672   23.1165 C   0  0  0  0  0  0  0  0  0  0  0  0
    1.0552   -9.6360   17.0650 C   0  0  0  0  0  0  0  0  0  0  0  0
    3.6519   -9.1783   16.9039 C   0  0  0  0  0  0  0  0  0  0  0  0
    7.8675   -7.0096   15.9415 C   0  0  0  0  0  0  0  0  0  0  0  0
    5.9733   -9.6553   17.3832 N   0  0  0  0  0  0  0  0  0  0  0  0
   10.2411   -2.9363   23.4301 C   0  0  0  0  0  0  0  0  0  0  0  0
   10.7288   -3.8197   19.9525 C   0  0  0  0  0  0  0  0  0  0  0  0
   10.1189   -5.0054   19.6987 C   0  0  0  0  0  0  0  0  0  0  0  0
  1  3  4  0
  1  7  4  0
  2 21  4  0
  2 27  4  0
  3  9  4  0
  3 10  4  0
  4  8  4  0
  4 18  4  0
  4 25  1  0
  5  9  4  0
  5 12  4  0
  6 13  1  0
  6 27  1  0
  7 28  4  0
  8 11  4  0
  9 29  4  0
 10 12  4  0
 11 24  1  0
 11 26  4  0
 12 25  1  0
 13 28  1  0
 14 20  4  0
 14 23  4  0
 15 17  4  0
 15 21  4  0
 16 19  4  0
 16 23  4  0
 17 22  4  0
 18 26  4  0
 19 24  4  0
 20 24  4  0
 22 27  4  0
 28 29  4  0
M  END
$$$$

 Created by Python create_sdf_string function

 29 33  0  0  0  0  0  0  0  0999 V2000
   10.7215   -3.3326   17.6437 C   0  0  0  0  0  0  0  0  0  0  0  0
    9.9489   -3.4675   24.6487 N   0  0  0  0  0  0  0  0  0  0  0  0
   10.0172   -4.4740   17.4101 C   0  0  0  0  0  0  0  0  0  0  0  0
    6.9051   -7.9575   16.4222 C   0  0  0  0  0  0  0  0  0  0  0  0
    8.9969   -6.3552   17.9668 N   0  0  0  0  0  0  0  0  0  0  0  0
   10.6702   -3.9051   22.4070 C   0  0  0  0  0  0  0  0  0  0  0  0
   11.0625   -3.0028   18.8894 C   0  0  0  0  0  0  0  0  0  0  0  0
    5.6180   -7.9194   16.1754 O   0  0  0  0  0  0  0  0  0  0  0  0
    9.7259   -5.3080   18.4485 C   0  0  0  0  0  0  0  0  0  0  0  0
    9.4578   -5.0200   16.3036 N   0  0  0  0  0  0  0  0  0  0  0  0
    5.0287   -8.9365   16.8223 C   0  0  0  0  0  0  0  0  0  0  0  0
    8.7742   -6.1498   16.6764 C   0  0  0  0  0  0  0  0  0  0  0  0
   10.9418   -3.4032   21.2053 O   0  0  0  0  0  0  0  0  0  0  0  0
    1.4797   -8.6258   16.2950 C   0  0  0  0  0  0  0  0  0  0  0  0
    9.2861   -1.2743   25.3585 C   0  0  0  0  0  0  0  0  0  0  0  0
    1.8892  -10.3985   17.7511 N   0  0  0  0  0  0  0  0  0  0  0  0
    9.6210   -0.6952   24.0976 C   0  0  0  0  0  0  0  0  0  0  0  0
    7.0792   -9.0217   17.1429 C   0  0  0  0  0  0  0  0  0  0  0  0
    3.1713  -10.1816   17.6634 C   0  0  0  0  0  0  0  0  0  0  0  0
    2.7878   -8.3822   16.2137 C   0  0  0  0  0  0  0  0  0  0  0  0
    9.4601   -2.6590   25.6528 C   0  0  0  0  0  0  0  0  0  0  0  0
   10.1182   -1.5672   23.1165 C   0  0  0  0  0  0  0  0  0  0  0  0
    1.0552   -9.6360   17.0650 C   0  0  0  0  0  0  0  0  0  0  0  0
    3.6519   -9.1783   16.9039 C   0  0  0  0  0  0  0  0  0  0  0  0
    7.8675   -7.0096   15.9415 C   0  0  0  0  0  0  0  0  0  0  0  0
    5.9733   -9.6553   17.3832 N   0  0  0  0  0  0  0  0  0  0  0  0
   10.2411   -2.9363   23.4301 C   0  0  0  0  0  0  0  0  0  0  0  0
   10.7288   -3.8197   19.9525 C   0  0  0  0  0  0  0  0  0  0  0  0
   10.1189   -5.0054   19.6987 C   0  0  0  0  0  0  0  0  0  0  0  0
  1  3  4  0
  1  7  4  0
  2 21  4  0
  2 27  4  0
  3  9  4  0
  3 10  4  0
  4  8  4  0
  4 18  4  0
  4 25  1  0
  5  9  4  0
  5 12  4  0
  6 13  1  0
  6 27  1  0
  7 28  4  0
  8 11  4  0
  9 29  4  0
 10 12  4  0
 11 24  1  0
 11 26  4  0
 12 25  1  0
 13 28  1  0
 14 20  4  0
 14 23  4  0
 15 17  4  0
 15 21  4  0
 16 19  4  0
 16 23  4  0
 17 22  4  0
 18 26  4  0
 19 24  4  0
 20 24  4  0
 22 27  4  0
 28 29  4  0
M  END
$$$$

 Created by Python create_sdf_string function

 29 33  0  0  0  0  0  0  0  0999 V2000
   10.7215   -3.3326   17.6437 C   0  0  0  0  0  0  0  0  0  0  0  0
    9.9489   -3.4675   24.6487 N   0  0  0  0  0  0  0  0  0  0  0  0
   10.0172   -4.4740   17.4101 C   0  0  0  0  0  0  0  0  0  0  0  0
    6.9051   -7.9575   16.4222 C   0  0  0  0  0  0  0  0  0  0  0  0
    8.9969   -6.3552   17.9668 N   0  0  0  0  0  0  0  0  0  0  0  0
   10.6702   -3.9051   22.4070 C   0  0  0  0  0  0  0  0  0  0  0  0
   11.0625   -3.0028   18.8894 C   0  0  0  0  0  0  0  0  0  0  0  0
    5.6180   -7.9194   16.1754 O   0  0  0  0  0  0  0  0  0  0  0  0
    9.7259   -5.3080   18.4485 C   0  0  0  0  0  0  0  0  0  0  0  0
    9.4578   -5.0200   16.3036 N   0  0  0  0  0  0  0  0  0  0  0  0
    5.0287   -8.9365   16.8223 C   0  0  0  0  0  0  0  0  0  0  0  0
    8.7742   -6.1498   16.6764 C   0  0  0  0  0  0  0  0  0  0  0  0
   10.9418   -3.4032   21.2053 O   0  0  0  0  0  0  0  0  0  0  0  0
    1.4797   -8.6258   16.2950 C   0  0  0  0  0  0  0  0  0  0  0  0
    9.2861   -1.2743   25.3585 C   0  0  0  0  0  0  0  0  0  0  0  0
    1.8892  -10.3985   17.7511 N   0  0  0  0  0  0  0  0  0  0  0  0
    9.6210   -0.6952   24.0976 C   0  0  0  0  0  0  0  0  0  0  0  0
    7.0792   -9.0217   17.1429 C   0  0  0  0  0  0  0  0  0  0  0  0
    3.1713  -10.1816   17.6634 C   0  0  0  0  0  0  0  0  0  0  0  0
    2.7878   -8.3822   16.2137 C   0  0  0  0  0  0  0  0  0  0  0  0
    9.4601   -2.6590   25.6528 C   0  0  0  0  0  0  0  0  0  0  0  0
   10.1182   -1.5672   23.1165 C   0  0  0  0  0  0  0  0  0  0  0  0
    1.0552   -9.6360   17.0650 C   0  0  0  0  0  0  0  0  0  0  0  0
    3.6519   -9.1783   16.9039 C   0  0  0  0  0  0  0  0  0  0  0  0
    7.8675   -7.0096   15.9415 C   0  0  0  0  0  0  0  0  0  0  0  0
    5.9733   -9.6553   17.3832 N   0  0  0  0  0  0  0  0  0  0  0  0
   10.2411   -2.9363   23.4301 C   0  0  0  0  0  0  0  0  0  0  0  0
   10.7288   -3.8197   19.9525 C   0  0  0  0  0  0  0  0  0  0  0  0
   10.1189   -5.0054   19.6987 C   0  0  0  0  0  0  0  0  0  0  0  0
  1  3  4  0
  1  7  4  0
  2 21  4  0
  2 27  4  0
  3  9  4  0
  3 10  4  0
  4  8  4  0
  4 18  4  0
  4 25  1  0
  5  9  4  0
  5 12  4  0
  6 13  1  0
  6 27  1  0
  7 28  4  0
  8 11  4  0
  9 29  4  0
 10 12  4  0
 11 24  1  0
 11 26  4  0
 12 25  1  0
 13 28  1  0
 14 20  4  0
 14 23  4  0
 15 17  4  0
 15 21  4  0
 16 19  4  0
 16 23  4  0
 17 22  4  0
 18 26  4  0
 19 24  4  0
 20 24  4  0
 22 27  4  0
 28 29  4  0
M  END
$$$$

 Created by Python create_sdf_string function

 29 33  0  0  0  0  0  0  0  0999 V2000
   10.7215   -3.3326   17.6437 C   0  0  0  0  0  0  0  0  0  0  0  0
    9.9489   -3.4675   24.6487 N   0  0  0  0  0  0  0  0  0  0  0  0
   10.0172   -4.4740   17.4101 C   0  0  0  0  0  0  0  0  0  0  0  0
    6.9051   -7.9575   16.4222 C   0  0  0  0  0  0  0  0  0  0  0  0
    8.9969   -6.3552   17.9668 N   0  0  0  0  0  0  0  0  0  0  0  0
   10.6702   -3.9051   22.4070 C   0  0  0  0  0  0  0  0  0  0  0  0
   11.0625   -3.0028   18.8894 C   0  0  0  0  0  0  0  0  0  0  0  0
    5.6180   -7.9194   16.1754 O   0  0  0  0  0  0  0  0  0  0  0  0
    9.7259   -5.3080   18.4485 C   0  0  0  0  0  0  0  0  0  0  0  0
    9.4578   -5.0200   16.3036 N   0  0  0  0  0  0  0  0  0  0  0  0
    5.0287   -8.9365   16.8223 C   0  0  0  0  0  0  0  0  0  0  0  0
    8.7742   -6.1498   16.6764 C   0  0  0  0  0  0  0  0  0  0  0  0
   10.9418   -3.4032   21.2053 O   0  0  0  0  0  0  0  0  0  0  0  0
    1.4797   -8.6258   16.2950 C   0  0  0  0  0  0  0  0  0  0  0  0
    9.2861   -1.2743   25.3585 C   0  0  0  0  0  0  0  0  0  0  0  0
    1.8892  -10.3985   17.7511 N   0  0  0  0  0  0  0  0  0  0  0  0
    9.6210   -0.6952   24.0976 C   0  0  0  0  0  0  0  0  0  0  0  0
    7.0792   -9.0217   17.1429 C   0  0  0  0  0  0  0  0  0  0  0  0
    3.1713  -10.1816   17.6634 C   0  0  0  0  0  0  0  0  0  0  0  0
    2.7878   -8.3822   16.2137 C   0  0  0  0  0  0  0  0  0  0  0  0
    9.4601   -2.6590   25.6528 C   0  0  0  0  0  0  0  0  0  0  0  0
   10.1182   -1.5672   23.1165 C   0  0  0  0  0  0  0  0  0  0  0  0
    1.0552   -9.6360   17.0650 C   0  0  0  0  0  0  0  0  0  0  0  0
    3.6519   -9.1783   16.9039 C   0  0  0  0  0  0  0  0  0  0  0  0
    7.8675   -7.0096   15.9415 C   0  0  0  0  0  0  0  0  0  0  0  0
    5.9733   -9.6553   17.3832 N   0  0  0  0  0  0  0  0  0  0  0  0
   10.2411   -2.9363   23.4301 C   0  0  0  0  0  0  0  0  0  0  0  0
   10.7288   -3.8197   19.9525 C   0  0  0  0  0  0  0  0  0  0  0  0
   10.1189   -5.0054   19.6987 C   0  0  0  0  0  0  0  0  0  0  0  0
  1  3  4  0
  1  7  4  0
  2 21  4  0
  2 27  4  0
  3  9  4  0
  3 10  4  0
  4  8  4  0
  4 18  4  0
  4 25  1  0
  5  9  4  0
  5 12  4  0
  6 13  1  0
  6 27  1  0
  7 28  4  0
  8 11  4  0
  9 29  4  0
 10 12  4  0
 11 24  1  0
 11 26  4  0
 12 25  1  0
 13 28  1  0
 14 20  4  0
 14 23  4  0
 15 17  4  0
 15 21  4  0
 16 19  4  0
 16 23  4  0
 17 22  4  0
 18 26  4  0
 19 24  4  0
 20 24  4  0
 22 27  4  0
 28 29  4  0
M  END
$$$$

 Created by Python create_sdf_string function

 29 33  0  0  0  0  0  0  0  0999 V2000
   10.7215   -3.3326   17.6437 C   0  0  0  0  0  0  0  0  0  0  0  0
    9.9489   -3.4675   24.6487 N   0  0  0  0  0  0  0  0  0  0  0  0
   10.0172   -4.4740   17.4101 C   0  0  0  0  0  0  0  0  0  0  0  0
    6.9051   -7.9575   16.4222 C   0  0  0  0  0  0  0  0  0  0  0  0
    8.9969   -6.3552   17.9668 N   0  0  0  0  0  0  0  0  0  0  0  0
   10.6702   -3.9051   22.4070 C   0  0  0  0  0  0  0  0  0  0  0  0
   11.0625   -3.0028   18.8894 C   0  0  0  0  0  0  0  0  0  0  0  0
    5.6180   -7.9194   16.1754 O   0  0  0  0  0  0  0  0  0  0  0  0
    9.7259   -5.3080   18.4485 C   0  0  0  0  0  0  0  0  0  0  0  0
    9.4578   -5.0200   16.3036 N   0  0  0  0  0  0  0  0  0  0  0  0
    5.0287   -8.9365   16.8223 C   0  0  0  0  0  0  0  0  0  0  0  0
    8.7742   -6.1498   16.6764 C   0  0  0  0  0  0  0  0  0  0  0  0
   10.9418   -3.4032   21.2053 O   0  0  0  0  0  0  0  0  0  0  0  0
    1.4797   -8.6258   16.2950 C   0  0  0  0  0  0  0  0  0  0  0  0
    9.2861   -1.2743   25.3585 C   0  0  0  0  0  0  0  0  0  0  0  0
    1.8892  -10.3985   17.7511 N   0  0  0  0  0  0  0  0  0  0  0  0
    9.6210   -0.6952   24.0976 C   0  0  0  0  0  0  0  0  0  0  0  0
    7.0792   -9.0217   17.1429 C   0  0  0  0  0  0  0  0  0  0  0  0
    3.1713  -10.1816   17.6634 C   0  0  0  0  0  0  0  0  0  0  0  0
    2.7878   -8.3822   16.2137 C   0  0  0  0  0  0  0  0  0  0  0  0
    9.4601   -2.6590   25.6528 C   0  0  0  0  0  0  0  0  0  0  0  0
   10.1182   -1.5672   23.1165 C   0  0  0  0  0  0  0  0  0  0  0  0
    1.0552   -9.6360   17.0650 C   0  0  0  0  0  0  0  0  0  0  0  0
    3.6519   -9.1783   16.9039 C   0  0  0  0  0  0  0  0  0  0  0  0
    7.8675   -7.0096   15.9415 C   0  0  0  0  0  0  0  0  0  0  0  0
    5.9733   -9.6553   17.3832 N   0  0  0  0  0  0  0  0  0  0  0  0
   10.2411   -2.9363   23.4301 C   0  0  0  0  0  0  0  0  0  0  0  0
   10.7288   -3.8197   19.9525 C   0  0  0  0  0  0  0  0  0  0  0  0
   10.1189   -5.0054   19.6987 C   0  0  0  0  0  0  0  0  0  0  0  0
  1  3  4  0
  1  7  4  0
  2 21  4  0
  2 27  4  0
  3  9  4  0
  3 10  4  0
  4  8  4  0
  4 18  4  0
  4 25  1  0
  5  9  4  0
  5 12  4  0
  6 13  1  0
  6 27  1  0
  7 28  4  0
  8 11  4  0
  9 29  4  0
 10 12  4  0
 11 24  1  0
 11 26  4  0
 12 25  1  0
 13 28  1  0
 14 20  4  0
 14 23  4  0
 15 17  4  0
 15 21  4  0
 16 19  4  0
 16 23  4  0
 17 22  4  0
 18 26  4  0
 19 24  4  0
 20 24  4  0
 22 27  4  0
 28 29  4  0
M  END
$$$$

 Created by Python create_sdf_string function

 29 33  0  0  0  0  0  0  0  0999 V2000
   10.7215   -3.3326   17.6437 C   0  0  0  0  0  0  0  0  0  0  0  0
    9.9489   -3.4675   24.6487 N   0  0  0  0  0  0  0  0  0  0  0  0
   10.0172   -4.4740   17.4101 C   0  0  0  0  0  0  0  0  0  0  0  0
    6.9051   -7.9575   16.4222 C   0  0  0  0  0  0  0  0  0  0  0  0
    8.9969   -6.3552   17.9668 N   0  0  0  0  0  0  0  0  0  0  0  0
   10.6702   -3.9051   22.4070 C   0  0  0  0  0  0  0  0  0  0  0  0
   11.0625   -3.0028   18.8894 C   0  0  0  0  0  0  0  0  0  0  0  0
    5.6180   -7.9194   16.1754 O   0  0  0  0  0  0  0  0  0  0  0  0
    9.7259   -5.3080   18.4485 C   0  0  0  0  0  0  0  0  0  0  0  0
    9.4578   -5.0200   16.3036 N   0  0  0  0  0  0  0  0  0  0  0  0
    5.0287   -8.9365   16.8223 C   0  0  0  0  0  0  0  0  0  0  0  0
    8.7742   -6.1498   16.6764 C   0  0  0  0  0  0  0  0  0  0  0  0
   10.9418   -3.4032   21.2053 O   0  0  0  0  0  0  0  0  0  0  0  0
    1.4797   -8.6258   16.2950 C   0  0  0  0  0  0  0  0  0  0  0  0
    9.2861   -1.2743   25.3585 C   0  0  0  0  0  0  0  0  0  0  0  0
    1.8892  -10.3985   17.7511 N   0  0  0  0  0  0  0  0  0  0  0  0
    9.6210   -0.6952   24.0976 C   0  0  0  0  0  0  0  0  0  0  0  0
    7.0792   -9.0217   17.1429 C   0  0  0  0  0  0  0  0  0  0  0  0
    3.1713  -10.1816   17.6634 C   0  0  0  0  0  0  0  0  0  0  0  0
    2.7878   -8.3822   16.2137 C   0  0  0  0  0  0  0  0  0  0  0  0
    9.4601   -2.6590   25.6528 C   0  0  0  0  0  0  0  0  0  0  0  0
   10.1182   -1.5672   23.1165 C   0  0  0  0  0  0  0  0  0  0  0  0
    1.0552   -9.6360   17.0650 C   0  0  0  0  0  0  0  0  0  0  0  0
    3.6519   -9.1783   16.9039 C   0  0  0  0  0  0  0  0  0  0  0  0
    7.8675   -7.0096   15.9415 C   0  0  0  0  0  0  0  0  0  0  0  0
    5.9733   -9.6553   17.3832 N   0  0  0  0  0  0  0  0  0  0  0  0
   10.2411   -2.9363   23.4301 C   0  0  0  0  0  0  0  0  0  0  0  0
   10.7288   -3.8197   19.9525 C   0  0  0  0  0  0  0  0  0  0  0  0
   10.1189   -5.0054   19.6987 C   0  0  0  0  0  0  0  0  0  0  0  0
  1  3  4  0
  1  7  4  0
  2 21  4  0
  2 27  4  0
  3  9  4  0
  3 10  4  0
  4  8  4  0
  4 18  4  0
  4 25  1  0
  5  9  4  0
  5 12  4  0
  6 13  1  0
  6 27  1  0
  7 28  4  0
  8 11  4  0
  9 29  4  0
 10 12  4  0
 11 24  1  0
 11 26  4  0
 12 25  1  0
 13 28  1  0
 14 20  4  0
 14 23  4  0
 15 17  4  0
 15 21  4  0
 16 19  4  0
 16 23  4  0
 17 22  4  0
 18 26  4  0
 19 24  4  0
 20 24  4  0
 22 27  4  0
 28 29  4  0
M  END
$$$$

 Created by Python create_sdf_string function

 29 33  0  0  0  0  0  0  0  0999 V2000
   10.7215   -3.3326   17.6437 C   0  0  0  0  0  0  0  0  0  0  0  0
    9.9489   -3.4675   24.6487 N   0  0  0  0  0  0  0  0  0  0  0  0
   10.0172   -4.4740   17.4101 C   0  0  0  0  0  0  0  0  0  0  0  0
    6.9051   -7.9575   16.4222 C   0  0  0  0  0  0  0  0  0  0  0  0
    8.9969   -6.3552   17.9668 N   0  0  0  0  0  0  0  0  0  0  0  0
   10.6702   -3.9051   22.4070 C   0  0  0  0  0  0  0  0  0  0  0  0
   11.0625   -3.0028   18.8894 C   0  0  0  0  0  0  0  0  0  0  0  0
    5.6180   -7.9194   16.1754 O   0  0  0  0  0  0  0  0  0  0  0  0
    9.7259   -5.3080   18.4485 C   0  0  0  0  0  0  0  0  0  0  0  0
    9.4578   -5.0200   16.3036 N   0  0  0  0  0  0  0  0  0  0  0  0
    5.0287   -8.9365   16.8223 C   0  0  0  0  0  0  0  0  0  0  0  0
    8.7742   -6.1498   16.6764 C   0  0  0  0  0  0  0  0  0  0  0  0
   10.9418   -3.4032   21.2053 O   0  0  0  0  0  0  0  0  0  0  0  0
    1.4797   -8.6258   16.2950 C   0  0  0  0  0  0  0  0  0  0  0  0
    9.2861   -1.2743   25.3585 C   0  0  0  0  0  0  0  0  0  0  0  0
    1.8892  -10.3985   17.7511 N   0  0  0  0  0  0  0  0  0  0  0  0
    9.6210   -0.6952   24.0976 C   0  0  0  0  0  0  0  0  0  0  0  0
    7.0792   -9.0217   17.1429 C   0  0  0  0  0  0  0  0  0  0  0  0
    3.1713  -10.1816   17.6634 C   0  0  0  0  0  0  0  0  0  0  0  0
    2.7878   -8.3822   16.2137 C   0  0  0  0  0  0  0  0  0  0  0  0
    9.4601   -2.6590   25.6528 C   0  0  0  0  0  0  0  0  0  0  0  0
   10.1182   -1.5672   23.1165 C   0  0  0  0  0  0  0  0  0  0  0  0
    1.0552   -9.6360   17.0650 C   0  0  0  0  0  0  0  0  0  0  0  0
    3.6519   -9.1783   16.9039 C   0  0  0  0  0  0  0  0  0  0  0  0
    7.8675   -7.0096   15.9415 C   0  0  0  0  0  0  0  0  0  0  0  0
    5.9733   -9.6553   17.3832 N   0  0  0  0  0  0  0  0  0  0  0  0
   10.2411   -2.9363   23.4301 C   0  0  0  0  0  0  0  0  0  0  0  0
   10.7288   -3.8197   19.9525 C   0  0  0  0  0  0  0  0  0  0  0  0
   10.1189   -5.0054   19.6987 C   0  0  0  0  0  0  0  0  0  0  0  0
  1  3  4  0
  1  7  4  0
  2 21  4  0
  2 27  4  0
  3  9  4  0
  3 10  4  0
  4  8  4  0
  4 18  4  0
  4 25  1  0
  5  9  4  0
  5 12  4  0
  6 13  1  0
  6 27  1  0
  7 28  4  0
  8 11  4  0
  9 29  4  0
 10 12  4  0
 11 24  1  0
 11 26  4  0
 12 25  1  0
 13 28  1  0
 14 20  4  0
 14 23  4  0
 15 17  4  0
 15 21  4  0
 16 19  4  0
 16 23  4  0
 17 22  4  0
 18 26  4  0
 19 24  4  0
 20 24  4  0
 22 27  4  0
 28 29  4  0
M  END
$$$$

 Created by Python create_sdf_string function

 29 33  0  0  0  0  0  0  0  0999 V2000
   10.7215   -3.3326   17.6437 C   0  0  0  0  0  0  0  0  0  0  0  0
    9.9489   -3.4675   24.6487 N   0  0  0  0  0  0  0  0  0  0  0  0
   10.0172   -4.4740   17.4101 C   0  0  0  0  0  0  0  0  0  0  0  0
    6.9051   -7.9575   16.4222 C   0  0  0  0  0  0  0  0  0  0  0  0
    8.9969   -6.3552   17.9668 N   0  0  0  0  0  0  0  0  0  0  0  0
   10.6702   -3.9051   22.4070 C   0  0  0  0  0  0  0  0  0  0  0  0
   11.0625   -3.0028   18.8894 C   0  0  0  0  0  0  0  0  0  0  0  0
    5.6180   -7.9194   16.1754 O   0  0  0  0  0  0  0  0  0  0  0  0
    9.7259   -5.3080   18.4485 C   0  0  0  0  0  0  0  0  0  0  0  0
    9.4578   -5.0200   16.3036 N   0  0  0  0  0  0  0  0  0  0  0  0
    5.0287   -8.9365   16.8223 C   0  0  0  0  0  0  0  0  0  0  0  0
    8.7742   -6.1498   16.6764 C   0  0  0  0  0  0  0  0  0  0  0  0
   10.9418   -3.4032   21.2053 O   0  0  0  0  0  0  0  0  0  0  0  0
    1.4797   -8.6258   16.2950 C   0  0  0  0  0  0  0  0  0  0  0  0
    9.2861   -1.2743   25.3585 C   0  0  0  0  0  0  0  0  0  0  0  0
    1.8892  -10.3985   17.7511 N   0  0  0  0  0  0  0  0  0  0  0  0
    9.6210   -0.6952   24.0976 C   0  0  0  0  0  0  0  0  0  0  0  0
    7.0792   -9.0217   17.1429 C   0  0  0  0  0  0  0  0  0  0  0  0
    3.1713  -10.1816   17.6634 C   0  0  0  0  0  0  0  0  0  0  0  0
    2.7878   -8.3822   16.2137 C   0  0  0  0  0  0  0  0  0  0  0  0
    9.4601   -2.6590   25.6528 C   0  0  0  0  0  0  0  0  0  0  0  0
   10.1182   -1.5672   23.1165 C   0  0  0  0  0  0  0  0  0  0  0  0
    1.0552   -9.6360   17.0650 C   0  0  0  0  0  0  0  0  0  0  0  0
    3.6519   -9.1783   16.9039 C   0  0  0  0  0  0  0  0  0  0  0  0
    7.8675   -7.0096   15.9415 C   0  0  0  0  0  0  0  0  0  0  0  0
    5.9733   -9.6553   17.3832 N   0  0  0  0  0  0  0  0  0  0  0  0
   10.2411   -2.9363   23.4301 C   0  0  0  0  0  0  0  0  0  0  0  0
   10.7288   -3.8197   19.9525 C   0  0  0  0  0  0  0  0  0  0  0  0
   10.1189   -5.0054   19.6987 C   0  0  0  0  0  0  0  0  0  0  0  0
  1  3  4  0
  1  7  4  0
  2 21  4  0
  2 27  4  0
  3  9  4  0
  3 10  4  0
  4  8  4  0
  4 18  4  0
  4 25  1  0
  5  9  4  0
  5 12  4  0
  6 13  1  0
  6 27  1  0
  7 28  4  0
  8 11  4  0
  9 29  4  0
 10 12  4  0
 11 24  1  0
 11 26  4  0
 12 25  1  0
 13 28  1  0
 14 20  4  0
 14 23  4  0
 15 17  4  0
 15 21  4  0
 16 19  4  0
 16 23  4  0
 17 22  4  0
 18 26  4  0
 19 24  4  0
 20 24  4  0
 22 27  4  0
 28 29  4  0
M  END
$$$$

 Created by Python create_sdf_string function

 29 33  0  0  0  0  0  0  0  0999 V2000
   10.7215   -3.3326   17.6437 C   0  0  0  0  0  0  0  0  0  0  0  0
    9.9489   -3.4675   24.6487 N   0  0  0  0  0  0  0  0  0  0  0  0
   10.0172   -4.4740   17.4101 C   0  0  0  0  0  0  0  0  0  0  0  0
    6.9051   -7.9575   16.4222 C   0  0  0  0  0  0  0  0  0  0  0  0
    8.9969   -6.3552   17.9668 N   0  0  0  0  0  0  0  0  0  0  0  0
   10.6702   -3.9051   22.4070 C   0  0  0  0  0  0  0  0  0  0  0  0
   11.0625   -3.0028   18.8894 C   0  0  0  0  0  0  0  0  0  0  0  0
    5.6180   -7.9194   16.1754 O   0  0  0  0  0  0  0  0  0  0  0  0
    9.7259   -5.3080   18.4485 C   0  0  0  0  0  0  0  0  0  0  0  0
    9.4578   -5.0200   16.3036 N   0  0  0  0  0  0  0  0  0  0  0  0
    5.0287   -8.9365   16.8223 C   0  0  0  0  0  0  0  0  0  0  0  0
    8.7742   -6.1498   16.6764 C   0  0  0  0  0  0  0  0  0  0  0  0
   10.9418   -3.4032   21.2053 O   0  0  0  0  0  0  0  0  0  0  0  0
    1.4797   -8.6258   16.2950 C   0  0  0  0  0  0  0  0  0  0  0  0
    9.2861   -1.2743   25.3585 C   0  0  0  0  0  0  0  0  0  0  0  0
    1.8892  -10.3985   17.7511 N   0  0  0  0  0  0  0  0  0  0  0  0
    9.6210   -0.6952   24.0976 C   0  0  0  0  0  0  0  0  0  0  0  0
    7.0792   -9.0217   17.1429 C   0  0  0  0  0  0  0  0  0  0  0  0
    3.1713  -10.1816   17.6634 C   0  0  0  0  0  0  0  0  0  0  0  0
    2.7878   -8.3822   16.2137 C   0  0  0  0  0  0  0  0  0  0  0  0
    9.4601   -2.6590   25.6528 C   0  0  0  0  0  0  0  0  0  0  0  0
   10.1182   -1.5672   23.1165 C   0  0  0  0  0  0  0  0  0  0  0  0
    1.0552   -9.6360   17.0650 C   0  0  0  0  0  0  0  0  0  0  0  0
    3.6519   -9.1783   16.9039 C   0  0  0  0  0  0  0  0  0  0  0  0
    7.8675   -7.0096   15.9415 C   0  0  0  0  0  0  0  0  0  0  0  0
    5.9733   -9.6553   17.3832 N   0  0  0  0  0  0  0  0  0  0  0  0
   10.2411   -2.9363   23.4301 C   0  0  0  0  0  0  0  0  0  0  0  0
   10.7288   -3.8197   19.9525 C   0  0  0  0  0  0  0  0  0  0  0  0
   10.1189   -5.0054   19.6987 C   0  0  0  0  0  0  0  0  0  0  0  0
  1  3  4  0
  1  7  4  0
  2 21  4  0
  2 27  4  0
  3  9  4  0
  3 10  4  0
  4  8  4  0
  4 18  4  0
  4 25  1  0
  5  9  4  0
  5 12  4  0
  6 13  1  0
  6 27  1  0
  7 28  4  0
  8 11  4  0
  9 29  4  0
 10 12  4  0
 11 24  1  0
 11 26  4  0
 12 25  1  0
 13 28  1  0
 14 20  4  0
 14 23  4  0
 15 17  4  0
 15 21  4  0
 16 19  4  0
 16 23  4  0
 17 22  4  0
 18 26  4  0
 19 24  4  0
 20 24  4  0
 22 27  4  0
 28 29  4  0
M  END
$$$$

 Created by Python create_sdf_string function

 29 33  0  0  0  0  0  0  0  0999 V2000
   10.7215   -3.3326   17.6437 C   0  0  0  0  0  0  0  0  0  0  0  0
    9.9489   -3.4675   24.6487 N   0  0  0  0  0  0  0  0  0  0  0  0
   10.0172   -4.4740   17.4101 C   0  0  0  0  0  0  0  0  0  0  0  0
    6.9051   -7.9575   16.4222 C   0  0  0  0  0  0  0  0  0  0  0  0
    8.9969   -6.3552   17.9668 N   0  0  0  0  0  0  0  0  0  0  0  0
   10.6702   -3.9051   22.4070 C   0  0  0  0  0  0  0  0  0  0  0  0
   11.0625   -3.0028   18.8894 C   0  0  0  0  0  0  0  0  0  0  0  0
    5.6180   -7.9194   16.1754 O   0  0  0  0  0  0  0  0  0  0  0  0
    9.7259   -5.3080   18.4485 C   0  0  0  0  0  0  0  0  0  0  0  0
    9.4578   -5.0200   16.3036 N   0  0  0  0  0  0  0  0  0  0  0  0
    5.0287   -8.9365   16.8223 C   0  0  0  0  0  0  0  0  0  0  0  0
    8.7742   -6.1498   16.6764 C   0  0  0  0  0  0  0  0  0  0  0  0
   10.9418   -3.4032   21.2053 O   0  0  0  0  0  0  0  0  0  0  0  0
    1.4797   -8.6258   16.2950 C   0  0  0  0  0  0  0  0  0  0  0  0
    9.2861   -1.2743   25.3585 C   0  0  0  0  0  0  0  0  0  0  0  0
    1.8892  -10.3985   17.7511 N   0  0  0  0  0  0  0  0  0  0  0  0
    9.6210   -0.6952   24.0976 C   0  0  0  0  0  0  0  0  0  0  0  0
    7.0792   -9.0217   17.1429 C   0  0  0  0  0  0  0  0  0  0  0  0
    3.1713  -10.1816   17.6634 C   0  0  0  0  0  0  0  0  0  0  0  0
    2.7878   -8.3822   16.2137 C   0  0  0  0  0  0  0  0  0  0  0  0
    9.4601   -2.6590   25.6528 C   0  0  0  0  0  0  0  0  0  0  0  0
   10.1182   -1.5672   23.1165 C   0  0  0  0  0  0  0  0  0  0  0  0
    1.0552   -9.6360   17.0650 C   0  0  0  0  0  0  0  0  0  0  0  0
    3.6519   -9.1783   16.9039 C   0  0  0  0  0  0  0  0  0  0  0  0
    7.8675   -7.0096   15.9415 C   0  0  0  0  0  0  0  0  0  0  0  0
    5.9733   -9.6553   17.3832 N   0  0  0  0  0  0  0  0  0  0  0  0
   10.2411   -2.9363   23.4301 C   0  0  0  0  0  0  0  0  0  0  0  0
   10.7288   -3.8197   19.9525 C   0  0  0  0  0  0  0  0  0  0  0  0
   10.1189   -5.0054   19.6987 C   0  0  0  0  0  0  0  0  0  0  0  0
  1  3  4  0
  1  7  4  0
  2 21  4  0
  2 27  4  0
  3  9  4  0
  3 10  4  0
  4  8  4  0
  4 18  4  0
  4 25  1  0
  5  9  4  0
  5 12  4  0
  6 13  1  0
  6 27  1  0
  7 28  4  0
  8 11  4  0
  9 29  4  0
 10 12  4  0
 11 24  1  0
 11 26  4  0
 12 25  1  0
 13 28  1  0
 14 20  4  0
 14 23  4  0
 15 17  4  0
 15 21  4  0
 16 19  4  0
 16 23  4  0
 17 22  4  0
 18 26  4  0
 19 24  4  0
 20 24  4  0
 22 27  4  0
 28 29  4  0
M  END
$$$$

 Created by Python create_sdf_string function

 29 33  0  0  0  0  0  0  0  0999 V2000
   10.7215   -3.3326   17.6437 C   0  0  0  0  0  0  0  0  0  0  0  0
    9.9489   -3.4675   24.6487 N   0  0  0  0  0  0  0  0  0  0  0  0
   10.0172   -4.4740   17.4101 C   0  0  0  0  0  0  0  0  0  0  0  0
    6.9051   -7.9575   16.4222 C   0  0  0  0  0  0  0  0  0  0  0  0
    8.9969   -6.3552   17.9668 N   0  0  0  0  0  0  0  0  0  0  0  0
   10.6702   -3.9051   22.4070 C   0  0  0  0  0  0  0  0  0  0  0  0
   11.0625   -3.0028   18.8894 C   0  0  0  0  0  0  0  0  0  0  0  0
    5.6180   -7.9194   16.1754 O   0  0  0  0  0  0  0  0  0  0  0  0
    9.7259   -5.3080   18.4485 C   0  0  0  0  0  0  0  0  0  0  0  0
    9.4578   -5.0200   16.3036 N   0  0  0  0  0  0  0  0  0  0  0  0
    5.0287   -8.9365   16.8223 C   0  0  0  0  0  0  0  0  0  0  0  0
    8.7742   -6.1498   16.6764 C   0  0  0  0  0  0  0  0  0  0  0  0
   10.9418   -3.4032   21.2053 O   0  0  0  0  0  0  0  0  0  0  0  0
    1.4797   -8.6258   16.2950 C   0  0  0  0  0  0  0  0  0  0  0  0
    9.2861   -1.2743   25.3585 C   0  0  0  0  0  0  0  0  0  0  0  0
    1.8892  -10.3985   17.7511 N   0  0  0  0  0  0  0  0  0  0  0  0
    9.6210   -0.6952   24.0976 C   0  0  0  0  0  0  0  0  0  0  0  0
    7.0792   -9.0217   17.1429 C   0  0  0  0  0  0  0  0  0  0  0  0
    3.1713  -10.1816   17.6634 C   0  0  0  0  0  0  0  0  0  0  0  0
    2.7878   -8.3822   16.2137 C   0  0  0  0  0  0  0  0  0  0  0  0
    9.4601   -2.6590   25.6528 C   0  0  0  0  0  0  0  0  0  0  0  0
   10.1182   -1.5672   23.1165 C   0  0  0  0  0  0  0  0  0  0  0  0
    1.0552   -9.6360   17.0650 C   0  0  0  0  0  0  0  0  0  0  0  0
    3.6519   -9.1783   16.9039 C   0  0  0  0  0  0  0  0  0  0  0  0
    7.8675   -7.0096   15.9415 C   0  0  0  0  0  0  0  0  0  0  0  0
    5.9733   -9.6553   17.3832 N   0  0  0  0  0  0  0  0  0  0  0  0
   10.2411   -2.9363   23.4301 C   0  0  0  0  0  0  0  0  0  0  0  0
   10.7288   -3.8197   19.9525 C   0  0  0  0  0  0  0  0  0  0  0  0
   10.1189   -5.0054   19.6987 C   0  0  0  0  0  0  0  0  0  0  0  0
  1  3  4  0
  1  7  4  0
  2 21  4  0
  2 27  4  0
  3  9  4  0
  3 10  4  0
  4  8  4  0
  4 18  4  0
  4 25  1  0
  5  9  4  0
  5 12  4  0
  6 13  1  0
  6 27  1  0
  7 28  4  0
  8 11  4  0
  9 29  4  0
 10 12  4  0
 11 24  1  0
 11 26  4  0
 12 25  1  0
 13 28  1  0
 14 20  4  0
 14 23  4  0
 15 17  4  0
 15 21  4  0
 16 19  4  0
 16 23  4  0
 17 22  4  0
 18 26  4  0
 19 24  4  0
 20 24  4  0
 22 27  4  0
 28 29  4  0
M  END
$$$$

 Created by Python create_sdf_string function

 29 33  0  0  0  0  0  0  0  0999 V2000
   10.7215   -3.3326   17.6437 C   0  0  0  0  0  0  0  0  0  0  0  0
    9.9489   -3.4675   24.6487 N   0  0  0  0  0  0  0  0  0  0  0  0
   10.0172   -4.4740   17.4101 C   0  0  0  0  0  0  0  0  0  0  0  0
    6.9051   -7.9575   16.4222 C   0  0  0  0  0  0  0  0  0  0  0  0
    8.9969   -6.3552   17.9668 N   0  0  0  0  0  0  0  0  0  0  0  0
   10.6702   -3.9051   22.4070 C   0  0  0  0  0  0  0  0  0  0  0  0
   11.0625   -3.0028   18.8894 C   0  0  0  0  0  0  0  0  0  0  0  0
    5.6180   -7.9194   16.1754 O   0  0  0  0  0  0  0  0  0  0  0  0
    9.7259   -5.3080   18.4485 C   0  0  0  0  0  0  0  0  0  0  0  0
    9.4578   -5.0200   16.3036 N   0  0  0  0  0  0  0  0  0  0  0  0
    5.0287   -8.9365   16.8223 C   0  0  0  0  0  0  0  0  0  0  0  0
    8.7742   -6.1498   16.6764 C   0  0  0  0  0  0  0  0  0  0  0  0
   10.9418   -3.4032   21.2053 O   0  0  0  0  0  0  0  0  0  0  0  0
    1.4797   -8.6258   16.2950 C   0  0  0  0  0  0  0  0  0  0  0  0
    9.2861   -1.2743   25.3585 C   0  0  0  0  0  0  0  0  0  0  0  0
    1.8892  -10.3985   17.7511 N   0  0  0  0  0  0  0  0  0  0  0  0
    9.6210   -0.6952   24.0976 C   0  0  0  0  0  0  0  0  0  0  0  0
    7.0792   -9.0217   17.1429 C   0  0  0  0  0  0  0  0  0  0  0  0
    3.1713  -10.1816   17.6634 C   0  0  0  0  0  0  0  0  0  0  0  0
    2.7878   -8.3822   16.2137 C   0  0  0  0  0  0  0  0  0  0  0  0
    9.4601   -2.6590   25.6528 C   0  0  0  0  0  0  0  0  0  0  0  0
   10.1182   -1.5672   23.1165 C   0  0  0  0  0  0  0  0  0  0  0  0
    1.0552   -9.6360   17.0650 C   0  0  0  0  0  0  0  0  0  0  0  0
    3.6519   -9.1783   16.9039 C   0  0  0  0  0  0  0  0  0  0  0  0
    7.8675   -7.0096   15.9415 C   0  0  0  0  0  0  0  0  0  0  0  0
    5.9733   -9.6553   17.3832 N   0  0  0  0  0  0  0  0  0  0  0  0
   10.2411   -2.9363   23.4301 C   0  0  0  0  0  0  0  0  0  0  0  0
   10.7288   -3.8197   19.9525 C   0  0  0  0  0  0  0  0  0  0  0  0
   10.1189   -5.0054   19.6987 C   0  0  0  0  0  0  0  0  0  0  0  0
  1  3  4  0
  1  7  4  0
  2 21  4  0
  2 27  4  0
  3  9  4  0
  3 10  4  0
  4  8  4  0
  4 18  4  0
  4 25  1  0
  5  9  4  0
  5 12  4  0
  6 13  1  0
  6 27  1  0
  7 28  4  0
  8 11  4  0
  9 29  4  0
 10 12  4  0
 11 24  1  0
 11 26  4  0
 12 25  1  0
 13 28  1  0
 14 20  4  0
 14 23  4  0
 15 17  4  0
 15 21  4  0
 16 19  4  0
 16 23  4  0
 17 22  4  0
 18 26  4  0
 19 24  4  0
 20 24  4  0
 22 27  4  0
 28 29  4  0
M  END
$$$$

 Created by Python create_sdf_string function

 29 33  0  0  0  0  0  0  0  0999 V2000
   10.7215   -3.3326   17.6437 C   0  0  0  0  0  0  0  0  0  0  0  0
    9.9489   -3.4675   24.6487 N   0  0  0  0  0  0  0  0  0  0  0  0
   10.0172   -4.4740   17.4101 C   0  0  0  0  0  0  0  0  0  0  0  0
    6.9051   -7.9575   16.4222 C   0  0  0  0  0  0  0  0  0  0  0  0
    8.9969   -6.3552   17.9668 N   0  0  0  0  0  0  0  0  0  0  0  0
   10.6702   -3.9051   22.4070 C   0  0  0  0  0  0  0  0  0  0  0  0
   11.0625   -3.0028   18.8894 C   0  0  0  0  0  0  0  0  0  0  0  0
    5.6180   -7.9194   16.1754 O   0  0  0  0  0  0  0  0  0  0  0  0
    9.7259   -5.3080   18.4485 C   0  0  0  0  0  0  0  0  0  0  0  0
    9.4578   -5.0200   16.3036 N   0  0  0  0  0  0  0  0  0  0  0  0
    5.0287   -8.9365   16.8223 C   0  0  0  0  0  0  0  0  0  0  0  0
    8.7742   -6.1498   16.6764 C   0  0  0  0  0  0  0  0  0  0  0  0
   10.9418   -3.4032   21.2053 O   0  0  0  0  0  0  0  0  0  0  0  0
    1.4797   -8.6258   16.2950 C   0  0  0  0  0  0  0  0  0  0  0  0
    9.2861   -1.2743   25.3585 C   0  0  0  0  0  0  0  0  0  0  0  0
    1.8892  -10.3985   17.7511 N   0  0  0  0  0  0  0  0  0  0  0  0
    9.6210   -0.6952   24.0976 C   0  0  0  0  0  0  0  0  0  0  0  0
    7.0792   -9.0217   17.1429 C   0  0  0  0  0  0  0  0  0  0  0  0
    3.1713  -10.1816   17.6634 C   0  0  0  0  0  0  0  0  0  0  0  0
    2.7878   -8.3822   16.2137 C   0  0  0  0  0  0  0  0  0  0  0  0
    9.4601   -2.6590   25.6528 C   0  0  0  0  0  0  0  0  0  0  0  0
   10.1182   -1.5672   23.1165 C   0  0  0  0  0  0  0  0  0  0  0  0
    1.0552   -9.6360   17.0650 C   0  0  0  0  0  0  0  0  0  0  0  0
    3.6519   -9.1783   16.9039 C   0  0  0  0  0  0  0  0  0  0  0  0
    7.8675   -7.0096   15.9415 C   0  0  0  0  0  0  0  0  0  0  0  0
    5.9733   -9.6553   17.3832 N   0  0  0  0  0  0  0  0  0  0  0  0
   10.2411   -2.9363   23.4301 C   0  0  0  0  0  0  0  0  0  0  0  0
   10.7288   -3.8197   19.9525 C   0  0  0  0  0  0  0  0  0  0  0  0
   10.1189   -5.0054   19.6987 C   0  0  0  0  0  0  0  0  0  0  0  0
  1  3  4  0
  1  7  4  0
  2 21  4  0
  2 27  4  0
  3  9  4  0
  3 10  4  0
  4  8  4  0
  4 18  4  0
  4 25  1  0
  5  9  4  0
  5 12  4  0
  6 13  1  0
  6 27  1  0
  7 28  4  0
  8 11  4  0
  9 29  4  0
 10 12  4  0
 11 24  1  0
 11 26  4  0
 12 25  1  0
 13 28  1  0
 14 20  4  0
 14 23  4  0
 15 17  4  0
 15 21  4  0
 16 19  4  0
 16 23  4  0
 17 22  4  0
 18 26  4  0
 19 24  4  0
 20 24  4  0
 22 27  4  0
 28 29  4  0
M  END
$$$$

 Created by Python create_sdf_string function

 29 33  0  0  0  0  0  0  0  0999 V2000
   10.7215   -3.3326   17.6437 C   0  0  0  0  0  0  0  0  0  0  0  0
    9.9489   -3.4675   24.6487 N   0  0  0  0  0  0  0  0  0  0  0  0
   10.0172   -4.4740   17.4101 C   0  0  0  0  0  0  0  0  0  0  0  0
    6.9051   -7.9575   16.4222 C   0  0  0  0  0  0  0  0  0  0  0  0
    8.9969   -6.3552   17.9668 N   0  0  0  0  0  0  0  0  0  0  0  0
   10.6702   -3.9051   22.4070 C   0  0  0  0  0  0  0  0  0  0  0  0
   11.0625   -3.0028   18.8894 C   0  0  0  0  0  0  0  0  0  0  0  0
    5.6180   -7.9194   16.1754 O   0  0  0  0  0  0  0  0  0  0  0  0
    9.7259   -5.3080   18.4485 C   0  0  0  0  0  0  0  0  0  0  0  0
    9.4578   -5.0200   16.3036 N   0  0  0  0  0  0  0  0  0  0  0  0
    5.0287   -8.9365   16.8223 C   0  0  0  0  0  0  0  0  0  0  0  0
    8.7742   -6.1498   16.6764 C   0  0  0  0  0  0  0  0  0  0  0  0
   10.9418   -3.4032   21.2053 O   0  0  0  0  0  0  0  0  0  0  0  0
    1.4797   -8.6258   16.2950 C   0  0  0  0  0  0  0  0  0  0  0  0
    9.2861   -1.2743   25.3585 C   0  0  0  0  0  0  0  0  0  0  0  0
    1.8892  -10.3985   17.7511 N   0  0  0  0  0  0  0  0  0  0  0  0
    9.6210   -0.6952   24.0976 C   0  0  0  0  0  0  0  0  0  0  0  0
    7.0792   -9.0217   17.1429 C   0  0  0  0  0  0  0  0  0  0  0  0
    3.1713  -10.1816   17.6634 C   0  0  0  0  0  0  0  0  0  0  0  0
    2.7878   -8.3822   16.2137 C   0  0  0  0  0  0  0  0  0  0  0  0
    9.4601   -2.6590   25.6528 C   0  0  0  0  0  0  0  0  0  0  0  0
   10.1182   -1.5672   23.1165 C   0  0  0  0  0  0  0  0  0  0  0  0
    1.0552   -9.6360   17.0650 C   0  0  0  0  0  0  0  0  0  0  0  0
    3.6519   -9.1783   16.9039 C   0  0  0  0  0  0  0  0  0  0  0  0
    7.8675   -7.0096   15.9415 C   0  0  0  0  0  0  0  0  0  0  0  0
    5.9733   -9.6553   17.3832 N   0  0  0  0  0  0  0  0  0  0  0  0
   10.2411   -2.9363   23.4301 C   0  0  0  0  0  0  0  0  0  0  0  0
   10.7288   -3.8197   19.9525 C   0  0  0  0  0  0  0  0  0  0  0  0
   10.1189   -5.0054   19.6987 C   0  0  0  0  0  0  0  0  0  0  0  0
  1  3  4  0
  1  7  4  0
  2 21  4  0
  2 27  4  0
  3  9  4  0
  3 10  4  0
  4  8  4  0
  4 18  4  0
  4 25  1  0
  5  9  4  0
  5 12  4  0
  6 13  1  0
  6 27  1  0
  7 28  4  0
  8 11  4  0
  9 29  4  0
 10 12  4  0
 11 24  1  0
 11 26  4  0
 12 25  1  0
 13 28  1  0
 14 20  4  0
 14 23  4  0
 15 17  4  0
 15 21  4  0
 16 19  4  0
 16 23  4  0
 17 22  4  0
 18 26  4  0
 19 24  4  0
 20 24  4  0
 22 27  4  0
 28 29  4  0
M  END
$$$$

 Created by Python create_sdf_string function

 29 33  0  0  0  0  0  0  0  0999 V2000
   10.7215   -3.3326   17.6437 C   0  0  0  0  0  0  0  0  0  0  0  0
    9.9489   -3.4675   24.6487 N   0  0  0  0  0  0  0  0  0  0  0  0
   10.0172   -4.4740   17.4101 C   0  0  0  0  0  0  0  0  0  0  0  0
    6.9051   -7.9575   16.4222 C   0  0  0  0  0  0  0  0  0  0  0  0
    8.9969   -6.3552   17.9668 N   0  0  0  0  0  0  0  0  0  0  0  0
   10.6702   -3.9051   22.4070 C   0  0  0  0  0  0  0  0  0  0  0  0
   11.0625   -3.0028   18.8894 C   0  0  0  0  0  0  0  0  0  0  0  0
    5.6180   -7.9194   16.1754 O   0  0  0  0  0  0  0  0  0  0  0  0
    9.7259   -5.3080   18.4485 C   0  0  0  0  0  0  0  0  0  0  0  0
    9.4578   -5.0200   16.3036 N   0  0  0  0  0  0  0  0  0  0  0  0
    5.0287   -8.9365   16.8223 C   0  0  0  0  0  0  0  0  0  0  0  0
    8.7742   -6.1498   16.6764 C   0  0  0  0  0  0  0  0  0  0  0  0
   10.9418   -3.4032   21.2053 O   0  0  0  0  0  0  0  0  0  0  0  0
    1.4797   -8.6258   16.2950 C   0  0  0  0  0  0  0  0  0  0  0  0
    9.2861   -1.2743   25.3585 C   0  0  0  0  0  0  0  0  0  0  0  0
    1.8892  -10.3985   17.7511 N   0  0  0  0  0  0  0  0  0  0  0  0
    9.6210   -0.6952   24.0976 C   0  0  0  0  0  0  0  0  0  0  0  0
    7.0792   -9.0217   17.1429 C   0  0  0  0  0  0  0  0  0  0  0  0
    3.1713  -10.1816   17.6634 C   0  0  0  0  0  0  0  0  0  0  0  0
    2.7878   -8.3822   16.2137 C   0  0  0  0  0  0  0  0  0  0  0  0
    9.4601   -2.6590   25.6528 C   0  0  0  0  0  0  0  0  0  0  0  0
   10.1182   -1.5672   23.1165 C   0  0  0  0  0  0  0  0  0  0  0  0
    1.0552   -9.6360   17.0650 C   0  0  0  0  0  0  0  0  0  0  0  0
    3.6519   -9.1783   16.9039 C   0  0  0  0  0  0  0  0  0  0  0  0
    7.8675   -7.0096   15.9415 C   0  0  0  0  0  0  0  0  0  0  0  0
    5.9733   -9.6553   17.3832 N   0  0  0  0  0  0  0  0  0  0  0  0
   10.2411   -2.9363   23.4301 C   0  0  0  0  0  0  0  0  0  0  0  0
   10.7288   -3.8197   19.9525 C   0  0  0  0  0  0  0  0  0  0  0  0
   10.1189   -5.0054   19.6987 C   0  0  0  0  0  0  0  0  0  0  0  0
  1  3  4  0
  1  7  4  0
  2 21  4  0
  2 27  4  0
  3  9  4  0
  3 10  4  0
  4  8  4  0
  4 18  4  0
  4 25  1  0
  5  9  4  0
  5 12  4  0
  6 13  1  0
  6 27  1  0
  7 28  4  0
  8 11  4  0
  9 29  4  0
 10 12  4  0
 11 24  1  0
 11 26  4  0
 12 25  1  0
 13 28  1  0
 14 20  4  0
 14 23  4  0
 15 17  4  0
 15 21  4  0
 16 19  4  0
 16 23  4  0
 17 22  4  0
 18 26  4  0
 19 24  4  0
 20 24  4  0
 22 27  4  0
 28 29  4  0
M  END
$$$$

 Created by Python create_sdf_string function

 29 33  0  0  0  0  0  0  0  0999 V2000
   10.7215   -3.3326   17.6437 C   0  0  0  0  0  0  0  0  0  0  0  0
    9.9489   -3.4675   24.6487 N   0  0  0  0  0  0  0  0  0  0  0  0
   10.0172   -4.4740   17.4101 C   0  0  0  0  0  0  0  0  0  0  0  0
    6.9051   -7.9575   16.4222 C   0  0  0  0  0  0  0  0  0  0  0  0
    8.9969   -6.3552   17.9668 N   0  0  0  0  0  0  0  0  0  0  0  0
   10.6702   -3.9051   22.4070 C   0  0  0  0  0  0  0  0  0  0  0  0
   11.0625   -3.0028   18.8894 C   0  0  0  0  0  0  0  0  0  0  0  0
    5.6180   -7.9194   16.1754 O   0  0  0  0  0  0  0  0  0  0  0  0
    9.7259   -5.3080   18.4485 C   0  0  0  0  0  0  0  0  0  0  0  0
    9.4578   -5.0200   16.3036 N   0  0  0  0  0  0  0  0  0  0  0  0
    5.0287   -8.9365   16.8223 C   0  0  0  0  0  0  0  0  0  0  0  0
    8.7742   -6.1498   16.6764 C   0  0  0  0  0  0  0  0  0  0  0  0
   10.9418   -3.4032   21.2053 O   0  0  0  0  0  0  0  0  0  0  0  0
    1.4797   -8.6258   16.2950 C   0  0  0  0  0  0  0  0  0  0  0  0
    9.2861   -1.2743   25.3585 C   0  0  0  0  0  0  0  0  0  0  0  0
    1.8892  -10.3985   17.7511 N   0  0  0  0  0  0  0  0  0  0  0  0
    9.6210   -0.6952   24.0976 C   0  0  0  0  0  0  0  0  0  0  0  0
    7.0792   -9.0217   17.1429 C   0  0  0  0  0  0  0  0  0  0  0  0
    3.1713  -10.1816   17.6634 C   0  0  0  0  0  0  0  0  0  0  0  0
    2.7878   -8.3822   16.2137 C   0  0  0  0  0  0  0  0  0  0  0  0
    9.4601   -2.6590   25.6528 C   0  0  0  0  0  0  0  0  0  0  0  0
   10.1182   -1.5672   23.1165 C   0  0  0  0  0  0  0  0  0  0  0  0
    1.0552   -9.6360   17.0650 C   0  0  0  0  0  0  0  0  0  0  0  0
    3.6519   -9.1783   16.9039 C   0  0  0  0  0  0  0  0  0  0  0  0
    7.8675   -7.0096   15.9415 C   0  0  0  0  0  0  0  0  0  0  0  0
    5.9733   -9.6553   17.3832 N   0  0  0  0  0  0  0  0  0  0  0  0
   10.2411   -2.9363   23.4301 C   0  0  0  0  0  0  0  0  0  0  0  0
   10.7288   -3.8197   19.9525 C   0  0  0  0  0  0  0  0  0  0  0  0
   10.1189   -5.0054   19.6987 C   0  0  0  0  0  0  0  0  0  0  0  0
  1  3  4  0
  1  7  4  0
  2 21  4  0
  2 27  4  0
  3  9  4  0
  3 10  4  0
  4  8  4  0
  4 18  4  0
  4 25  1  0
  5  9  4  0
  5 12  4  0
  6 13  1  0
  6 27  1  0
  7 28  4  0
  8 11  4  0
  9 29  4  0
 10 12  4  0
 11 24  1  0
 11 26  4  0
 12 25  1  0
 13 28  1  0
 14 20  4  0
 14 23  4  0
 15 17  4  0
 15 21  4  0
 16 19  4  0
 16 23  4  0
 17 22  4  0
 18 26  4  0
 19 24  4  0
 20 24  4  0
 22 27  4  0
 28 29  4  0
M  END
$$$$

 Created by Python create_sdf_string function

 29 33  0  0  0  0  0  0  0  0999 V2000
   10.7215   -3.3326   17.6437 C   0  0  0  0  0  0  0  0  0  0  0  0
    9.9489   -3.4675   24.6487 N   0  0  0  0  0  0  0  0  0  0  0  0
   10.0172   -4.4740   17.4101 C   0  0  0  0  0  0  0  0  0  0  0  0
    6.9051   -7.9575   16.4222 C   0  0  0  0  0  0  0  0  0  0  0  0
    8.9969   -6.3552   17.9668 N   0  0  0  0  0  0  0  0  0  0  0  0
   10.6702   -3.9051   22.4070 C   0  0  0  0  0  0  0  0  0  0  0  0
   11.0625   -3.0028   18.8894 C   0  0  0  0  0  0  0  0  0  0  0  0
    5.6180   -7.9194   16.1754 O   0  0  0  0  0  0  0  0  0  0  0  0
    9.7259   -5.3080   18.4485 C   0  0  0  0  0  0  0  0  0  0  0  0
    9.4578   -5.0200   16.3036 N   0  0  0  0  0  0  0  0  0  0  0  0
    5.0287   -8.9365   16.8223 C   0  0  0  0  0  0  0  0  0  0  0  0
    8.7742   -6.1498   16.6764 C   0  0  0  0  0  0  0  0  0  0  0  0
   10.9418   -3.4032   21.2053 O   0  0  0  0  0  0  0  0  0  0  0  0
    1.4797   -8.6258   16.2950 C   0  0  0  0  0  0  0  0  0  0  0  0
    9.2861   -1.2743   25.3585 C   0  0  0  0  0  0  0  0  0  0  0  0
    1.8892  -10.3985   17.7511 N   0  0  0  0  0  0  0  0  0  0  0  0
    9.6210   -0.6952   24.0976 C   0  0  0  0  0  0  0  0  0  0  0  0
    7.0792   -9.0217   17.1429 C   0  0  0  0  0  0  0  0  0  0  0  0
    3.1713  -10.1816   17.6634 C   0  0  0  0  0  0  0  0  0  0  0  0
    2.7878   -8.3822   16.2137 C   0  0  0  0  0  0  0  0  0  0  0  0
    9.4601   -2.6590   25.6528 C   0  0  0  0  0  0  0  0  0  0  0  0
   10.1182   -1.5672   23.1165 C   0  0  0  0  0  0  0  0  0  0  0  0
    1.0552   -9.6360   17.0650 C   0  0  0  0  0  0  0  0  0  0  0  0
    3.6519   -9.1783   16.9039 C   0  0  0  0  0  0  0  0  0  0  0  0
    7.8675   -7.0096   15.9415 C   0  0  0  0  0  0  0  0  0  0  0  0
    5.9733   -9.6553   17.3832 N   0  0  0  0  0  0  0  0  0  0  0  0
   10.2411   -2.9363   23.4301 C   0  0  0  0  0  0  0  0  0  0  0  0
   10.7288   -3.8197   19.9525 C   0  0  0  0  0  0  0  0  0  0  0  0
   10.1189   -5.0054   19.6987 C   0  0  0  0  0  0  0  0  0  0  0  0
  1  3  4  0
  1  7  4  0
  2 21  4  0
  2 27  4  0
  3  9  4  0
  3 10  4  0
  4  8  4  0
  4 18  4  0
  4 25  1  0
  5  9  4  0
  5 12  4  0
  6 13  1  0
  6 27  1  0
  7 28  4  0
  8 11  4  0
  9 29  4  0
 10 12  4  0
 11 24  1  0
 11 26  4  0
 12 25  1  0
 13 28  1  0
 14 20  4  0
 14 23  4  0
 15 17  4  0
 15 21  4  0
 16 19  4  0
 16 23  4  0
 17 22  4  0
 18 26  4  0
 19 24  4  0
 20 24  4  0
 22 27  4  0
 28 29  4  0
M  END
$$$$

 Created by Python create_sdf_string function

 29 33  0  0  0  0  0  0  0  0999 V2000
   10.7215   -3.3326   17.6437 C   0  0  0  0  0  0  0  0  0  0  0  0
    9.9489   -3.4675   24.6487 N   0  0  0  0  0  0  0  0  0  0  0  0
   10.0172   -4.4740   17.4101 C   0  0  0  0  0  0  0  0  0  0  0  0
    6.9051   -7.9575   16.4222 C   0  0  0  0  0  0  0  0  0  0  0  0
    8.9969   -6.3552   17.9668 N   0  0  0  0  0  0  0  0  0  0  0  0
   10.6702   -3.9051   22.4070 C   0  0  0  0  0  0  0  0  0  0  0  0
   11.0625   -3.0028   18.8894 C   0  0  0  0  0  0  0  0  0  0  0  0
    5.6180   -7.9194   16.1754 O   0  0  0  0  0  0  0  0  0  0  0  0
    9.7259   -5.3080   18.4485 C   0  0  0  0  0  0  0  0  0  0  0  0
    9.4578   -5.0200   16.3036 N   0  0  0  0  0  0  0  0  0  0  0  0
    5.0287   -8.9365   16.8223 C   0  0  0  0  0  0  0  0  0  0  0  0
    8.7742   -6.1498   16.6764 C   0  0  0  0  0  0  0  0  0  0  0  0
   10.9418   -3.4032   21.2053 O   0  0  0  0  0  0  0  0  0  0  0  0
    1.4797   -8.6258   16.2950 C   0  0  0  0  0  0  0  0  0  0  0  0
    9.2861   -1.2743   25.3585 C   0  0  0  0  0  0  0  0  0  0  0  0
    1.8892  -10.3985   17.7511 N   0  0  0  0  0  0  0  0  0  0  0  0
    9.6210   -0.6952   24.0976 C   0  0  0  0  0  0  0  0  0  0  0  0
    7.0792   -9.0217   17.1429 C   0  0  0  0  0  0  0  0  0  0  0  0
    3.1713  -10.1816   17.6634 C   0  0  0  0  0  0  0  0  0  0  0  0
    2.7878   -8.3822   16.2137 C   0  0  0  0  0  0  0  0  0  0  0  0
    9.4601   -2.6590   25.6528 C   0  0  0  0  0  0  0  0  0  0  0  0
   10.1182   -1.5672   23.1165 C   0  0  0  0  0  0  0  0  0  0  0  0
    1.0552   -9.6360   17.0650 C   0  0  0  0  0  0  0  0  0  0  0  0
    3.6519   -9.1783   16.9039 C   0  0  0  0  0  0  0  0  0  0  0  0
    7.8675   -7.0096   15.9415 C   0  0  0  0  0  0  0  0  0  0  0  0
    5.9733   -9.6553   17.3832 N   0  0  0  0  0  0  0  0  0  0  0  0
   10.2411   -2.9363   23.4301 C   0  0  0  0  0  0  0  0  0  0  0  0
   10.7288   -3.8197   19.9525 C   0  0  0  0  0  0  0  0  0  0  0  0
   10.1189   -5.0054   19.6987 C   0  0  0  0  0  0  0  0  0  0  0  0
  1  3  4  0
  1  7  4  0
  2 21  4  0
  2 27  4  0
  3  9  4  0
  3 10  4  0
  4  8  4  0
  4 18  4  0
  4 25  1  0
  5  9  4  0
  5 12  4  0
  6 13  1  0
  6 27  1  0
  7 28  4  0
  8 11  4  0
  9 29  4  0
 10 12  4  0
 11 24  1  0
 11 26  4  0
 12 25  1  0
 13 28  1  0
 14 20  4  0
 14 23  4  0
 15 17  4  0
 15 21  4  0
 16 19  4  0
 16 23  4  0
 17 22  4  0
 18 26  4  0
 19 24  4  0
 20 24  4  0
 22 27  4  0
 28 29  4  0
M  END
$$$$

 Created by Python create_sdf_string function

 29 33  0  0  0  0  0  0  0  0999 V2000
   10.7215   -3.3326   17.6437 C   0  0  0  0  0  0  0  0  0  0  0  0
    9.9489   -3.4675   24.6487 N   0  0  0  0  0  0  0  0  0  0  0  0
   10.0172   -4.4740   17.4101 C   0  0  0  0  0  0  0  0  0  0  0  0
    6.9051   -7.9575   16.4222 C   0  0  0  0  0  0  0  0  0  0  0  0
    8.9969   -6.3552   17.9668 N   0  0  0  0  0  0  0  0  0  0  0  0
   10.6702   -3.9051   22.4070 C   0  0  0  0  0  0  0  0  0  0  0  0
   11.0625   -3.0028   18.8894 C   0  0  0  0  0  0  0  0  0  0  0  0
    5.6180   -7.9194   16.1754 O   0  0  0  0  0  0  0  0  0  0  0  0
    9.7259   -5.3080   18.4485 C   0  0  0  0  0  0  0  0  0  0  0  0
    9.4578   -5.0200   16.3036 N   0  0  0  0  0  0  0  0  0  0  0  0
    5.0287   -8.9365   16.8223 C   0  0  0  0  0  0  0  0  0  0  0  0
    8.7742   -6.1498   16.6764 C   0  0  0  0  0  0  0  0  0  0  0  0
   10.9418   -3.4032   21.2053 O   0  0  0  0  0  0  0  0  0  0  0  0
    1.4797   -8.6258   16.2950 C   0  0  0  0  0  0  0  0  0  0  0  0
    9.2861   -1.2743   25.3585 C   0  0  0  0  0  0  0  0  0  0  0  0
    1.8892  -10.3985   17.7511 N   0  0  0  0  0  0  0  0  0  0  0  0
    9.6210   -0.6952   24.0976 C   0  0  0  0  0  0  0  0  0  0  0  0
    7.0792   -9.0217   17.1429 C   0  0  0  0  0  0  0  0  0  0  0  0
    3.1713  -10.1816   17.6634 C   0  0  0  0  0  0  0  0  0  0  0  0
    2.7878   -8.3822   16.2137 C   0  0  0  0  0  0  0  0  0  0  0  0
    9.4601   -2.6590   25.6528 C   0  0  0  0  0  0  0  0  0  0  0  0
   10.1182   -1.5672   23.1165 C   0  0  0  0  0  0  0  0  0  0  0  0
    1.0552   -9.6360   17.0650 C   0  0  0  0  0  0  0  0  0  0  0  0
    3.6519   -9.1783   16.9039 C   0  0  0  0  0  0  0  0  0  0  0  0
    7.8675   -7.0096   15.9415 C   0  0  0  0  0  0  0  0  0  0  0  0
    5.9733   -9.6553   17.3832 N   0  0  0  0  0  0  0  0  0  0  0  0
   10.2411   -2.9363   23.4301 C   0  0  0  0  0  0  0  0  0  0  0  0
   10.7288   -3.8197   19.9525 C   0  0  0  0  0  0  0  0  0  0  0  0
   10.1189   -5.0054   19.6987 C   0  0  0  0  0  0  0  0  0  0  0  0
  1  3  4  0
  1  7  4  0
  2 21  4  0
  2 27  4  0
  3  9  4  0
  3 10  4  0
  4  8  4  0
  4 18  4  0
  4 25  1  0
  5  9  4  0
  5 12  4  0
  6 13  1  0
  6 27  1  0
  7 28  4  0
  8 11  4  0
  9 29  4  0
 10 12  4  0
 11 24  1  0
 11 26  4  0
 12 25  1  0
 13 28  1  0
 14 20  4  0
 14 23  4  0
 15 17  4  0
 15 21  4  0
 16 19  4  0
 16 23  4  0
 17 22  4  0
 18 26  4  0
 19 24  4  0
 20 24  4  0
 22 27  4  0
 28 29  4  0
M  END
$$$$

 Created by Python create_sdf_string function

 29 33  0  0  0  0  0  0  0  0999 V2000
   10.7215   -3.3326   17.6437 C   0  0  0  0  0  0  0  0  0  0  0  0
    9.9489   -3.4675   24.6487 N   0  0  0  0  0  0  0  0  0  0  0  0
   10.0172   -4.4740   17.4101 C   0  0  0  0  0  0  0  0  0  0  0  0
    6.9051   -7.9575   16.4222 C   0  0  0  0  0  0  0  0  0  0  0  0
    8.9969   -6.3552   17.9668 N   0  0  0  0  0  0  0  0  0  0  0  0
   10.6702   -3.9051   22.4070 C   0  0  0  0  0  0  0  0  0  0  0  0
   11.0625   -3.0028   18.8894 C   0  0  0  0  0  0  0  0  0  0  0  0
    5.6180   -7.9194   16.1754 O   0  0  0  0  0  0  0  0  0  0  0  0
    9.7259   -5.3080   18.4485 C   0  0  0  0  0  0  0  0  0  0  0  0
    9.4578   -5.0200   16.3036 N   0  0  0  0  0  0  0  0  0  0  0  0
    5.0287   -8.9365   16.8223 C   0  0  0  0  0  0  0  0  0  0  0  0
    8.7742   -6.1498   16.6764 C   0  0  0  0  0  0  0  0  0  0  0  0
   10.9418   -3.4032   21.2053 O   0  0  0  0  0  0  0  0  0  0  0  0
    1.4797   -8.6258   16.2950 C   0  0  0  0  0  0  0  0  0  0  0  0
    9.2861   -1.2743   25.3585 C   0  0  0  0  0  0  0  0  0  0  0  0
    1.8892  -10.3985   17.7511 N   0  0  0  0  0  0  0  0  0  0  0  0
    9.6210   -0.6952   24.0976 C   0  0  0  0  0  0  0  0  0  0  0  0
    7.0792   -9.0217   17.1429 C   0  0  0  0  0  0  0  0  0  0  0  0
    3.1713  -10.1816   17.6634 C   0  0  0  0  0  0  0  0  0  0  0  0
    2.7878   -8.3822   16.2137 C   0  0  0  0  0  0  0  0  0  0  0  0
    9.4601   -2.6590   25.6528 C   0  0  0  0  0  0  0  0  0  0  0  0
   10.1182   -1.5672   23.1165 C   0  0  0  0  0  0  0  0  0  0  0  0
    1.0552   -9.6360   17.0650 C   0  0  0  0  0  0  0  0  0  0  0  0
    3.6519   -9.1783   16.9039 C   0  0  0  0  0  0  0  0  0  0  0  0
    7.8675   -7.0096   15.9415 C   0  0  0  0  0  0  0  0  0  0  0  0
    5.9733   -9.6553   17.3832 N   0  0  0  0  0  0  0  0  0  0  0  0
   10.2411   -2.9363   23.4301 C   0  0  0  0  0  0  0  0  0  0  0  0
   10.7288   -3.8197   19.9525 C   0  0  0  0  0  0  0  0  0  0  0  0
   10.1189   -5.0054   19.6987 C   0  0  0  0  0  0  0  0  0  0  0  0
  1  3  4  0
  1  7  4  0
  2 21  4  0
  2 27  4  0
  3  9  4  0
  3 10  4  0
  4  8  4  0
  4 18  4  0
  4 25  1  0
  5  9  4  0
  5 12  4  0
  6 13  1  0
  6 27  1  0
  7 28  4  0
  8 11  4  0
  9 29  4  0
 10 12  4  0
 11 24  1  0
 11 26  4  0
 12 25  1  0
 13 28  1  0
 14 20  4  0
 14 23  4  0
 15 17  4  0
 15 21  4  0
 16 19  4  0
 16 23  4  0
 17 22  4  0
 18 26  4  0
 19 24  4  0
 20 24  4  0
 22 27  4  0
 28 29  4  0
M  END
$$$$

 Created by Python create_sdf_string function

 29 33  0  0  0  0  0  0  0  0999 V2000
   10.7215   -3.3326   17.6437 C   0  0  0  0  0  0  0  0  0  0  0  0
    9.9489   -3.4675   24.6487 N   0  0  0  0  0  0  0  0  0  0  0  0
   10.0172   -4.4740   17.4101 C   0  0  0  0  0  0  0  0  0  0  0  0
    6.9051   -7.9575   16.4222 C   0  0  0  0  0  0  0  0  0  0  0  0
    8.9969   -6.3552   17.9668 N   0  0  0  0  0  0  0  0  0  0  0  0
   10.6702   -3.9051   22.4070 C   0  0  0  0  0  0  0  0  0  0  0  0
   11.0625   -3.0028   18.8894 C   0  0  0  0  0  0  0  0  0  0  0  0
    5.6180   -7.9194   16.1754 O   0  0  0  0  0  0  0  0  0  0  0  0
    9.7259   -5.3080   18.4485 C   0  0  0  0  0  0  0  0  0  0  0  0
    9.4578   -5.0200   16.3036 N   0  0  0  0  0  0  0  0  0  0  0  0
    5.0287   -8.9365   16.8223 C   0  0  0  0  0  0  0  0  0  0  0  0
    8.7742   -6.1498   16.6764 C   0  0  0  0  0  0  0  0  0  0  0  0
   10.9418   -3.4032   21.2053 O   0  0  0  0  0  0  0  0  0  0  0  0
    1.4797   -8.6258   16.2950 C   0  0  0  0  0  0  0  0  0  0  0  0
    9.2861   -1.2743   25.3585 C   0  0  0  0  0  0  0  0  0  0  0  0
    1.8892  -10.3985   17.7511 N   0  0  0  0  0  0  0  0  0  0  0  0
    9.6210   -0.6952   24.0976 C   0  0  0  0  0  0  0  0  0  0  0  0
    7.0792   -9.0217   17.1429 C   0  0  0  0  0  0  0  0  0  0  0  0
    3.1713  -10.1816   17.6634 C   0  0  0  0  0  0  0  0  0  0  0  0
    2.7878   -8.3822   16.2137 C   0  0  0  0  0  0  0  0  0  0  0  0
    9.4601   -2.6590   25.6528 C   0  0  0  0  0  0  0  0  0  0  0  0
   10.1182   -1.5672   23.1165 C   0  0  0  0  0  0  0  0  0  0  0  0
    1.0552   -9.6360   17.0650 C   0  0  0  0  0  0  0  0  0  0  0  0
    3.6519   -9.1783   16.9039 C   0  0  0  0  0  0  0  0  0  0  0  0
    7.8675   -7.0096   15.9415 C   0  0  0  0  0  0  0  0  0  0  0  0
    5.9733   -9.6553   17.3832 N   0  0  0  0  0  0  0  0  0  0  0  0
   10.2411   -2.9363   23.4301 C   0  0  0  0  0  0  0  0  0  0  0  0
   10.7288   -3.8197   19.9525 C   0  0  0  0  0  0  0  0  0  0  0  0
   10.1189   -5.0054   19.6987 C   0  0  0  0  0  0  0  0  0  0  0  0
  1  3  4  0
  1  7  4  0
  2 21  4  0
  2 27  4  0
  3  9  4  0
  3 10  4  0
  4  8  4  0
  4 18  4  0
  4 25  1  0
  5  9  4  0
  5 12  4  0
  6 13  1  0
  6 27  1  0
  7 28  4  0
  8 11  4  0
  9 29  4  0
 10 12  4  0
 11 24  1  0
 11 26  4  0
 12 25  1  0
 13 28  1  0
 14 20  4  0
 14 23  4  0
 15 17  4  0
 15 21  4  0
 16 19  4  0
 16 23  4  0
 17 22  4  0
 18 26  4  0
 19 24  4  0
 20 24  4  0
 22 27  4  0
 28 29  4  0
M  END
$$$$

 Created by Python create_sdf_string function

 29 33  0  0  0  0  0  0  0  0999 V2000
   10.7215   -3.3326   17.6437 C   0  0  0  0  0  0  0  0  0  0  0  0
    9.9489   -3.4675   24.6487 N   0  0  0  0  0  0  0  0  0  0  0  0
   10.0172   -4.4740   17.4101 C   0  0  0  0  0  0  0  0  0  0  0  0
    6.9051   -7.9575   16.4222 C   0  0  0  0  0  0  0  0  0  0  0  0
    8.9969   -6.3552   17.9668 N   0  0  0  0  0  0  0  0  0  0  0  0
   10.6702   -3.9051   22.4070 C   0  0  0  0  0  0  0  0  0  0  0  0
   11.0625   -3.0028   18.8894 C   0  0  0  0  0  0  0  0  0  0  0  0
    5.6180   -7.9194   16.1754 O   0  0  0  0  0  0  0  0  0  0  0  0
    9.7259   -5.3080   18.4485 C   0  0  0  0  0  0  0  0  0  0  0  0
    9.4578   -5.0200   16.3036 N   0  0  0  0  0  0  0  0  0  0  0  0
    5.0287   -8.9365   16.8223 C   0  0  0  0  0  0  0  0  0  0  0  0
    8.7742   -6.1498   16.6764 C   0  0  0  0  0  0  0  0  0  0  0  0
   10.9418   -3.4032   21.2053 O   0  0  0  0  0  0  0  0  0  0  0  0
    1.4797   -8.6258   16.2950 C   0  0  0  0  0  0  0  0  0  0  0  0
    9.2861   -1.2743   25.3585 C   0  0  0  0  0  0  0  0  0  0  0  0
    1.8892  -10.3985   17.7511 N   0  0  0  0  0  0  0  0  0  0  0  0
    9.6210   -0.6952   24.0976 C   0  0  0  0  0  0  0  0  0  0  0  0
    7.0792   -9.0217   17.1429 C   0  0  0  0  0  0  0  0  0  0  0  0
    3.1713  -10.1816   17.6634 C   0  0  0  0  0  0  0  0  0  0  0  0
    2.7878   -8.3822   16.2137 C   0  0  0  0  0  0  0  0  0  0  0  0
    9.4601   -2.6590   25.6528 C   0  0  0  0  0  0  0  0  0  0  0  0
   10.1182   -1.5672   23.1165 C   0  0  0  0  0  0  0  0  0  0  0  0
    1.0552   -9.6360   17.0650 C   0  0  0  0  0  0  0  0  0  0  0  0
    3.6519   -9.1783   16.9039 C   0  0  0  0  0  0  0  0  0  0  0  0
    7.8675   -7.0096   15.9415 C   0  0  0  0  0  0  0  0  0  0  0  0
    5.9733   -9.6553   17.3832 N   0  0  0  0  0  0  0  0  0  0  0  0
   10.2411   -2.9363   23.4301 C   0  0  0  0  0  0  0  0  0  0  0  0
   10.7288   -3.8197   19.9525 C   0  0  0  0  0  0  0  0  0  0  0  0
   10.1189   -5.0054   19.6987 C   0  0  0  0  0  0  0  0  0  0  0  0
  1  3  4  0
  1  7  4  0
  2 21  4  0
  2 27  4  0
  3  9  4  0
  3 10  4  0
  4  8  4  0
  4 18  4  0
  4 25  1  0
  5  9  4  0
  5 12  4  0
  6 13  1  0
  6 27  1  0
  7 28  4  0
  8 11  4  0
  9 29  4  0
 10 12  4  0
 11 24  1  0
 11 26  4  0
 12 25  1  0
 13 28  1  0
 14 20  4  0
 14 23  4  0
 15 17  4  0
 15 21  4  0
 16 19  4  0
 16 23  4  0
 17 22  4  0
 18 26  4  0
 19 24  4  0
 20 24  4  0
 22 27  4  0
 28 29  4  0
M  END
$$$$

 Created by Python create_sdf_string function

 29 33  0  0  0  0  0  0  0  0999 V2000
   10.7215   -3.3326   17.6437 C   0  0  0  0  0  0  0  0  0  0  0  0
    9.9489   -3.4675   24.6487 N   0  0  0  0  0  0  0  0  0  0  0  0
   10.0172   -4.4740   17.4101 C   0  0  0  0  0  0  0  0  0  0  0  0
    6.9051   -7.9575   16.4222 C   0  0  0  0  0  0  0  0  0  0  0  0
    8.9969   -6.3552   17.9668 N   0  0  0  0  0  0  0  0  0  0  0  0
   10.6702   -3.9051   22.4070 C   0  0  0  0  0  0  0  0  0  0  0  0
   11.0625   -3.0028   18.8894 C   0  0  0  0  0  0  0  0  0  0  0  0
    5.6180   -7.9194   16.1754 O   0  0  0  0  0  0  0  0  0  0  0  0
    9.7259   -5.3080   18.4485 C   0  0  0  0  0  0  0  0  0  0  0  0
    9.4578   -5.0200   16.3036 N   0  0  0  0  0  0  0  0  0  0  0  0
    5.0287   -8.9365   16.8223 C   0  0  0  0  0  0  0  0  0  0  0  0
    8.7742   -6.1498   16.6764 C   0  0  0  0  0  0  0  0  0  0  0  0
   10.9418   -3.4032   21.2053 O   0  0  0  0  0  0  0  0  0  0  0  0
    1.4797   -8.6258   16.2950 C   0  0  0  0  0  0  0  0  0  0  0  0
    9.2861   -1.2743   25.3585 C   0  0  0  0  0  0  0  0  0  0  0  0
    1.8892  -10.3985   17.7511 N   0  0  0  0  0  0  0  0  0  0  0  0
    9.6210   -0.6952   24.0976 C   0  0  0  0  0  0  0  0  0  0  0  0
    7.0792   -9.0217   17.1429 C   0  0  0  0  0  0  0  0  0  0  0  0
    3.1713  -10.1816   17.6634 C   0  0  0  0  0  0  0  0  0  0  0  0
    2.7878   -8.3822   16.2137 C   0  0  0  0  0  0  0  0  0  0  0  0
    9.4601   -2.6590   25.6528 C   0  0  0  0  0  0  0  0  0  0  0  0
   10.1182   -1.5672   23.1165 C   0  0  0  0  0  0  0  0  0  0  0  0
    1.0552   -9.6360   17.0650 C   0  0  0  0  0  0  0  0  0  0  0  0
    3.6519   -9.1783   16.9039 C   0  0  0  0  0  0  0  0  0  0  0  0
    7.8675   -7.0096   15.9415 C   0  0  0  0  0  0  0  0  0  0  0  0
    5.9733   -9.6553   17.3832 N   0  0  0  0  0  0  0  0  0  0  0  0
   10.2411   -2.9363   23.4301 C   0  0  0  0  0  0  0  0  0  0  0  0
   10.7288   -3.8197   19.9525 C   0  0  0  0  0  0  0  0  0  0  0  0
   10.1189   -5.0054   19.6987 C   0  0  0  0  0  0  0  0  0  0  0  0
  1  3  4  0
  1  7  4  0
  2 21  4  0
  2 27  4  0
  3  9  4  0
  3 10  4  0
  4  8  4  0
  4 18  4  0
  4 25  1  0
  5  9  4  0
  5 12  4  0
  6 13  1  0
  6 27  1  0
  7 28  4  0
  8 11  4  0
  9 29  4  0
 10 12  4  0
 11 24  1  0
 11 26  4  0
 12 25  1  0
 13 28  1  0
 14 20  4  0
 14 23  4  0
 15 17  4  0
 15 21  4  0
 16 19  4  0
 16 23  4  0
 17 22  4  0
 18 26  4  0
 19 24  4  0
 20 24  4  0
 22 27  4  0
 28 29  4  0
M  END
$$$$

 Created by Python create_sdf_string function

 29 33  0  0  0  0  0  0  0  0999 V2000
   10.7215   -3.3326   17.6437 C   0  0  0  0  0  0  0  0  0  0  0  0
    9.9489   -3.4675   24.6487 N   0  0  0  0  0  0  0  0  0  0  0  0
   10.0172   -4.4740   17.4101 C   0  0  0  0  0  0  0  0  0  0  0  0
    6.9051   -7.9575   16.4222 C   0  0  0  0  0  0  0  0  0  0  0  0
    8.9969   -6.3552   17.9668 N   0  0  0  0  0  0  0  0  0  0  0  0
   10.6702   -3.9051   22.4070 C   0  0  0  0  0  0  0  0  0  0  0  0
   11.0625   -3.0028   18.8894 C   0  0  0  0  0  0  0  0  0  0  0  0
    5.6180   -7.9194   16.1754 O   0  0  0  0  0  0  0  0  0  0  0  0
    9.7259   -5.3080   18.4485 C   0  0  0  0  0  0  0  0  0  0  0  0
    9.4578   -5.0200   16.3036 N   0  0  0  0  0  0  0  0  0  0  0  0
    5.0287   -8.9365   16.8223 C   0  0  0  0  0  0  0  0  0  0  0  0
    8.7742   -6.1498   16.6764 C   0  0  0  0  0  0  0  0  0  0  0  0
   10.9418   -3.4032   21.2053 O   0  0  0  0  0  0  0  0  0  0  0  0
    1.4797   -8.6258   16.2950 C   0  0  0  0  0  0  0  0  0  0  0  0
    9.2861   -1.2743   25.3585 C   0  0  0  0  0  0  0  0  0  0  0  0
    1.8892  -10.3985   17.7511 N   0  0  0  0  0  0  0  0  0  0  0  0
    9.6210   -0.6952   24.0976 C   0  0  0  0  0  0  0  0  0  0  0  0
    7.0792   -9.0217   17.1429 C   0  0  0  0  0  0  0  0  0  0  0  0
    3.1713  -10.1816   17.6634 C   0  0  0  0  0  0  0  0  0  0  0  0
    2.7878   -8.3822   16.2137 C   0  0  0  0  0  0  0  0  0  0  0  0
    9.4601   -2.6590   25.6528 C   0  0  0  0  0  0  0  0  0  0  0  0
   10.1182   -1.5672   23.1165 C   0  0  0  0  0  0  0  0  0  0  0  0
    1.0552   -9.6360   17.0650 C   0  0  0  0  0  0  0  0  0  0  0  0
    3.6519   -9.1783   16.9039 C   0  0  0  0  0  0  0  0  0  0  0  0
    7.8675   -7.0096   15.9415 C   0  0  0  0  0  0  0  0  0  0  0  0
    5.9733   -9.6553   17.3832 N   0  0  0  0  0  0  0  0  0  0  0  0
   10.2411   -2.9363   23.4301 C   0  0  0  0  0  0  0  0  0  0  0  0
   10.7288   -3.8197   19.9525 C   0  0  0  0  0  0  0  0  0  0  0  0
   10.1189   -5.0054   19.6987 C   0  0  0  0  0  0  0  0  0  0  0  0
  1  3  4  0
  1  7  4  0
  2 21  4  0
  2 27  4  0
  3  9  4  0
  3 10  4  0
  4  8  4  0
  4 18  4  0
  4 25  1  0
  5  9  4  0
  5 12  4  0
  6 13  1  0
  6 27  1  0
  7 28  4  0
  8 11  4  0
  9 29  4  0
 10 12  4  0
 11 24  1  0
 11 26  4  0
 12 25  1  0
 13 28  1  0
 14 20  4  0
 14 23  4  0
 15 17  4  0
 15 21  4  0
 16 19  4  0
 16 23  4  0
 17 22  4  0
 18 26  4  0
 19 24  4  0
 20 24  4  0
 22 27  4  0
 28 29  4  0
M  END
$$$$

 Created by Python create_sdf_string function

 29 33  0  0  0  0  0  0  0  0999 V2000
   10.7215   -3.3326   17.6437 C   0  0  0  0  0  0  0  0  0  0  0  0
    9.9489   -3.4675   24.6487 N   0  0  0  0  0  0  0  0  0  0  0  0
   10.0172   -4.4740   17.4101 C   0  0  0  0  0  0  0  0  0  0  0  0
    6.9051   -7.9575   16.4222 C   0  0  0  0  0  0  0  0  0  0  0  0
    8.9969   -6.3552   17.9668 N   0  0  0  0  0  0  0  0  0  0  0  0
   10.6702   -3.9051   22.4070 C   0  0  0  0  0  0  0  0  0  0  0  0
   11.0625   -3.0028   18.8894 C   0  0  0  0  0  0  0  0  0  0  0  0
    5.6180   -7.9194   16.1754 O   0  0  0  0  0  0  0  0  0  0  0  0
    9.7259   -5.3080   18.4485 C   0  0  0  0  0  0  0  0  0  0  0  0
    9.4578   -5.0200   16.3036 N   0  0  0  0  0  0  0  0  0  0  0  0
    5.0287   -8.9365   16.8223 C   0  0  0  0  0  0  0  0  0  0  0  0
    8.7742   -6.1498   16.6764 C   0  0  0  0  0  0  0  0  0  0  0  0
   10.9418   -3.4032   21.2053 O   0  0  0  0  0  0  0  0  0  0  0  0
    1.4797   -8.6258   16.2950 C   0  0  0  0  0  0  0  0  0  0  0  0
    9.2861   -1.2743   25.3585 C   0  0  0  0  0  0  0  0  0  0  0  0
    1.8892  -10.3985   17.7511 N   0  0  0  0  0  0  0  0  0  0  0  0
    9.6210   -0.6952   24.0976 C   0  0  0  0  0  0  0  0  0  0  0  0
    7.0792   -9.0217   17.1429 C   0  0  0  0  0  0  0  0  0  0  0  0
    3.1713  -10.1816   17.6634 C   0  0  0  0  0  0  0  0  0  0  0  0
    2.7878   -8.3822   16.2137 C   0  0  0  0  0  0  0  0  0  0  0  0
    9.4601   -2.6590   25.6528 C   0  0  0  0  0  0  0  0  0  0  0  0
   10.1182   -1.5672   23.1165 C   0  0  0  0  0  0  0  0  0  0  0  0
    1.0552   -9.6360   17.0650 C   0  0  0  0  0  0  0  0  0  0  0  0
    3.6519   -9.1783   16.9039 C   0  0  0  0  0  0  0  0  0  0  0  0
    7.8675   -7.0096   15.9415 C   0  0  0  0  0  0  0  0  0  0  0  0
    5.9733   -9.6553   17.3832 N   0  0  0  0  0  0  0  0  0  0  0  0
   10.2411   -2.9363   23.4301 C   0  0  0  0  0  0  0  0  0  0  0  0
   10.7288   -3.8197   19.9525 C   0  0  0  0  0  0  0  0  0  0  0  0
   10.1189   -5.0054   19.6987 C   0  0  0  0  0  0  0  0  0  0  0  0
  1  3  4  0
  1  7  4  0
  2 21  4  0
  2 27  4  0
  3  9  4  0
  3 10  4  0
  4  8  4  0
  4 18  4  0
  4 25  1  0
  5  9  4  0
  5 12  4  0
  6 13  1  0
  6 27  1  0
  7 28  4  0
  8 11  4  0
  9 29  4  0
 10 12  4  0
 11 24  1  0
 11 26  4  0
 12 25  1  0
 13 28  1  0
 14 20  4  0
 14 23  4  0
 15 17  4  0
 15 21  4  0
 16 19  4  0
 16 23  4  0
 17 22  4  0
 18 26  4  0
 19 24  4  0
 20 24  4  0
 22 27  4  0
 28 29  4  0
M  END
$$$$

 Created by Python create_sdf_string function

 29 33  0  0  0  0  0  0  0  0999 V2000
   10.7215   -3.3326   17.6437 C   0  0  0  0  0  0  0  0  0  0  0  0
    9.9489   -3.4675   24.6487 N   0  0  0  0  0  0  0  0  0  0  0  0
   10.0172   -4.4740   17.4101 C   0  0  0  0  0  0  0  0  0  0  0  0
    6.9051   -7.9575   16.4222 C   0  0  0  0  0  0  0  0  0  0  0  0
    8.9969   -6.3552   17.9668 N   0  0  0  0  0  0  0  0  0  0  0  0
   10.6702   -3.9051   22.4070 C   0  0  0  0  0  0  0  0  0  0  0  0
   11.0625   -3.0028   18.8894 C   0  0  0  0  0  0  0  0  0  0  0  0
    5.6180   -7.9194   16.1754 O   0  0  0  0  0  0  0  0  0  0  0  0
    9.7259   -5.3080   18.4485 C   0  0  0  0  0  0  0  0  0  0  0  0
    9.4578   -5.0200   16.3036 N   0  0  0  0  0  0  0  0  0  0  0  0
    5.0287   -8.9365   16.8223 C   0  0  0  0  0  0  0  0  0  0  0  0
    8.7742   -6.1498   16.6764 C   0  0  0  0  0  0  0  0  0  0  0  0
   10.9418   -3.4032   21.2053 O   0  0  0  0  0  0  0  0  0  0  0  0
    1.4797   -8.6258   16.2950 C   0  0  0  0  0  0  0  0  0  0  0  0
    9.2861   -1.2743   25.3585 C   0  0  0  0  0  0  0  0  0  0  0  0
    1.8892  -10.3985   17.7511 N   0  0  0  0  0  0  0  0  0  0  0  0
    9.6210   -0.6952   24.0976 C   0  0  0  0  0  0  0  0  0  0  0  0
    7.0792   -9.0217   17.1429 C   0  0  0  0  0  0  0  0  0  0  0  0
    3.1713  -10.1816   17.6634 C   0  0  0  0  0  0  0  0  0  0  0  0
    2.7878   -8.3822   16.2137 C   0  0  0  0  0  0  0  0  0  0  0  0
    9.4601   -2.6590   25.6528 C   0  0  0  0  0  0  0  0  0  0  0  0
   10.1182   -1.5672   23.1165 C   0  0  0  0  0  0  0  0  0  0  0  0
    1.0552   -9.6360   17.0650 C   0  0  0  0  0  0  0  0  0  0  0  0
    3.6519   -9.1783   16.9039 C   0  0  0  0  0  0  0  0  0  0  0  0
    7.8675   -7.0096   15.9415 C   0  0  0  0  0  0  0  0  0  0  0  0
    5.9733   -9.6553   17.3832 N   0  0  0  0  0  0  0  0  0  0  0  0
   10.2411   -2.9363   23.4301 C   0  0  0  0  0  0  0  0  0  0  0  0
   10.7288   -3.8197   19.9525 C   0  0  0  0  0  0  0  0  0  0  0  0
   10.1189   -5.0054   19.6987 C   0  0  0  0  0  0  0  0  0  0  0  0
  1  3  4  0
  1  7  4  0
  2 21  4  0
  2 27  4  0
  3  9  4  0
  3 10  4  0
  4  8  4  0
  4 18  4  0
  4 25  1  0
  5  9  4  0
  5 12  4  0
  6 13  1  0
  6 27  1  0
  7 28  4  0
  8 11  4  0
  9 29  4  0
 10 12  4  0
 11 24  1  0
 11 26  4  0
 12 25  1  0
 13 28  1  0
 14 20  4  0
 14 23  4  0
 15 17  4  0
 15 21  4  0
 16 19  4  0
 16 23  4  0
 17 22  4  0
 18 26  4  0
 19 24  4  0
 20 24  4  0
 22 27  4  0
 28 29  4  0
M  END
$$$$

 Created by Python create_sdf_string function

 29 33  0  0  0  0  0  0  0  0999 V2000
   10.7215   -3.3326   17.6437 C   0  0  0  0  0  0  0  0  0  0  0  0
    9.9489   -3.4675   24.6487 N   0  0  0  0  0  0  0  0  0  0  0  0
   10.0172   -4.4740   17.4101 C   0  0  0  0  0  0  0  0  0  0  0  0
    6.9051   -7.9575   16.4222 C   0  0  0  0  0  0  0  0  0  0  0  0
    8.9969   -6.3552   17.9668 N   0  0  0  0  0  0  0  0  0  0  0  0
   10.6702   -3.9051   22.4070 C   0  0  0  0  0  0  0  0  0  0  0  0
   11.0625   -3.0028   18.8894 C   0  0  0  0  0  0  0  0  0  0  0  0
    5.6180   -7.9194   16.1754 O   0  0  0  0  0  0  0  0  0  0  0  0
    9.7259   -5.3080   18.4485 C   0  0  0  0  0  0  0  0  0  0  0  0
    9.4578   -5.0200   16.3036 N   0  0  0  0  0  0  0  0  0  0  0  0
    5.0287   -8.9365   16.8223 C   0  0  0  0  0  0  0  0  0  0  0  0
    8.7742   -6.1498   16.6764 C   0  0  0  0  0  0  0  0  0  0  0  0
   10.9418   -3.4032   21.2053 O   0  0  0  0  0  0  0  0  0  0  0  0
    1.4797   -8.6258   16.2950 C   0  0  0  0  0  0  0  0  0  0  0  0
    9.2861   -1.2743   25.3585 C   0  0  0  0  0  0  0  0  0  0  0  0
    1.8892  -10.3985   17.7511 N   0  0  0  0  0  0  0  0  0  0  0  0
    9.6210   -0.6952   24.0976 C   0  0  0  0  0  0  0  0  0  0  0  0
    7.0792   -9.0217   17.1429 C   0  0  0  0  0  0  0  0  0  0  0  0
    3.1713  -10.1816   17.6634 C   0  0  0  0  0  0  0  0  0  0  0  0
    2.7878   -8.3822   16.2137 C   0  0  0  0  0  0  0  0  0  0  0  0
    9.4601   -2.6590   25.6528 C   0  0  0  0  0  0  0  0  0  0  0  0
   10.1182   -1.5672   23.1165 C   0  0  0  0  0  0  0  0  0  0  0  0
    1.0552   -9.6360   17.0650 C   0  0  0  0  0  0  0  0  0  0  0  0
    3.6519   -9.1783   16.9039 C   0  0  0  0  0  0  0  0  0  0  0  0
    7.8675   -7.0096   15.9415 C   0  0  0  0  0  0  0  0  0  0  0  0
    5.9733   -9.6553   17.3832 N   0  0  0  0  0  0  0  0  0  0  0  0
   10.2411   -2.9363   23.4301 C   0  0  0  0  0  0  0  0  0  0  0  0
   10.7288   -3.8197   19.9525 C   0  0  0  0  0  0  0  0  0  0  0  0
   10.1189   -5.0054   19.6987 C   0  0  0  0  0  0  0  0  0  0  0  0
  1  3  4  0
  1  7  4  0
  2 21  4  0
  2 27  4  0
  3  9  4  0
  3 10  4  0
  4  8  4  0
  4 18  4  0
  4 25  1  0
  5  9  4  0
  5 12  4  0
  6 13  1  0
  6 27  1  0
  7 28  4  0
  8 11  4  0
  9 29  4  0
 10 12  4  0
 11 24  1  0
 11 26  4  0
 12 25  1  0
 13 28  1  0
 14 20  4  0
 14 23  4  0
 15 17  4  0
 15 21  4  0
 16 19  4  0
 16 23  4  0
 17 22  4  0
 18 26  4  0
 19 24  4  0
 20 24  4  0
 22 27  4  0
 28 29  4  0
M  END
$$$$

 Created by Python create_sdf_string function

 29 33  0  0  0  0  0  0  0  0999 V2000
   10.7215   -3.3326   17.6437 C   0  0  0  0  0  0  0  0  0  0  0  0
    9.9489   -3.4675   24.6487 N   0  0  0  0  0  0  0  0  0  0  0  0
   10.0172   -4.4740   17.4101 C   0  0  0  0  0  0  0  0  0  0  0  0
    6.9051   -7.9575   16.4222 C   0  0  0  0  0  0  0  0  0  0  0  0
    8.9969   -6.3552   17.9668 N   0  0  0  0  0  0  0  0  0  0  0  0
   10.6702   -3.9051   22.4070 C   0  0  0  0  0  0  0  0  0  0  0  0
   11.0625   -3.0028   18.8894 C   0  0  0  0  0  0  0  0  0  0  0  0
    5.6180   -7.9194   16.1754 O   0  0  0  0  0  0  0  0  0  0  0  0
    9.7259   -5.3080   18.4485 C   0  0  0  0  0  0  0  0  0  0  0  0
    9.4578   -5.0200   16.3036 N   0  0  0  0  0  0  0  0  0  0  0  0
    5.0287   -8.9365   16.8223 C   0  0  0  0  0  0  0  0  0  0  0  0
    8.7742   -6.1498   16.6764 C   0  0  0  0  0  0  0  0  0  0  0  0
   10.9418   -3.4032   21.2053 O   0  0  0  0  0  0  0  0  0  0  0  0
    1.4797   -8.6258   16.2950 C   0  0  0  0  0  0  0  0  0  0  0  0
    9.2861   -1.2743   25.3585 C   0  0  0  0  0  0  0  0  0  0  0  0
    1.8892  -10.3985   17.7511 N   0  0  0  0  0  0  0  0  0  0  0  0
    9.6210   -0.6952   24.0976 C   0  0  0  0  0  0  0  0  0  0  0  0
    7.0792   -9.0217   17.1429 C   0  0  0  0  0  0  0  0  0  0  0  0
    3.1713  -10.1816   17.6634 C   0  0  0  0  0  0  0  0  0  0  0  0
    2.7878   -8.3822   16.2137 C   0  0  0  0  0  0  0  0  0  0  0  0
    9.4601   -2.6590   25.6528 C   0  0  0  0  0  0  0  0  0  0  0  0
   10.1182   -1.5672   23.1165 C   0  0  0  0  0  0  0  0  0  0  0  0
    1.0552   -9.6360   17.0650 C   0  0  0  0  0  0  0  0  0  0  0  0
    3.6519   -9.1783   16.9039 C   0  0  0  0  0  0  0  0  0  0  0  0
    7.8675   -7.0096   15.9415 C   0  0  0  0  0  0  0  0  0  0  0  0
    5.9733   -9.6553   17.3832 N   0  0  0  0  0  0  0  0  0  0  0  0
   10.2411   -2.9363   23.4301 C   0  0  0  0  0  0  0  0  0  0  0  0
   10.7288   -3.8197   19.9525 C   0  0  0  0  0  0  0  0  0  0  0  0
   10.1189   -5.0054   19.6987 C   0  0  0  0  0  0  0  0  0  0  0  0
  1  3  4  0
  1  7  4  0
  2 21  4  0
  2 27  4  0
  3  9  4  0
  3 10  4  0
  4  8  4  0
  4 18  4  0
  4 25  1  0
  5  9  4  0
  5 12  4  0
  6 13  1  0
  6 27  1  0
  7 28  4  0
  8 11  4  0
  9 29  4  0
 10 12  4  0
 11 24  1  0
 11 26  4  0
 12 25  1  0
 13 28  1  0
 14 20  4  0
 14 23  4  0
 15 17  4  0
 15 21  4  0
 16 19  4  0
 16 23  4  0
 17 22  4  0
 18 26  4  0
 19 24  4  0
 20 24  4  0
 22 27  4  0
 28 29  4  0
M  END
$$$$

 Created by Python create_sdf_string function

 29 33  0  0  0  0  0  0  0  0999 V2000
   10.7215   -3.3326   17.6437 C   0  0  0  0  0  0  0  0  0  0  0  0
    9.9489   -3.4675   24.6487 N   0  0  0  0  0  0  0  0  0  0  0  0
   10.0172   -4.4740   17.4101 C   0  0  0  0  0  0  0  0  0  0  0  0
    6.9051   -7.9575   16.4222 C   0  0  0  0  0  0  0  0  0  0  0  0
    8.9969   -6.3552   17.9668 N   0  0  0  0  0  0  0  0  0  0  0  0
   10.6702   -3.9051   22.4070 C   0  0  0  0  0  0  0  0  0  0  0  0
   11.0625   -3.0028   18.8894 C   0  0  0  0  0  0  0  0  0  0  0  0
    5.6180   -7.9194   16.1754 O   0  0  0  0  0  0  0  0  0  0  0  0
    9.7259   -5.3080   18.4485 C   0  0  0  0  0  0  0  0  0  0  0  0
    9.4578   -5.0200   16.3036 N   0  0  0  0  0  0  0  0  0  0  0  0
    5.0287   -8.9365   16.8223 C   0  0  0  0  0  0  0  0  0  0  0  0
    8.7742   -6.1498   16.6764 C   0  0  0  0  0  0  0  0  0  0  0  0
   10.9418   -3.4032   21.2053 O   0  0  0  0  0  0  0  0  0  0  0  0
    1.4797   -8.6258   16.2950 C   0  0  0  0  0  0  0  0  0  0  0  0
    9.2861   -1.2743   25.3585 C   0  0  0  0  0  0  0  0  0  0  0  0
    1.8892  -10.3985   17.7511 N   0  0  0  0  0  0  0  0  0  0  0  0
    9.6210   -0.6952   24.0976 C   0  0  0  0  0  0  0  0  0  0  0  0
    7.0792   -9.0217   17.1429 C   0  0  0  0  0  0  0  0  0  0  0  0
    3.1713  -10.1816   17.6634 C   0  0  0  0  0  0  0  0  0  0  0  0
    2.7878   -8.3822   16.2137 C   0  0  0  0  0  0  0  0  0  0  0  0
    9.4601   -2.6590   25.6528 C   0  0  0  0  0  0  0  0  0  0  0  0
   10.1182   -1.5672   23.1165 C   0  0  0  0  0  0  0  0  0  0  0  0
    1.0552   -9.6360   17.0650 C   0  0  0  0  0  0  0  0  0  0  0  0
    3.6519   -9.1783   16.9039 C   0  0  0  0  0  0  0  0  0  0  0  0
    7.8675   -7.0096   15.9415 C   0  0  0  0  0  0  0  0  0  0  0  0
    5.9733   -9.6553   17.3832 N   0  0  0  0  0  0  0  0  0  0  0  0
   10.2411   -2.9363   23.4301 C   0  0  0  0  0  0  0  0  0  0  0  0
   10.7288   -3.8197   19.9525 C   0  0  0  0  0  0  0  0  0  0  0  0
   10.1189   -5.0054   19.6987 C   0  0  0  0  0  0  0  0  0  0  0  0
  1  3  4  0
  1  7  4  0
  2 21  4  0
  2 27  4  0
  3  9  4  0
  3 10  4  0
  4  8  4  0
  4 18  4  0
  4 25  1  0
  5  9  4  0
  5 12  4  0
  6 13  1  0
  6 27  1  0
  7 28  4  0
  8 11  4  0
  9 29  4  0
 10 12  4  0
 11 24  1  0
 11 26  4  0
 12 25  1  0
 13 28  1  0
 14 20  4  0
 14 23  4  0
 15 17  4  0
 15 21  4  0
 16 19  4  0
 16 23  4  0
 17 22  4  0
 18 26  4  0
 19 24  4  0
 20 24  4  0
 22 27  4  0
 28 29  4  0
M  END
$$$$

 Created by Python create_sdf_string function

 29 33  0  0  0  0  0  0  0  0999 V2000
   10.7215   -3.3326   17.6437 C   0  0  0  0  0  0  0  0  0  0  0  0
    9.9489   -3.4675   24.6487 N   0  0  0  0  0  0  0  0  0  0  0  0
   10.0172   -4.4740   17.4101 C   0  0  0  0  0  0  0  0  0  0  0  0
    6.9051   -7.9575   16.4222 C   0  0  0  0  0  0  0  0  0  0  0  0
    8.9969   -6.3552   17.9668 N   0  0  0  0  0  0  0  0  0  0  0  0
   10.6702   -3.9051   22.4070 C   0  0  0  0  0  0  0  0  0  0  0  0
   11.0625   -3.0028   18.8894 C   0  0  0  0  0  0  0  0  0  0  0  0
    5.6180   -7.9194   16.1754 O   0  0  0  0  0  0  0  0  0  0  0  0
    9.7259   -5.3080   18.4485 C   0  0  0  0  0  0  0  0  0  0  0  0
    9.4578   -5.0200   16.3036 N   0  0  0  0  0  0  0  0  0  0  0  0
    5.0287   -8.9365   16.8223 C   0  0  0  0  0  0  0  0  0  0  0  0
    8.7742   -6.1498   16.6764 C   0  0  0  0  0  0  0  0  0  0  0  0
   10.9418   -3.4032   21.2053 O   0  0  0  0  0  0  0  0  0  0  0  0
    1.4797   -8.6258   16.2950 C   0  0  0  0  0  0  0  0  0  0  0  0
    9.2861   -1.2743   25.3585 C   0  0  0  0  0  0  0  0  0  0  0  0
    1.8892  -10.3985   17.7511 N   0  0  0  0  0  0  0  0  0  0  0  0
    9.6210   -0.6952   24.0976 C   0  0  0  0  0  0  0  0  0  0  0  0
    7.0792   -9.0217   17.1429 C   0  0  0  0  0  0  0  0  0  0  0  0
    3.1713  -10.1816   17.6634 C   0  0  0  0  0  0  0  0  0  0  0  0
    2.7878   -8.3822   16.2137 C   0  0  0  0  0  0  0  0  0  0  0  0
    9.4601   -2.6590   25.6528 C   0  0  0  0  0  0  0  0  0  0  0  0
   10.1182   -1.5672   23.1165 C   0  0  0  0  0  0  0  0  0  0  0  0
    1.0552   -9.6360   17.0650 C   0  0  0  0  0  0  0  0  0  0  0  0
    3.6519   -9.1783   16.9039 C   0  0  0  0  0  0  0  0  0  0  0  0
    7.8675   -7.0096   15.9415 C   0  0  0  0  0  0  0  0  0  0  0  0
    5.9733   -9.6553   17.3832 N   0  0  0  0  0  0  0  0  0  0  0  0
   10.2411   -2.9363   23.4301 C   0  0  0  0  0  0  0  0  0  0  0  0
   10.7288   -3.8197   19.9525 C   0  0  0  0  0  0  0  0  0  0  0  0
   10.1189   -5.0054   19.6987 C   0  0  0  0  0  0  0  0  0  0  0  0
  1  3  4  0
  1  7  4  0
  2 21  4  0
  2 27  4  0
  3  9  4  0
  3 10  4  0
  4  8  4  0
  4 18  4  0
  4 25  1  0
  5  9  4  0
  5 12  4  0
  6 13  1  0
  6 27  1  0
  7 28  4  0
  8 11  4  0
  9 29  4  0
 10 12  4  0
 11 24  1  0
 11 26  4  0
 12 25  1  0
 13 28  1  0
 14 20  4  0
 14 23  4  0
 15 17  4  0
 15 21  4  0
 16 19  4  0
 16 23  4  0
 17 22  4  0
 18 26  4  0
 19 24  4  0
 20 24  4  0
 22 27  4  0
 28 29  4  0
M  END
$$$$

 Created by Python create_sdf_string function

 29 33  0  0  0  0  0  0  0  0999 V2000
   10.7215   -3.3326   17.6437 C   0  0  0  0  0  0  0  0  0  0  0  0
    9.9489   -3.4675   24.6487 N   0  0  0  0  0  0  0  0  0  0  0  0
   10.0172   -4.4740   17.4101 C   0  0  0  0  0  0  0  0  0  0  0  0
    6.9051   -7.9575   16.4222 C   0  0  0  0  0  0  0  0  0  0  0  0
    8.9969   -6.3552   17.9668 N   0  0  0  0  0  0  0  0  0  0  0  0
   10.6702   -3.9051   22.4070 C   0  0  0  0  0  0  0  0  0  0  0  0
   11.0625   -3.0028   18.8894 C   0  0  0  0  0  0  0  0  0  0  0  0
    5.6180   -7.9194   16.1754 O   0  0  0  0  0  0  0  0  0  0  0  0
    9.7259   -5.3080   18.4485 C   0  0  0  0  0  0  0  0  0  0  0  0
    9.4578   -5.0200   16.3036 N   0  0  0  0  0  0  0  0  0  0  0  0
    5.0287   -8.9365   16.8223 C   0  0  0  0  0  0  0  0  0  0  0  0
    8.7742   -6.1498   16.6764 C   0  0  0  0  0  0  0  0  0  0  0  0
   10.9418   -3.4032   21.2053 O   0  0  0  0  0  0  0  0  0  0  0  0
    1.4797   -8.6258   16.2950 C   0  0  0  0  0  0  0  0  0  0  0  0
    9.2861   -1.2743   25.3585 C   0  0  0  0  0  0  0  0  0  0  0  0
    1.8892  -10.3985   17.7511 N   0  0  0  0  0  0  0  0  0  0  0  0
    9.6210   -0.6952   24.0976 C   0  0  0  0  0  0  0  0  0  0  0  0
    7.0792   -9.0217   17.1429 C   0  0  0  0  0  0  0  0  0  0  0  0
    3.1713  -10.1816   17.6634 C   0  0  0  0  0  0  0  0  0  0  0  0
    2.7878   -8.3822   16.2137 C   0  0  0  0  0  0  0  0  0  0  0  0
    9.4601   -2.6590   25.6528 C   0  0  0  0  0  0  0  0  0  0  0  0
   10.1182   -1.5672   23.1165 C   0  0  0  0  0  0  0  0  0  0  0  0
    1.0552   -9.6360   17.0650 C   0  0  0  0  0  0  0  0  0  0  0  0
    3.6519   -9.1783   16.9039 C   0  0  0  0  0  0  0  0  0  0  0  0
    7.8675   -7.0096   15.9415 C   0  0  0  0  0  0  0  0  0  0  0  0
    5.9733   -9.6553   17.3832 N   0  0  0  0  0  0  0  0  0  0  0  0
   10.2411   -2.9363   23.4301 C   0  0  0  0  0  0  0  0  0  0  0  0
   10.7288   -3.8197   19.9525 C   0  0  0  0  0  0  0  0  0  0  0  0
   10.1189   -5.0054   19.6987 C   0  0  0  0  0  0  0  0  0  0  0  0
  1  3  4  0
  1  7  4  0
  2 21  4  0
  2 27  4  0
  3  9  4  0
  3 10  4  0
  4  8  4  0
  4 18  4  0
  4 25  1  0
  5  9  4  0
  5 12  4  0
  6 13  1  0
  6 27  1  0
  7 28  4  0
  8 11  4  0
  9 29  4  0
 10 12  4  0
 11 24  1  0
 11 26  4  0
 12 25  1  0
 13 28  1  0
 14 20  4  0
 14 23  4  0
 15 17  4  0
 15 21  4  0
 16 19  4  0
 16 23  4  0
 17 22  4  0
 18 26  4  0
 19 24  4  0
 20 24  4  0
 22 27  4  0
 28 29  4  0
M  END
$$$$

 Created by Python create_sdf_string function

 29 33  0  0  0  0  0  0  0  0999 V2000
   10.7215   -3.3326   17.6437 C   0  0  0  0  0  0  0  0  0  0  0  0
    9.9489   -3.4675   24.6487 N   0  0  0  0  0  0  0  0  0  0  0  0
   10.0172   -4.4740   17.4101 C   0  0  0  0  0  0  0  0  0  0  0  0
    6.9051   -7.9575   16.4222 C   0  0  0  0  0  0  0  0  0  0  0  0
    8.9969   -6.3552   17.9668 N   0  0  0  0  0  0  0  0  0  0  0  0
   10.6702   -3.9051   22.4070 C   0  0  0  0  0  0  0  0  0  0  0  0
   11.0625   -3.0028   18.8894 C   0  0  0  0  0  0  0  0  0  0  0  0
    5.6180   -7.9194   16.1754 O   0  0  0  0  0  0  0  0  0  0  0  0
    9.7259   -5.3080   18.4485 C   0  0  0  0  0  0  0  0  0  0  0  0
    9.4578   -5.0200   16.3036 N   0  0  0  0  0  0  0  0  0  0  0  0
    5.0287   -8.9365   16.8223 C   0  0  0  0  0  0  0  0  0  0  0  0
    8.7742   -6.1498   16.6764 C   0  0  0  0  0  0  0  0  0  0  0  0
   10.9418   -3.4032   21.2053 O   0  0  0  0  0  0  0  0  0  0  0  0
    1.4797   -8.6258   16.2950 C   0  0  0  0  0  0  0  0  0  0  0  0
    9.2861   -1.2743   25.3585 C   0  0  0  0  0  0  0  0  0  0  0  0
    1.8892  -10.3985   17.7511 N   0  0  0  0  0  0  0  0  0  0  0  0
    9.6210   -0.6952   24.0976 C   0  0  0  0  0  0  0  0  0  0  0  0
    7.0792   -9.0217   17.1429 C   0  0  0  0  0  0  0  0  0  0  0  0
    3.1713  -10.1816   17.6634 C   0  0  0  0  0  0  0  0  0  0  0  0
    2.7878   -8.3822   16.2137 C   0  0  0  0  0  0  0  0  0  0  0  0
    9.4601   -2.6590   25.6528 C   0  0  0  0  0  0  0  0  0  0  0  0
   10.1182   -1.5672   23.1165 C   0  0  0  0  0  0  0  0  0  0  0  0
    1.0552   -9.6360   17.0650 C   0  0  0  0  0  0  0  0  0  0  0  0
    3.6519   -9.1783   16.9039 C   0  0  0  0  0  0  0  0  0  0  0  0
    7.8675   -7.0096   15.9415 C   0  0  0  0  0  0  0  0  0  0  0  0
    5.9733   -9.6553   17.3832 N   0  0  0  0  0  0  0  0  0  0  0  0
   10.2411   -2.9363   23.4301 C   0  0  0  0  0  0  0  0  0  0  0  0
   10.7288   -3.8197   19.9525 C   0  0  0  0  0  0  0  0  0  0  0  0
   10.1189   -5.0054   19.6987 C   0  0  0  0  0  0  0  0  0  0  0  0
  1  3  4  0
  1  7  4  0
  2 21  4  0
  2 27  4  0
  3  9  4  0
  3 10  4  0
  4  8  4  0
  4 18  4  0
  4 25  1  0
  5  9  4  0
  5 12  4  0
  6 13  1  0
  6 27  1  0
  7 28  4  0
  8 11  4  0
  9 29  4  0
 10 12  4  0
 11 24  1  0
 11 26  4  0
 12 25  1  0
 13 28  1  0
 14 20  4  0
 14 23  4  0
 15 17  4  0
 15 21  4  0
 16 19  4  0
 16 23  4  0
 17 22  4  0
 18 26  4  0
 19 24  4  0
 20 24  4  0
 22 27  4  0
 28 29  4  0
M  END
$$$$

 Created by Python create_sdf_string function

 29 33  0  0  0  0  0  0  0  0999 V2000
   10.7215   -3.3326   17.6437 C   0  0  0  0  0  0  0  0  0  0  0  0
    9.9489   -3.4675   24.6487 N   0  0  0  0  0  0  0  0  0  0  0  0
   10.0172   -4.4740   17.4101 C   0  0  0  0  0  0  0  0  0  0  0  0
    6.9051   -7.9575   16.4222 C   0  0  0  0  0  0  0  0  0  0  0  0
    8.9969   -6.3552   17.9668 N   0  0  0  0  0  0  0  0  0  0  0  0
   10.6702   -3.9051   22.4070 C   0  0  0  0  0  0  0  0  0  0  0  0
   11.0625   -3.0028   18.8894 C   0  0  0  0  0  0  0  0  0  0  0  0
    5.6180   -7.9194   16.1754 O   0  0  0  0  0  0  0  0  0  0  0  0
    9.7259   -5.3080   18.4485 C   0  0  0  0  0  0  0  0  0  0  0  0
    9.4578   -5.0200   16.3036 N   0  0  0  0  0  0  0  0  0  0  0  0
    5.0287   -8.9365   16.8223 C   0  0  0  0  0  0  0  0  0  0  0  0
    8.7742   -6.1498   16.6764 C   0  0  0  0  0  0  0  0  0  0  0  0
   10.9418   -3.4032   21.2053 O   0  0  0  0  0  0  0  0  0  0  0  0
    1.4797   -8.6258   16.2950 C   0  0  0  0  0  0  0  0  0  0  0  0
    9.2861   -1.2743   25.3585 C   0  0  0  0  0  0  0  0  0  0  0  0
    1.8892  -10.3985   17.7511 N   0  0  0  0  0  0  0  0  0  0  0  0
    9.6210   -0.6952   24.0976 C   0  0  0  0  0  0  0  0  0  0  0  0
    7.0792   -9.0217   17.1429 C   0  0  0  0  0  0  0  0  0  0  0  0
    3.1713  -10.1816   17.6634 C   0  0  0  0  0  0  0  0  0  0  0  0
    2.7878   -8.3822   16.2137 C   0  0  0  0  0  0  0  0  0  0  0  0
    9.4601   -2.6590   25.6528 C   0  0  0  0  0  0  0  0  0  0  0  0
   10.1182   -1.5672   23.1165 C   0  0  0  0  0  0  0  0  0  0  0  0
    1.0552   -9.6360   17.0650 C   0  0  0  0  0  0  0  0  0  0  0  0
    3.6519   -9.1783   16.9039 C   0  0  0  0  0  0  0  0  0  0  0  0
    7.8675   -7.0096   15.9415 C   0  0  0  0  0  0  0  0  0  0  0  0
    5.9733   -9.6553   17.3832 N   0  0  0  0  0  0  0  0  0  0  0  0
   10.2411   -2.9363   23.4301 C   0  0  0  0  0  0  0  0  0  0  0  0
   10.7288   -3.8197   19.9525 C   0  0  0  0  0  0  0  0  0  0  0  0
   10.1189   -5.0054   19.6987 C   0  0  0  0  0  0  0  0  0  0  0  0
  1  3  4  0
  1  7  4  0
  2 21  4  0
  2 27  4  0
  3  9  4  0
  3 10  4  0
  4  8  4  0
  4 18  4  0
  4 25  1  0
  5  9  4  0
  5 12  4  0
  6 13  1  0
  6 27  1  0
  7 28  4  0
  8 11  4  0
  9 29  4  0
 10 12  4  0
 11 24  1  0
 11 26  4  0
 12 25  1  0
 13 28  1  0
 14 20  4  0
 14 23  4  0
 15 17  4  0
 15 21  4  0
 16 19  4  0
 16 23  4  0
 17 22  4  0
 18 26  4  0
 19 24  4  0
 20 24  4  0
 22 27  4  0
 28 29  4  0
M  END
$$$$

 Created by Python create_sdf_string function

 29 33  0  0  0  0  0  0  0  0999 V2000
   10.7215   -3.3326   17.6437 C   0  0  0  0  0  0  0  0  0  0  0  0
    9.9489   -3.4675   24.6487 N   0  0  0  0  0  0  0  0  0  0  0  0
   10.0172   -4.4740   17.4101 C   0  0  0  0  0  0  0  0  0  0  0  0
    6.9051   -7.9575   16.4222 C   0  0  0  0  0  0  0  0  0  0  0  0
    8.9969   -6.3552   17.9668 N   0  0  0  0  0  0  0  0  0  0  0  0
   10.6702   -3.9051   22.4070 C   0  0  0  0  0  0  0  0  0  0  0  0
   11.0625   -3.0028   18.8894 C   0  0  0  0  0  0  0  0  0  0  0  0
    5.6180   -7.9194   16.1754 O   0  0  0  0  0  0  0  0  0  0  0  0
    9.7259   -5.3080   18.4485 C   0  0  0  0  0  0  0  0  0  0  0  0
    9.4578   -5.0200   16.3036 N   0  0  0  0  0  0  0  0  0  0  0  0
    5.0287   -8.9365   16.8223 C   0  0  0  0  0  0  0  0  0  0  0  0
    8.7742   -6.1498   16.6764 C   0  0  0  0  0  0  0  0  0  0  0  0
   10.9418   -3.4032   21.2053 O   0  0  0  0  0  0  0  0  0  0  0  0
    1.4797   -8.6258   16.2950 C   0  0  0  0  0  0  0  0  0  0  0  0
    9.2861   -1.2743   25.3585 C   0  0  0  0  0  0  0  0  0  0  0  0
    1.8892  -10.3985   17.7511 N   0  0  0  0  0  0  0  0  0  0  0  0
    9.6210   -0.6952   24.0976 C   0  0  0  0  0  0  0  0  0  0  0  0
    7.0792   -9.0217   17.1429 C   0  0  0  0  0  0  0  0  0  0  0  0
    3.1713  -10.1816   17.6634 C   0  0  0  0  0  0  0  0  0  0  0  0
    2.7878   -8.3822   16.2137 C   0  0  0  0  0  0  0  0  0  0  0  0
    9.4601   -2.6590   25.6528 C   0  0  0  0  0  0  0  0  0  0  0  0
   10.1182   -1.5672   23.1165 C   0  0  0  0  0  0  0  0  0  0  0  0
    1.0552   -9.6360   17.0650 C   0  0  0  0  0  0  0  0  0  0  0  0
    3.6519   -9.1783   16.9039 C   0  0  0  0  0  0  0  0  0  0  0  0
    7.8675   -7.0096   15.9415 C   0  0  0  0  0  0  0  0  0  0  0  0
    5.9733   -9.6553   17.3832 N   0  0  0  0  0  0  0  0  0  0  0  0
   10.2411   -2.9363   23.4301 C   0  0  0  0  0  0  0  0  0  0  0  0
   10.7288   -3.8197   19.9525 C   0  0  0  0  0  0  0  0  0  0  0  0
   10.1189   -5.0054   19.6987 C   0  0  0  0  0  0  0  0  0  0  0  0
  1  3  4  0
  1  7  4  0
  2 21  4  0
  2 27  4  0
  3  9  4  0
  3 10  4  0
  4  8  4  0
  4 18  4  0
  4 25  1  0
  5  9  4  0
  5 12  4  0
  6 13  1  0
  6 27  1  0
  7 28  4  0
  8 11  4  0
  9 29  4  0
 10 12  4  0
 11 24  1  0
 11 26  4  0
 12 25  1  0
 13 28  1  0
 14 20  4  0
 14 23  4  0
 15 17  4  0
 15 21  4  0
 16 19  4  0
 16 23  4  0
 17 22  4  0
 18 26  4  0
 19 24  4  0
 20 24  4  0
 22 27  4  0
 28 29  4  0
M  END
$$$$

 Created by Python create_sdf_string function

 29 33  0  0  0  0  0  0  0  0999 V2000
   10.7215   -3.3326   17.6437 C   0  0  0  0  0  0  0  0  0  0  0  0
    9.9489   -3.4675   24.6487 N   0  0  0  0  0  0  0  0  0  0  0  0
   10.0172   -4.4740   17.4101 C   0  0  0  0  0  0  0  0  0  0  0  0
    6.9051   -7.9575   16.4222 C   0  0  0  0  0  0  0  0  0  0  0  0
    8.9969   -6.3552   17.9668 N   0  0  0  0  0  0  0  0  0  0  0  0
   10.6702   -3.9051   22.4070 C   0  0  0  0  0  0  0  0  0  0  0  0
   11.0625   -3.0028   18.8894 C   0  0  0  0  0  0  0  0  0  0  0  0
    5.6180   -7.9194   16.1754 O   0  0  0  0  0  0  0  0  0  0  0  0
    9.7259   -5.3080   18.4485 C   0  0  0  0  0  0  0  0  0  0  0  0
    9.4578   -5.0200   16.3036 N   0  0  0  0  0  0  0  0  0  0  0  0
    5.0287   -8.9365   16.8223 C   0  0  0  0  0  0  0  0  0  0  0  0
    8.7742   -6.1498   16.6764 C   0  0  0  0  0  0  0  0  0  0  0  0
   10.9418   -3.4032   21.2053 O   0  0  0  0  0  0  0  0  0  0  0  0
    1.4797   -8.6258   16.2950 C   0  0  0  0  0  0  0  0  0  0  0  0
    9.2861   -1.2743   25.3585 C   0  0  0  0  0  0  0  0  0  0  0  0
    1.8892  -10.3985   17.7511 N   0  0  0  0  0  0  0  0  0  0  0  0
    9.6210   -0.6952   24.0976 C   0  0  0  0  0  0  0  0  0  0  0  0
    7.0792   -9.0217   17.1429 C   0  0  0  0  0  0  0  0  0  0  0  0
    3.1713  -10.1816   17.6634 C   0  0  0  0  0  0  0  0  0  0  0  0
    2.7878   -8.3822   16.2137 C   0  0  0  0  0  0  0  0  0  0  0  0
    9.4601   -2.6590   25.6528 C   0  0  0  0  0  0  0  0  0  0  0  0
   10.1182   -1.5672   23.1165 C   0  0  0  0  0  0  0  0  0  0  0  0
    1.0552   -9.6360   17.0650 C   0  0  0  0  0  0  0  0  0  0  0  0
    3.6519   -9.1783   16.9039 C   0  0  0  0  0  0  0  0  0  0  0  0
    7.8675   -7.0096   15.9415 C   0  0  0  0  0  0  0  0  0  0  0  0
    5.9733   -9.6553   17.3832 N   0  0  0  0  0  0  0  0  0  0  0  0
   10.2411   -2.9363   23.4301 C   0  0  0  0  0  0  0  0  0  0  0  0
   10.7288   -3.8197   19.9525 C   0  0  0  0  0  0  0  0  0  0  0  0
   10.1189   -5.0054   19.6987 C   0  0  0  0  0  0  0  0  0  0  0  0
  1  3  4  0
  1  7  4  0
  2 21  4  0
  2 27  4  0
  3  9  4  0
  3 10  4  0
  4  8  4  0
  4 18  4  0
  4 25  1  0
  5  9  4  0
  5 12  4  0
  6 13  1  0
  6 27  1  0
  7 28  4  0
  8 11  4  0
  9 29  4  0
 10 12  4  0
 11 24  1  0
 11 26  4  0
 12 25  1  0
 13 28  1  0
 14 20  4  0
 14 23  4  0
 15 17  4  0
 15 21  4  0
 16 19  4  0
 16 23  4  0
 17 22  4  0
 18 26  4  0
 19 24  4  0
 20 24  4  0
 22 27  4  0
 28 29  4  0
M  END
$$$$

 Created by Python create_sdf_string function

 29 33  0  0  0  0  0  0  0  0999 V2000
   10.7215   -3.3326   17.6437 C   0  0  0  0  0  0  0  0  0  0  0  0
    9.9489   -3.4675   24.6487 N   0  0  0  0  0  0  0  0  0  0  0  0
   10.0172   -4.4740   17.4101 C   0  0  0  0  0  0  0  0  0  0  0  0
    6.9051   -7.9575   16.4222 C   0  0  0  0  0  0  0  0  0  0  0  0
    8.9969   -6.3552   17.9668 N   0  0  0  0  0  0  0  0  0  0  0  0
   10.6702   -3.9051   22.4070 C   0  0  0  0  0  0  0  0  0  0  0  0
   11.0625   -3.0028   18.8894 C   0  0  0  0  0  0  0  0  0  0  0  0
    5.6180   -7.9194   16.1754 O   0  0  0  0  0  0  0  0  0  0  0  0
    9.7259   -5.3080   18.4485 C   0  0  0  0  0  0  0  0  0  0  0  0
    9.4578   -5.0200   16.3036 N   0  0  0  0  0  0  0  0  0  0  0  0
    5.0287   -8.9365   16.8223 C   0  0  0  0  0  0  0  0  0  0  0  0
    8.7742   -6.1498   16.6764 C   0  0  0  0  0  0  0  0  0  0  0  0
   10.9418   -3.4032   21.2053 O   0  0  0  0  0  0  0  0  0  0  0  0
    1.4797   -8.6258   16.2950 C   0  0  0  0  0  0  0  0  0  0  0  0
    9.2861   -1.2743   25.3585 C   0  0  0  0  0  0  0  0  0  0  0  0
    1.8892  -10.3985   17.7511 N   0  0  0  0  0  0  0  0  0  0  0  0
    9.6210   -0.6952   24.0976 C   0  0  0  0  0  0  0  0  0  0  0  0
    7.0792   -9.0217   17.1429 C   0  0  0  0  0  0  0  0  0  0  0  0
    3.1713  -10.1816   17.6634 C   0  0  0  0  0  0  0  0  0  0  0  0
    2.7878   -8.3822   16.2137 C   0  0  0  0  0  0  0  0  0  0  0  0
    9.4601   -2.6590   25.6528 C   0  0  0  0  0  0  0  0  0  0  0  0
   10.1182   -1.5672   23.1165 C   0  0  0  0  0  0  0  0  0  0  0  0
    1.0552   -9.6360   17.0650 C   0  0  0  0  0  0  0  0  0  0  0  0
    3.6519   -9.1783   16.9039 C   0  0  0  0  0  0  0  0  0  0  0  0
    7.8675   -7.0096   15.9415 C   0  0  0  0  0  0  0  0  0  0  0  0
    5.9733   -9.6553   17.3832 N   0  0  0  0  0  0  0  0  0  0  0  0
   10.2411   -2.9363   23.4301 C   0  0  0  0  0  0  0  0  0  0  0  0
   10.7288   -3.8197   19.9525 C   0  0  0  0  0  0  0  0  0  0  0  0
   10.1189   -5.0054   19.6987 C   0  0  0  0  0  0  0  0  0  0  0  0
  1  3  4  0
  1  7  4  0
  2 21  4  0
  2 27  4  0
  3  9  4  0
  3 10  4  0
  4  8  4  0
  4 18  4  0
  4 25  1  0
  5  9  4  0
  5 12  4  0
  6 13  1  0
  6 27  1  0
  7 28  4  0
  8 11  4  0
  9 29  4  0
 10 12  4  0
 11 24  1  0
 11 26  4  0
 12 25  1  0
 13 28  1  0
 14 20  4  0
 14 23  4  0
 15 17  4  0
 15 21  4  0
 16 19  4  0
 16 23  4  0
 17 22  4  0
 18 26  4  0
 19 24  4  0
 20 24  4  0
 22 27  4  0
 28 29  4  0
M  END
$$$$

 Created by Python create_sdf_string function

 29 33  0  0  0  0  0  0  0  0999 V2000
   10.7215   -3.3326   17.6437 C   0  0  0  0  0  0  0  0  0  0  0  0
    9.9489   -3.4675   24.6487 N   0  0  0  0  0  0  0  0  0  0  0  0
   10.0172   -4.4740   17.4101 C   0  0  0  0  0  0  0  0  0  0  0  0
    6.9051   -7.9575   16.4222 C   0  0  0  0  0  0  0  0  0  0  0  0
    8.9969   -6.3552   17.9668 N   0  0  0  0  0  0  0  0  0  0  0  0
   10.6702   -3.9051   22.4070 C   0  0  0  0  0  0  0  0  0  0  0  0
   11.0625   -3.0028   18.8894 C   0  0  0  0  0  0  0  0  0  0  0  0
    5.6180   -7.9194   16.1754 O   0  0  0  0  0  0  0  0  0  0  0  0
    9.7259   -5.3080   18.4485 C   0  0  0  0  0  0  0  0  0  0  0  0
    9.4578   -5.0200   16.3036 N   0  0  0  0  0  0  0  0  0  0  0  0
    5.0287   -8.9365   16.8223 C   0  0  0  0  0  0  0  0  0  0  0  0
    8.7742   -6.1498   16.6764 C   0  0  0  0  0  0  0  0  0  0  0  0
   10.9418   -3.4032   21.2053 O   0  0  0  0  0  0  0  0  0  0  0  0
    1.4797   -8.6258   16.2950 C   0  0  0  0  0  0  0  0  0  0  0  0
    9.2861   -1.2743   25.3585 C   0  0  0  0  0  0  0  0  0  0  0  0
    1.8892  -10.3985   17.7511 N   0  0  0  0  0  0  0  0  0  0  0  0
    9.6210   -0.6952   24.0976 C   0  0  0  0  0  0  0  0  0  0  0  0
    7.0792   -9.0217   17.1429 C   0  0  0  0  0  0  0  0  0  0  0  0
    3.1713  -10.1816   17.6634 C   0  0  0  0  0  0  0  0  0  0  0  0
    2.7878   -8.3822   16.2137 C   0  0  0  0  0  0  0  0  0  0  0  0
    9.4601   -2.6590   25.6528 C   0  0  0  0  0  0  0  0  0  0  0  0
   10.1182   -1.5672   23.1165 C   0  0  0  0  0  0  0  0  0  0  0  0
    1.0552   -9.6360   17.0650 C   0  0  0  0  0  0  0  0  0  0  0  0
    3.6519   -9.1783   16.9039 C   0  0  0  0  0  0  0  0  0  0  0  0
    7.8675   -7.0096   15.9415 C   0  0  0  0  0  0  0  0  0  0  0  0
    5.9733   -9.6553   17.3832 N   0  0  0  0  0  0  0  0  0  0  0  0
   10.2411   -2.9363   23.4301 C   0  0  0  0  0  0  0  0  0  0  0  0
   10.7288   -3.8197   19.9525 C   0  0  0  0  0  0  0  0  0  0  0  0
   10.1189   -5.0054   19.6987 C   0  0  0  0  0  0  0  0  0  0  0  0
  1  3  4  0
  1  7  4  0
  2 21  4  0
  2 27  4  0
  3  9  4  0
  3 10  4  0
  4  8  4  0
  4 18  4  0
  4 25  1  0
  5  9  4  0
  5 12  4  0
  6 13  1  0
  6 27  1  0
  7 28  4  0
  8 11  4  0
  9 29  4  0
 10 12  4  0
 11 24  1  0
 11 26  4  0
 12 25  1  0
 13 28  1  0
 14 20  4  0
 14 23  4  0
 15 17  4  0
 15 21  4  0
 16 19  4  0
 16 23  4  0
 17 22  4  0
 18 26  4  0
 19 24  4  0
 20 24  4  0
 22 27  4  0
 28 29  4  0
M  END
$$$$

 Created by Python create_sdf_string function

 29 33  0  0  0  0  0  0  0  0999 V2000
   10.7215   -3.3326   17.6437 C   0  0  0  0  0  0  0  0  0  0  0  0
    9.9489   -3.4675   24.6487 N   0  0  0  0  0  0  0  0  0  0  0  0
   10.0172   -4.4740   17.4101 C   0  0  0  0  0  0  0  0  0  0  0  0
    6.9051   -7.9575   16.4222 C   0  0  0  0  0  0  0  0  0  0  0  0
    8.9969   -6.3552   17.9668 N   0  0  0  0  0  0  0  0  0  0  0  0
   10.6702   -3.9051   22.4070 C   0  0  0  0  0  0  0  0  0  0  0  0
   11.0625   -3.0028   18.8894 C   0  0  0  0  0  0  0  0  0  0  0  0
    5.6180   -7.9194   16.1754 O   0  0  0  0  0  0  0  0  0  0  0  0
    9.7259   -5.3080   18.4485 C   0  0  0  0  0  0  0  0  0  0  0  0
    9.4578   -5.0200   16.3036 N   0  0  0  0  0  0  0  0  0  0  0  0
    5.0287   -8.9365   16.8223 C   0  0  0  0  0  0  0  0  0  0  0  0
    8.7742   -6.1498   16.6764 C   0  0  0  0  0  0  0  0  0  0  0  0
   10.9418   -3.4032   21.2053 O   0  0  0  0  0  0  0  0  0  0  0  0
    1.4797   -8.6258   16.2950 C   0  0  0  0  0  0  0  0  0  0  0  0
    9.2861   -1.2743   25.3585 C   0  0  0  0  0  0  0  0  0  0  0  0
    1.8892  -10.3985   17.7511 N   0  0  0  0  0  0  0  0  0  0  0  0
    9.6210   -0.6952   24.0976 C   0  0  0  0  0  0  0  0  0  0  0  0
    7.0792   -9.0217   17.1429 C   0  0  0  0  0  0  0  0  0  0  0  0
    3.1713  -10.1816   17.6634 C   0  0  0  0  0  0  0  0  0  0  0  0
    2.7878   -8.3822   16.2137 C   0  0  0  0  0  0  0  0  0  0  0  0
    9.4601   -2.6590   25.6528 C   0  0  0  0  0  0  0  0  0  0  0  0
   10.1182   -1.5672   23.1165 C   0  0  0  0  0  0  0  0  0  0  0  0
    1.0552   -9.6360   17.0650 C   0  0  0  0  0  0  0  0  0  0  0  0
    3.6519   -9.1783   16.9039 C   0  0  0  0  0  0  0  0  0  0  0  0
    7.8675   -7.0096   15.9415 C   0  0  0  0  0  0  0  0  0  0  0  0
    5.9733   -9.6553   17.3832 N   0  0  0  0  0  0  0  0  0  0  0  0
   10.2411   -2.9363   23.4301 C   0  0  0  0  0  0  0  0  0  0  0  0
   10.7288   -3.8197   19.9525 C   0  0  0  0  0  0  0  0  0  0  0  0
   10.1189   -5.0054   19.6987 C   0  0  0  0  0  0  0  0  0  0  0  0
  1  3  4  0
  1  7  4  0
  2 21  4  0
  2 27  4  0
  3  9  4  0
  3 10  4  0
  4  8  4  0
  4 18  4  0
  4 25  1  0
  5  9  4  0
  5 12  4  0
  6 13  1  0
  6 27  1  0
  7 28  4  0
  8 11  4  0
  9 29  4  0
 10 12  4  0
 11 24  1  0
 11 26  4  0
 12 25  1  0
 13 28  1  0
 14 20  4  0
 14 23  4  0
 15 17  4  0
 15 21  4  0
 16 19  4  0
 16 23  4  0
 17 22  4  0
 18 26  4  0
 19 24  4  0
 20 24  4  0
 22 27  4  0
 28 29  4  0
M  END
$$$$

 Created by Python create_sdf_string function

 29 33  0  0  0  0  0  0  0  0999 V2000
   10.7215   -3.3326   17.6437 C   0  0  0  0  0  0  0  0  0  0  0  0
    9.9489   -3.4675   24.6487 N   0  0  0  0  0  0  0  0  0  0  0  0
   10.0172   -4.4740   17.4101 C   0  0  0  0  0  0  0  0  0  0  0  0
    6.9051   -7.9575   16.4222 C   0  0  0  0  0  0  0  0  0  0  0  0
    8.9969   -6.3552   17.9668 N   0  0  0  0  0  0  0  0  0  0  0  0
   10.6702   -3.9051   22.4070 C   0  0  0  0  0  0  0  0  0  0  0  0
   11.0625   -3.0028   18.8894 C   0  0  0  0  0  0  0  0  0  0  0  0
    5.6180   -7.9194   16.1754 O   0  0  0  0  0  0  0  0  0  0  0  0
    9.7259   -5.3080   18.4485 C   0  0  0  0  0  0  0  0  0  0  0  0
    9.4578   -5.0200   16.3036 N   0  0  0  0  0  0  0  0  0  0  0  0
    5.0287   -8.9365   16.8223 C   0  0  0  0  0  0  0  0  0  0  0  0
    8.7742   -6.1498   16.6764 C   0  0  0  0  0  0  0  0  0  0  0  0
   10.9418   -3.4032   21.2053 O   0  0  0  0  0  0  0  0  0  0  0  0
    1.4797   -8.6258   16.2950 C   0  0  0  0  0  0  0  0  0  0  0  0
    9.2861   -1.2743   25.3585 C   0  0  0  0  0  0  0  0  0  0  0  0
    1.8892  -10.3985   17.7511 N   0  0  0  0  0  0  0  0  0  0  0  0
    9.6210   -0.6952   24.0976 C   0  0  0  0  0  0  0  0  0  0  0  0
    7.0792   -9.0217   17.1429 C   0  0  0  0  0  0  0  0  0  0  0  0
    3.1713  -10.1816   17.6634 C   0  0  0  0  0  0  0  0  0  0  0  0
    2.7878   -8.3822   16.2137 C   0  0  0  0  0  0  0  0  0  0  0  0
    9.4601   -2.6590   25.6528 C   0  0  0  0  0  0  0  0  0  0  0  0
   10.1182   -1.5672   23.1165 C   0  0  0  0  0  0  0  0  0  0  0  0
    1.0552   -9.6360   17.0650 C   0  0  0  0  0  0  0  0  0  0  0  0
    3.6519   -9.1783   16.9039 C   0  0  0  0  0  0  0  0  0  0  0  0
    7.8675   -7.0096   15.9415 C   0  0  0  0  0  0  0  0  0  0  0  0
    5.9733   -9.6553   17.3832 N   0  0  0  0  0  0  0  0  0  0  0  0
   10.2411   -2.9363   23.4301 C   0  0  0  0  0  0  0  0  0  0  0  0
   10.7288   -3.8197   19.9525 C   0  0  0  0  0  0  0  0  0  0  0  0
   10.1189   -5.0054   19.6987 C   0  0  0  0  0  0  0  0  0  0  0  0
  1  3  4  0
  1  7  4  0
  2 21  4  0
  2 27  4  0
  3  9  4  0
  3 10  4  0
  4  8  4  0
  4 18  4  0
  4 25  1  0
  5  9  4  0
  5 12  4  0
  6 13  1  0
  6 27  1  0
  7 28  4  0
  8 11  4  0
  9 29  4  0
 10 12  4  0
 11 24  1  0
 11 26  4  0
 12 25  1  0
 13 28  1  0
 14 20  4  0
 14 23  4  0
 15 17  4  0
 15 21  4  0
 16 19  4  0
 16 23  4  0
 17 22  4  0
 18 26  4  0
 19 24  4  0
 20 24  4  0
 22 27  4  0
 28 29  4  0
M  END
$$$$

 Created by Python create_sdf_string function

 29 33  0  0  0  0  0  0  0  0999 V2000
   10.7215   -3.3326   17.6437 C   0  0  0  0  0  0  0  0  0  0  0  0
    9.9489   -3.4675   24.6487 N   0  0  0  0  0  0  0  0  0  0  0  0
   10.0172   -4.4740   17.4101 C   0  0  0  0  0  0  0  0  0  0  0  0
    6.9051   -7.9575   16.4222 C   0  0  0  0  0  0  0  0  0  0  0  0
    8.9969   -6.3552   17.9668 N   0  0  0  0  0  0  0  0  0  0  0  0
   10.6702   -3.9051   22.4070 C   0  0  0  0  0  0  0  0  0  0  0  0
   11.0625   -3.0028   18.8894 C   0  0  0  0  0  0  0  0  0  0  0  0
    5.6180   -7.9194   16.1754 O   0  0  0  0  0  0  0  0  0  0  0  0
    9.7259   -5.3080   18.4485 C   0  0  0  0  0  0  0  0  0  0  0  0
    9.4578   -5.0200   16.3036 N   0  0  0  0  0  0  0  0  0  0  0  0
    5.0287   -8.9365   16.8223 C   0  0  0  0  0  0  0  0  0  0  0  0
    8.7742   -6.1498   16.6764 C   0  0  0  0  0  0  0  0  0  0  0  0
   10.9418   -3.4032   21.2053 O   0  0  0  0  0  0  0  0  0  0  0  0
    1.4797   -8.6258   16.2950 C   0  0  0  0  0  0  0  0  0  0  0  0
    9.2861   -1.2743   25.3585 C   0  0  0  0  0  0  0  0  0  0  0  0
    1.8892  -10.3985   17.7511 N   0  0  0  0  0  0  0  0  0  0  0  0
    9.6210   -0.6952   24.0976 C   0  0  0  0  0  0  0  0  0  0  0  0
    7.0792   -9.0217   17.1429 C   0  0  0  0  0  0  0  0  0  0  0  0
    3.1713  -10.1816   17.6634 C   0  0  0  0  0  0  0  0  0  0  0  0
    2.7878   -8.3822   16.2137 C   0  0  0  0  0  0  0  0  0  0  0  0
    9.4601   -2.6590   25.6528 C   0  0  0  0  0  0  0  0  0  0  0  0
   10.1182   -1.5672   23.1165 C   0  0  0  0  0  0  0  0  0  0  0  0
    1.0552   -9.6360   17.0650 C   0  0  0  0  0  0  0  0  0  0  0  0
    3.6519   -9.1783   16.9039 C   0  0  0  0  0  0  0  0  0  0  0  0
    7.8675   -7.0096   15.9415 C   0  0  0  0  0  0  0  0  0  0  0  0
    5.9733   -9.6553   17.3832 N   0  0  0  0  0  0  0  0  0  0  0  0
   10.2411   -2.9363   23.4301 C   0  0  0  0  0  0  0  0  0  0  0  0
   10.7288   -3.8197   19.9525 C   0  0  0  0  0  0  0  0  0  0  0  0
   10.1189   -5.0054   19.6987 C   0  0  0  0  0  0  0  0  0  0  0  0
  1  3  4  0
  1  7  4  0
  2 21  4  0
  2 27  4  0
  3  9  4  0
  3 10  4  0
  4  8  4  0
  4 18  4  0
  4 25  1  0
  5  9  4  0
  5 12  4  0
  6 13  1  0
  6 27  1  0
  7 28  4  0
  8 11  4  0
  9 29  4  0
 10 12  4  0
 11 24  1  0
 11 26  4  0
 12 25  1  0
 13 28  1  0
 14 20  4  0
 14 23  4  0
 15 17  4  0
 15 21  4  0
 16 19  4  0
 16 23  4  0
 17 22  4  0
 18 26  4  0
 19 24  4  0
 20 24  4  0
 22 27  4  0
 28 29  4  0
M  END
$$$$

 Created by Python create_sdf_string function

 29 33  0  0  0  0  0  0  0  0999 V2000
   10.7215   -3.3326   17.6437 C   0  0  0  0  0  0  0  0  0  0  0  0
    9.9489   -3.4675   24.6487 N   0  0  0  0  0  0  0  0  0  0  0  0
   10.0172   -4.4740   17.4101 C   0  0  0  0  0  0  0  0  0  0  0  0
    6.9051   -7.9575   16.4222 C   0  0  0  0  0  0  0  0  0  0  0  0
    8.9969   -6.3552   17.9668 N   0  0  0  0  0  0  0  0  0  0  0  0
   10.6702   -3.9051   22.4070 C   0  0  0  0  0  0  0  0  0  0  0  0
   11.0625   -3.0028   18.8894 C   0  0  0  0  0  0  0  0  0  0  0  0
    5.6180   -7.9194   16.1754 O   0  0  0  0  0  0  0  0  0  0  0  0
    9.7259   -5.3080   18.4485 C   0  0  0  0  0  0  0  0  0  0  0  0
    9.4578   -5.0200   16.3036 N   0  0  0  0  0  0  0  0  0  0  0  0
    5.0287   -8.9365   16.8223 C   0  0  0  0  0  0  0  0  0  0  0  0
    8.7742   -6.1498   16.6764 C   0  0  0  0  0  0  0  0  0  0  0  0
   10.9418   -3.4032   21.2053 O   0  0  0  0  0  0  0  0  0  0  0  0
    1.4797   -8.6258   16.2950 C   0  0  0  0  0  0  0  0  0  0  0  0
    9.2861   -1.2743   25.3585 C   0  0  0  0  0  0  0  0  0  0  0  0
    1.8892  -10.3985   17.7511 N   0  0  0  0  0  0  0  0  0  0  0  0
    9.6210   -0.6952   24.0976 C   0  0  0  0  0  0  0  0  0  0  0  0
    7.0792   -9.0217   17.1429 C   0  0  0  0  0  0  0  0  0  0  0  0
    3.1713  -10.1816   17.6634 C   0  0  0  0  0  0  0  0  0  0  0  0
    2.7878   -8.3822   16.2137 C   0  0  0  0  0  0  0  0  0  0  0  0
    9.4601   -2.6590   25.6528 C   0  0  0  0  0  0  0  0  0  0  0  0
   10.1182   -1.5672   23.1165 C   0  0  0  0  0  0  0  0  0  0  0  0
    1.0552   -9.6360   17.0650 C   0  0  0  0  0  0  0  0  0  0  0  0
    3.6519   -9.1783   16.9039 C   0  0  0  0  0  0  0  0  0  0  0  0
    7.8675   -7.0096   15.9415 C   0  0  0  0  0  0  0  0  0  0  0  0
    5.9733   -9.6553   17.3832 N   0  0  0  0  0  0  0  0  0  0  0  0
   10.2411   -2.9363   23.4301 C   0  0  0  0  0  0  0  0  0  0  0  0
   10.7288   -3.8197   19.9525 C   0  0  0  0  0  0  0  0  0  0  0  0
   10.1189   -5.0054   19.6987 C   0  0  0  0  0  0  0  0  0  0  0  0
  1  3  4  0
  1  7  4  0
  2 21  4  0
  2 27  4  0
  3  9  4  0
  3 10  4  0
  4  8  4  0
  4 18  4  0
  4 25  1  0
  5  9  4  0
  5 12  4  0
  6 13  1  0
  6 27  1  0
  7 28  4  0
  8 11  4  0
  9 29  4  0
 10 12  4  0
 11 24  1  0
 11 26  4  0
 12 25  1  0
 13 28  1  0
 14 20  4  0
 14 23  4  0
 15 17  4  0
 15 21  4  0
 16 19  4  0
 16 23  4  0
 17 22  4  0
 18 26  4  0
 19 24  4  0
 20 24  4  0
 22 27  4  0
 28 29  4  0
M  END
$$$$

 Created by Python create_sdf_string function

 29 33  0  0  0  0  0  0  0  0999 V2000
   10.7215   -3.3326   17.6437 C   0  0  0  0  0  0  0  0  0  0  0  0
    9.9489   -3.4675   24.6487 N   0  0  0  0  0  0  0  0  0  0  0  0
   10.0172   -4.4740   17.4101 C   0  0  0  0  0  0  0  0  0  0  0  0
    6.9051   -7.9575   16.4222 C   0  0  0  0  0  0  0  0  0  0  0  0
    8.9969   -6.3552   17.9668 N   0  0  0  0  0  0  0  0  0  0  0  0
   10.6702   -3.9051   22.4070 C   0  0  0  0  0  0  0  0  0  0  0  0
   11.0625   -3.0028   18.8894 C   0  0  0  0  0  0  0  0  0  0  0  0
    5.6180   -7.9194   16.1754 O   0  0  0  0  0  0  0  0  0  0  0  0
    9.7259   -5.3080   18.4485 C   0  0  0  0  0  0  0  0  0  0  0  0
    9.4578   -5.0200   16.3036 N   0  0  0  0  0  0  0  0  0  0  0  0
    5.0287   -8.9365   16.8223 C   0  0  0  0  0  0  0  0  0  0  0  0
    8.7742   -6.1498   16.6764 C   0  0  0  0  0  0  0  0  0  0  0  0
   10.9418   -3.4032   21.2053 O   0  0  0  0  0  0  0  0  0  0  0  0
    1.4797   -8.6258   16.2950 C   0  0  0  0  0  0  0  0  0  0  0  0
    9.2861   -1.2743   25.3585 C   0  0  0  0  0  0  0  0  0  0  0  0
    1.8892  -10.3985   17.7511 N   0  0  0  0  0  0  0  0  0  0  0  0
    9.6210   -0.6952   24.0976 C   0  0  0  0  0  0  0  0  0  0  0  0
    7.0792   -9.0217   17.1429 C   0  0  0  0  0  0  0  0  0  0  0  0
    3.1713  -10.1816   17.6634 C   0  0  0  0  0  0  0  0  0  0  0  0
    2.7878   -8.3822   16.2137 C   0  0  0  0  0  0  0  0  0  0  0  0
    9.4601   -2.6590   25.6528 C   0  0  0  0  0  0  0  0  0  0  0  0
   10.1182   -1.5672   23.1165 C   0  0  0  0  0  0  0  0  0  0  0  0
    1.0552   -9.6360   17.0650 C   0  0  0  0  0  0  0  0  0  0  0  0
    3.6519   -9.1783   16.9039 C   0  0  0  0  0  0  0  0  0  0  0  0
    7.8675   -7.0096   15.9415 C   0  0  0  0  0  0  0  0  0  0  0  0
    5.9733   -9.6553   17.3832 N   0  0  0  0  0  0  0  0  0  0  0  0
   10.2411   -2.9363   23.4301 C   0  0  0  0  0  0  0  0  0  0  0  0
   10.7288   -3.8197   19.9525 C   0  0  0  0  0  0  0  0  0  0  0  0
   10.1189   -5.0054   19.6987 C   0  0  0  0  0  0  0  0  0  0  0  0
  1  3  4  0
  1  7  4  0
  2 21  4  0
  2 27  4  0
  3  9  4  0
  3 10  4  0
  4  8  4  0
  4 18  4  0
  4 25  1  0
  5  9  4  0
  5 12  4  0
  6 13  1  0
  6 27  1  0
  7 28  4  0
  8 11  4  0
  9 29  4  0
 10 12  4  0
 11 24  1  0
 11 26  4  0
 12 25  1  0
 13 28  1  0
 14 20  4  0
 14 23  4  0
 15 17  4  0
 15 21  4  0
 16 19  4  0
 16 23  4  0
 17 22  4  0
 18 26  4  0
 19 24  4  0
 20 24  4  0
 22 27  4  0
 28 29  4  0
M  END
$$$$

 Created by Python create_sdf_string function

 29 33  0  0  0  0  0  0  0  0999 V2000
   10.7215   -3.3326   17.6437 C   0  0  0  0  0  0  0  0  0  0  0  0
    9.9489   -3.4675   24.6487 N   0  0  0  0  0  0  0  0  0  0  0  0
   10.0172   -4.4740   17.4101 C   0  0  0  0  0  0  0  0  0  0  0  0
    6.9051   -7.9575   16.4222 C   0  0  0  0  0  0  0  0  0  0  0  0
    8.9969   -6.3552   17.9668 N   0  0  0  0  0  0  0  0  0  0  0  0
   10.6702   -3.9051   22.4070 C   0  0  0  0  0  0  0  0  0  0  0  0
   11.0625   -3.0028   18.8894 C   0  0  0  0  0  0  0  0  0  0  0  0
    5.6180   -7.9194   16.1754 O   0  0  0  0  0  0  0  0  0  0  0  0
    9.7259   -5.3080   18.4485 C   0  0  0  0  0  0  0  0  0  0  0  0
    9.4578   -5.0200   16.3036 N   0  0  0  0  0  0  0  0  0  0  0  0
    5.0287   -8.9365   16.8223 C   0  0  0  0  0  0  0  0  0  0  0  0
    8.7742   -6.1498   16.6764 C   0  0  0  0  0  0  0  0  0  0  0  0
   10.9418   -3.4032   21.2053 O   0  0  0  0  0  0  0  0  0  0  0  0
    1.4797   -8.6258   16.2950 C   0  0  0  0  0  0  0  0  0  0  0  0
    9.2861   -1.2743   25.3585 C   0  0  0  0  0  0  0  0  0  0  0  0
    1.8892  -10.3985   17.7511 N   0  0  0  0  0  0  0  0  0  0  0  0
    9.6210   -0.6952   24.0976 C   0  0  0  0  0  0  0  0  0  0  0  0
    7.0792   -9.0217   17.1429 C   0  0  0  0  0  0  0  0  0  0  0  0
    3.1713  -10.1816   17.6634 C   0  0  0  0  0  0  0  0  0  0  0  0
    2.7878   -8.3822   16.2137 C   0  0  0  0  0  0  0  0  0  0  0  0
    9.4601   -2.6590   25.6528 C   0  0  0  0  0  0  0  0  0  0  0  0
   10.1182   -1.5672   23.1165 C   0  0  0  0  0  0  0  0  0  0  0  0
    1.0552   -9.6360   17.0650 C   0  0  0  0  0  0  0  0  0  0  0  0
    3.6519   -9.1783   16.9039 C   0  0  0  0  0  0  0  0  0  0  0  0
    7.8675   -7.0096   15.9415 C   0  0  0  0  0  0  0  0  0  0  0  0
    5.9733   -9.6553   17.3832 N   0  0  0  0  0  0  0  0  0  0  0  0
   10.2411   -2.9363   23.4301 C   0  0  0  0  0  0  0  0  0  0  0  0
   10.7288   -3.8197   19.9525 C   0  0  0  0  0  0  0  0  0  0  0  0
   10.1189   -5.0054   19.6987 C   0  0  0  0  0  0  0  0  0  0  0  0
  1  3  4  0
  1  7  4  0
  2 21  4  0
  2 27  4  0
  3  9  4  0
  3 10  4  0
  4  8  4  0
  4 18  4  0
  4 25  1  0
  5  9  4  0
  5 12  4  0
  6 13  1  0
  6 27  1  0
  7 28  4  0
  8 11  4  0
  9 29  4  0
 10 12  4  0
 11 24  1  0
 11 26  4  0
 12 25  1  0
 13 28  1  0
 14 20  4  0
 14 23  4  0
 15 17  4  0
 15 21  4  0
 16 19  4  0
 16 23  4  0
 17 22  4  0
 18 26  4  0
 19 24  4  0
 20 24  4  0
 22 27  4  0
 28 29  4  0
M  END
$$$$

 Created by Python create_sdf_string function

 29 33  0  0  0  0  0  0  0  0999 V2000
   10.7215   -3.3326   17.6437 C   0  0  0  0  0  0  0  0  0  0  0  0
    9.9489   -3.4675   24.6487 N   0  0  0  0  0  0  0  0  0  0  0  0
   10.0172   -4.4740   17.4101 C   0  0  0  0  0  0  0  0  0  0  0  0
    6.9051   -7.9575   16.4222 C   0  0  0  0  0  0  0  0  0  0  0  0
    8.9969   -6.3552   17.9668 N   0  0  0  0  0  0  0  0  0  0  0  0
   10.6702   -3.9051   22.4070 C   0  0  0  0  0  0  0  0  0  0  0  0
   11.0625   -3.0028   18.8894 C   0  0  0  0  0  0  0  0  0  0  0  0
    5.6180   -7.9194   16.1754 O   0  0  0  0  0  0  0  0  0  0  0  0
    9.7259   -5.3080   18.4485 C   0  0  0  0  0  0  0  0  0  0  0  0
    9.4578   -5.0200   16.3036 N   0  0  0  0  0  0  0  0  0  0  0  0
    5.0287   -8.9365   16.8223 C   0  0  0  0  0  0  0  0  0  0  0  0
    8.7742   -6.1498   16.6764 C   0  0  0  0  0  0  0  0  0  0  0  0
   10.9418   -3.4032   21.2053 O   0  0  0  0  0  0  0  0  0  0  0  0
    1.4797   -8.6258   16.2950 C   0  0  0  0  0  0  0  0  0  0  0  0
    9.2861   -1.2743   25.3585 C   0  0  0  0  0  0  0  0  0  0  0  0
    1.8892  -10.3985   17.7511 N   0  0  0  0  0  0  0  0  0  0  0  0
    9.6210   -0.6952   24.0976 C   0  0  0  0  0  0  0  0  0  0  0  0
    7.0792   -9.0217   17.1429 C   0  0  0  0  0  0  0  0  0  0  0  0
    3.1713  -10.1816   17.6634 C   0  0  0  0  0  0  0  0  0  0  0  0
    2.7878   -8.3822   16.2137 C   0  0  0  0  0  0  0  0  0  0  0  0
    9.4601   -2.6590   25.6528 C   0  0  0  0  0  0  0  0  0  0  0  0
   10.1182   -1.5672   23.1165 C   0  0  0  0  0  0  0  0  0  0  0  0
    1.0552   -9.6360   17.0650 C   0  0  0  0  0  0  0  0  0  0  0  0
    3.6519   -9.1783   16.9039 C   0  0  0  0  0  0  0  0  0  0  0  0
    7.8675   -7.0096   15.9415 C   0  0  0  0  0  0  0  0  0  0  0  0
    5.9733   -9.6553   17.3832 N   0  0  0  0  0  0  0  0  0  0  0  0
   10.2411   -2.9363   23.4301 C   0  0  0  0  0  0  0  0  0  0  0  0
   10.7288   -3.8197   19.9525 C   0  0  0  0  0  0  0  0  0  0  0  0
   10.1189   -5.0054   19.6987 C   0  0  0  0  0  0  0  0  0  0  0  0
  1  3  4  0
  1  7  4  0
  2 21  4  0
  2 27  4  0
  3  9  4  0
  3 10  4  0
  4  8  4  0
  4 18  4  0
  4 25  1  0
  5  9  4  0
  5 12  4  0
  6 13  1  0
  6 27  1  0
  7 28  4  0
  8 11  4  0
  9 29  4  0
 10 12  4  0
 11 24  1  0
 11 26  4  0
 12 25  1  0
 13 28  1  0
 14 20  4  0
 14 23  4  0
 15 17  4  0
 15 21  4  0
 16 19  4  0
 16 23  4  0
 17 22  4  0
 18 26  4  0
 19 24  4  0
 20 24  4  0
 22 27  4  0
 28 29  4  0
M  END
$$$$

 Created by Python create_sdf_string function

 29 33  0  0  0  0  0  0  0  0999 V2000
   10.7215   -3.3326   17.6437 C   0  0  0  0  0  0  0  0  0  0  0  0
    9.9489   -3.4675   24.6487 N   0  0  0  0  0  0  0  0  0  0  0  0
   10.0172   -4.4740   17.4101 C   0  0  0  0  0  0  0  0  0  0  0  0
    6.9051   -7.9575   16.4222 C   0  0  0  0  0  0  0  0  0  0  0  0
    8.9969   -6.3552   17.9668 N   0  0  0  0  0  0  0  0  0  0  0  0
   10.6702   -3.9051   22.4070 C   0  0  0  0  0  0  0  0  0  0  0  0
   11.0625   -3.0028   18.8894 C   0  0  0  0  0  0  0  0  0  0  0  0
    5.6180   -7.9194   16.1754 O   0  0  0  0  0  0  0  0  0  0  0  0
    9.7259   -5.3080   18.4485 C   0  0  0  0  0  0  0  0  0  0  0  0
    9.4578   -5.0200   16.3036 N   0  0  0  0  0  0  0  0  0  0  0  0
    5.0287   -8.9365   16.8223 C   0  0  0  0  0  0  0  0  0  0  0  0
    8.7742   -6.1498   16.6764 C   0  0  0  0  0  0  0  0  0  0  0  0
   10.9418   -3.4032   21.2053 O   0  0  0  0  0  0  0  0  0  0  0  0
    1.4797   -8.6258   16.2950 C   0  0  0  0  0  0  0  0  0  0  0  0
    9.2861   -1.2743   25.3585 C   0  0  0  0  0  0  0  0  0  0  0  0
    1.8892  -10.3985   17.7511 N   0  0  0  0  0  0  0  0  0  0  0  0
    9.6210   -0.6952   24.0976 C   0  0  0  0  0  0  0  0  0  0  0  0
    7.0792   -9.0217   17.1429 C   0  0  0  0  0  0  0  0  0  0  0  0
    3.1713  -10.1816   17.6634 C   0  0  0  0  0  0  0  0  0  0  0  0
    2.7878   -8.3822   16.2137 C   0  0  0  0  0  0  0  0  0  0  0  0
    9.4601   -2.6590   25.6528 C   0  0  0  0  0  0  0  0  0  0  0  0
   10.1182   -1.5672   23.1165 C   0  0  0  0  0  0  0  0  0  0  0  0
    1.0552   -9.6360   17.0650 C   0  0  0  0  0  0  0  0  0  0  0  0
    3.6519   -9.1783   16.9039 C   0  0  0  0  0  0  0  0  0  0  0  0
    7.8675   -7.0096   15.9415 C   0  0  0  0  0  0  0  0  0  0  0  0
    5.9733   -9.6553   17.3832 N   0  0  0  0  0  0  0  0  0  0  0  0
   10.2411   -2.9363   23.4301 C   0  0  0  0  0  0  0  0  0  0  0  0
   10.7288   -3.8197   19.9525 C   0  0  0  0  0  0  0  0  0  0  0  0
   10.1189   -5.0054   19.6987 C   0  0  0  0  0  0  0  0  0  0  0  0
  1  3  4  0
  1  7  4  0
  2 21  4  0
  2 27  4  0
  3  9  4  0
  3 10  4  0
  4  8  4  0
  4 18  4  0
  4 25  1  0
  5  9  4  0
  5 12  4  0
  6 13  1  0
  6 27  1  0
  7 28  4  0
  8 11  4  0
  9 29  4  0
 10 12  4  0
 11 24  1  0
 11 26  4  0
 12 25  1  0
 13 28  1  0
 14 20  4  0
 14 23  4  0
 15 17  4  0
 15 21  4  0
 16 19  4  0
 16 23  4  0
 17 22  4  0
 18 26  4  0
 19 24  4  0
 20 24  4  0
 22 27  4  0
 28 29  4  0
M  END
$$$$

 Created by Python create_sdf_string function

 29 33  0  0  0  0  0  0  0  0999 V2000
   10.7215   -3.3326   17.6437 C   0  0  0  0  0  0  0  0  0  0  0  0
    9.9489   -3.4675   24.6487 N   0  0  0  0  0  0  0  0  0  0  0  0
   10.0172   -4.4740   17.4101 C   0  0  0  0  0  0  0  0  0  0  0  0
    6.9051   -7.9575   16.4222 C   0  0  0  0  0  0  0  0  0  0  0  0
    8.9969   -6.3552   17.9668 N   0  0  0  0  0  0  0  0  0  0  0  0
   10.6702   -3.9051   22.4070 C   0  0  0  0  0  0  0  0  0  0  0  0
   11.0625   -3.0028   18.8894 C   0  0  0  0  0  0  0  0  0  0  0  0
    5.6180   -7.9194   16.1754 O   0  0  0  0  0  0  0  0  0  0  0  0
    9.7259   -5.3080   18.4485 C   0  0  0  0  0  0  0  0  0  0  0  0
    9.4578   -5.0200   16.3036 N   0  0  0  0  0  0  0  0  0  0  0  0
    5.0287   -8.9365   16.8223 C   0  0  0  0  0  0  0  0  0  0  0  0
    8.7742   -6.1498   16.6764 C   0  0  0  0  0  0  0  0  0  0  0  0
   10.9418   -3.4032   21.2053 O   0  0  0  0  0  0  0  0  0  0  0  0
    1.4797   -8.6258   16.2950 C   0  0  0  0  0  0  0  0  0  0  0  0
    9.2861   -1.2743   25.3585 C   0  0  0  0  0  0  0  0  0  0  0  0
    1.8892  -10.3985   17.7511 N   0  0  0  0  0  0  0  0  0  0  0  0
    9.6210   -0.6952   24.0976 C   0  0  0  0  0  0  0  0  0  0  0  0
    7.0792   -9.0217   17.1429 C   0  0  0  0  0  0  0  0  0  0  0  0
    3.1713  -10.1816   17.6634 C   0  0  0  0  0  0  0  0  0  0  0  0
    2.7878   -8.3822   16.2137 C   0  0  0  0  0  0  0  0  0  0  0  0
    9.4601   -2.6590   25.6528 C   0  0  0  0  0  0  0  0  0  0  0  0
   10.1182   -1.5672   23.1165 C   0  0  0  0  0  0  0  0  0  0  0  0
    1.0552   -9.6360   17.0650 C   0  0  0  0  0  0  0  0  0  0  0  0
    3.6519   -9.1783   16.9039 C   0  0  0  0  0  0  0  0  0  0  0  0
    7.8675   -7.0096   15.9415 C   0  0  0  0  0  0  0  0  0  0  0  0
    5.9733   -9.6553   17.3832 N   0  0  0  0  0  0  0  0  0  0  0  0
   10.2411   -2.9363   23.4301 C   0  0  0  0  0  0  0  0  0  0  0  0
   10.7288   -3.8197   19.9525 C   0  0  0  0  0  0  0  0  0  0  0  0
   10.1189   -5.0054   19.6987 C   0  0  0  0  0  0  0  0  0  0  0  0
  1  3  4  0
  1  7  4  0
  2 21  4  0
  2 27  4  0
  3  9  4  0
  3 10  4  0
  4  8  4  0
  4 18  4  0
  4 25  1  0
  5  9  4  0
  5 12  4  0
  6 13  1  0
  6 27  1  0
  7 28  4  0
  8 11  4  0
  9 29  4  0
 10 12  4  0
 11 24  1  0
 11 26  4  0
 12 25  1  0
 13 28  1  0
 14 20  4  0
 14 23  4  0
 15 17  4  0
 15 21  4  0
 16 19  4  0
 16 23  4  0
 17 22  4  0
 18 26  4  0
 19 24  4  0
 20 24  4  0
 22 27  4  0
 28 29  4  0
M  END
$$$$

 Created by Python create_sdf_string function

 29 33  0  0  0  0  0  0  0  0999 V2000
   10.7215   -3.3326   17.6437 C   0  0  0  0  0  0  0  0  0  0  0  0
    9.9489   -3.4675   24.6487 N   0  0  0  0  0  0  0  0  0  0  0  0
   10.0172   -4.4740   17.4101 C   0  0  0  0  0  0  0  0  0  0  0  0
    6.9051   -7.9575   16.4222 C   0  0  0  0  0  0  0  0  0  0  0  0
    8.9969   -6.3552   17.9668 N   0  0  0  0  0  0  0  0  0  0  0  0
   10.6702   -3.9051   22.4070 C   0  0  0  0  0  0  0  0  0  0  0  0
   11.0625   -3.0028   18.8894 C   0  0  0  0  0  0  0  0  0  0  0  0
    5.6180   -7.9194   16.1754 O   0  0  0  0  0  0  0  0  0  0  0  0
    9.7259   -5.3080   18.4485 C   0  0  0  0  0  0  0  0  0  0  0  0
    9.4578   -5.0200   16.3036 N   0  0  0  0  0  0  0  0  0  0  0  0
    5.0287   -8.9365   16.8223 C   0  0  0  0  0  0  0  0  0  0  0  0
    8.7742   -6.1498   16.6764 C   0  0  0  0  0  0  0  0  0  0  0  0
   10.9418   -3.4032   21.2053 O   0  0  0  0  0  0  0  0  0  0  0  0
    1.4797   -8.6258   16.2950 C   0  0  0  0  0  0  0  0  0  0  0  0
    9.2861   -1.2743   25.3585 C   0  0  0  0  0  0  0  0  0  0  0  0
    1.8892  -10.3985   17.7511 N   0  0  0  0  0  0  0  0  0  0  0  0
    9.6210   -0.6952   24.0976 C   0  0  0  0  0  0  0  0  0  0  0  0
    7.0792   -9.0217   17.1429 C   0  0  0  0  0  0  0  0  0  0  0  0
    3.1713  -10.1816   17.6634 C   0  0  0  0  0  0  0  0  0  0  0  0
    2.7878   -8.3822   16.2137 C   0  0  0  0  0  0  0  0  0  0  0  0
    9.4601   -2.6590   25.6528 C   0  0  0  0  0  0  0  0  0  0  0  0
   10.1182   -1.5672   23.1165 C   0  0  0  0  0  0  0  0  0  0  0  0
    1.0552   -9.6360   17.0650 C   0  0  0  0  0  0  0  0  0  0  0  0
    3.6519   -9.1783   16.9039 C   0  0  0  0  0  0  0  0  0  0  0  0
    7.8675   -7.0096   15.9415 C   0  0  0  0  0  0  0  0  0  0  0  0
    5.9733   -9.6553   17.3832 N   0  0  0  0  0  0  0  0  0  0  0  0
   10.2411   -2.9363   23.4301 C   0  0  0  0  0  0  0  0  0  0  0  0
   10.7288   -3.8197   19.9525 C   0  0  0  0  0  0  0  0  0  0  0  0
   10.1189   -5.0054   19.6987 C   0  0  0  0  0  0  0  0  0  0  0  0
  1  3  4  0
  1  7  4  0
  2 21  4  0
  2 27  4  0
  3  9  4  0
  3 10  4  0
  4  8  4  0
  4 18  4  0
  4 25  1  0
  5  9  4  0
  5 12  4  0
  6 13  1  0
  6 27  1  0
  7 28  4  0
  8 11  4  0
  9 29  4  0
 10 12  4  0
 11 24  1  0
 11 26  4  0
 12 25  1  0
 13 28  1  0
 14 20  4  0
 14 23  4  0
 15 17  4  0
 15 21  4  0
 16 19  4  0
 16 23  4  0
 17 22  4  0
 18 26  4  0
 19 24  4  0
 20 24  4  0
 22 27  4  0
 28 29  4  0
M  END
$$$$

 Created by Python create_sdf_string function

 29 33  0  0  0  0  0  0  0  0999 V2000
   10.7215   -3.3326   17.6437 C   0  0  0  0  0  0  0  0  0  0  0  0
    9.9489   -3.4675   24.6487 N   0  0  0  0  0  0  0  0  0  0  0  0
   10.0172   -4.4740   17.4101 C   0  0  0  0  0  0  0  0  0  0  0  0
    6.9051   -7.9575   16.4222 C   0  0  0  0  0  0  0  0  0  0  0  0
    8.9969   -6.3552   17.9668 N   0  0  0  0  0  0  0  0  0  0  0  0
   10.6702   -3.9051   22.4070 C   0  0  0  0  0  0  0  0  0  0  0  0
   11.0625   -3.0028   18.8894 C   0  0  0  0  0  0  0  0  0  0  0  0
    5.6180   -7.9194   16.1754 O   0  0  0  0  0  0  0  0  0  0  0  0
    9.7259   -5.3080   18.4485 C   0  0  0  0  0  0  0  0  0  0  0  0
    9.4578   -5.0200   16.3036 N   0  0  0  0  0  0  0  0  0  0  0  0
    5.0287   -8.9365   16.8223 C   0  0  0  0  0  0  0  0  0  0  0  0
    8.7742   -6.1498   16.6764 C   0  0  0  0  0  0  0  0  0  0  0  0
   10.9418   -3.4032   21.2053 O   0  0  0  0  0  0  0  0  0  0  0  0
    1.4797   -8.6258   16.2950 C   0  0  0  0  0  0  0  0  0  0  0  0
    9.2861   -1.2743   25.3585 C   0  0  0  0  0  0  0  0  0  0  0  0
    1.8892  -10.3985   17.7511 N   0  0  0  0  0  0  0  0  0  0  0  0
    9.6210   -0.6952   24.0976 C   0  0  0  0  0  0  0  0  0  0  0  0
    7.0792   -9.0217   17.1429 C   0  0  0  0  0  0  0  0  0  0  0  0
    3.1713  -10.1816   17.6634 C   0  0  0  0  0  0  0  0  0  0  0  0
    2.7878   -8.3822   16.2137 C   0  0  0  0  0  0  0  0  0  0  0  0
    9.4601   -2.6590   25.6528 C   0  0  0  0  0  0  0  0  0  0  0  0
   10.1182   -1.5672   23.1165 C   0  0  0  0  0  0  0  0  0  0  0  0
    1.0552   -9.6360   17.0650 C   0  0  0  0  0  0  0  0  0  0  0  0
    3.6519   -9.1783   16.9039 C   0  0  0  0  0  0  0  0  0  0  0  0
    7.8675   -7.0096   15.9415 C   0  0  0  0  0  0  0  0  0  0  0  0
    5.9733   -9.6553   17.3832 N   0  0  0  0  0  0  0  0  0  0  0  0
   10.2411   -2.9363   23.4301 C   0  0  0  0  0  0  0  0  0  0  0  0
   10.7288   -3.8197   19.9525 C   0  0  0  0  0  0  0  0  0  0  0  0
   10.1189   -5.0054   19.6987 C   0  0  0  0  0  0  0  0  0  0  0  0
  1  3  4  0
  1  7  4  0
  2 21  4  0
  2 27  4  0
  3  9  4  0
  3 10  4  0
  4  8  4  0
  4 18  4  0
  4 25  1  0
  5  9  4  0
  5 12  4  0
  6 13  1  0
  6 27  1  0
  7 28  4  0
  8 11  4  0
  9 29  4  0
 10 12  4  0
 11 24  1  0
 11 26  4  0
 12 25  1  0
 13 28  1  0
 14 20  4  0
 14 23  4  0
 15 17  4  0
 15 21  4  0
 16 19  4  0
 16 23  4  0
 17 22  4  0
 18 26  4  0
 19 24  4  0
 20 24  4  0
 22 27  4  0
 28 29  4  0
M  END
$$$$

 Created by Python create_sdf_string function

 29 33  0  0  0  0  0  0  0  0999 V2000
   10.7215   -3.3326   17.6437 C   0  0  0  0  0  0  0  0  0  0  0  0
    9.9489   -3.4675   24.6487 N   0  0  0  0  0  0  0  0  0  0  0  0
   10.0172   -4.4740   17.4101 C   0  0  0  0  0  0  0  0  0  0  0  0
    6.9051   -7.9575   16.4222 C   0  0  0  0  0  0  0  0  0  0  0  0
    8.9969   -6.3552   17.9668 N   0  0  0  0  0  0  0  0  0  0  0  0
   10.6702   -3.9051   22.4070 C   0  0  0  0  0  0  0  0  0  0  0  0
   11.0625   -3.0028   18.8894 C   0  0  0  0  0  0  0  0  0  0  0  0
    5.6180   -7.9194   16.1754 O   0  0  0  0  0  0  0  0  0  0  0  0
    9.7259   -5.3080   18.4485 C   0  0  0  0  0  0  0  0  0  0  0  0
    9.4578   -5.0200   16.3036 N   0  0  0  0  0  0  0  0  0  0  0  0
    5.0287   -8.9365   16.8223 C   0  0  0  0  0  0  0  0  0  0  0  0
    8.7742   -6.1498   16.6764 C   0  0  0  0  0  0  0  0  0  0  0  0
   10.9418   -3.4032   21.2053 O   0  0  0  0  0  0  0  0  0  0  0  0
    1.4797   -8.6258   16.2950 C   0  0  0  0  0  0  0  0  0  0  0  0
    9.2861   -1.2743   25.3585 C   0  0  0  0  0  0  0  0  0  0  0  0
    1.8892  -10.3985   17.7511 N   0  0  0  0  0  0  0  0  0  0  0  0
    9.6210   -0.6952   24.0976 C   0  0  0  0  0  0  0  0  0  0  0  0
    7.0792   -9.0217   17.1429 C   0  0  0  0  0  0  0  0  0  0  0  0
    3.1713  -10.1816   17.6634 C   0  0  0  0  0  0  0  0  0  0  0  0
    2.7878   -8.3822   16.2137 C   0  0  0  0  0  0  0  0  0  0  0  0
    9.4601   -2.6590   25.6528 C   0  0  0  0  0  0  0  0  0  0  0  0
   10.1182   -1.5672   23.1165 C   0  0  0  0  0  0  0  0  0  0  0  0
    1.0552   -9.6360   17.0650 C   0  0  0  0  0  0  0  0  0  0  0  0
    3.6519   -9.1783   16.9039 C   0  0  0  0  0  0  0  0  0  0  0  0
    7.8675   -7.0096   15.9415 C   0  0  0  0  0  0  0  0  0  0  0  0
    5.9733   -9.6553   17.3832 N   0  0  0  0  0  0  0  0  0  0  0  0
   10.2411   -2.9363   23.4301 C   0  0  0  0  0  0  0  0  0  0  0  0
   10.7288   -3.8197   19.9525 C   0  0  0  0  0  0  0  0  0  0  0  0
   10.1189   -5.0054   19.6987 C   0  0  0  0  0  0  0  0  0  0  0  0
  1  3  4  0
  1  7  4  0
  2 21  4  0
  2 27  4  0
  3  9  4  0
  3 10  4  0
  4  8  4  0
  4 18  4  0
  4 25  1  0
  5  9  4  0
  5 12  4  0
  6 13  1  0
  6 27  1  0
  7 28  4  0
  8 11  4  0
  9 29  4  0
 10 12  4  0
 11 24  1  0
 11 26  4  0
 12 25  1  0
 13 28  1  0
 14 20  4  0
 14 23  4  0
 15 17  4  0
 15 21  4  0
 16 19  4  0
 16 23  4  0
 17 22  4  0
 18 26  4  0
 19 24  4  0
 20 24  4  0
 22 27  4  0
 28 29  4  0
M  END
$$$$

 Created by Python create_sdf_string function

 29 33  0  0  0  0  0  0  0  0999 V2000
   10.7215   -3.3326   17.6437 C   0  0  0  0  0  0  0  0  0  0  0  0
    9.9489   -3.4675   24.6487 N   0  0  0  0  0  0  0  0  0  0  0  0
   10.0172   -4.4740   17.4101 C   0  0  0  0  0  0  0  0  0  0  0  0
    6.9051   -7.9575   16.4222 C   0  0  0  0  0  0  0  0  0  0  0  0
    8.9969   -6.3552   17.9668 N   0  0  0  0  0  0  0  0  0  0  0  0
   10.6702   -3.9051   22.4070 C   0  0  0  0  0  0  0  0  0  0  0  0
   11.0625   -3.0028   18.8894 C   0  0  0  0  0  0  0  0  0  0  0  0
    5.6180   -7.9194   16.1754 O   0  0  0  0  0  0  0  0  0  0  0  0
    9.7259   -5.3080   18.4485 C   0  0  0  0  0  0  0  0  0  0  0  0
    9.4578   -5.0200   16.3036 N   0  0  0  0  0  0  0  0  0  0  0  0
    5.0287   -8.9365   16.8223 C   0  0  0  0  0  0  0  0  0  0  0  0
    8.7742   -6.1498   16.6764 C   0  0  0  0  0  0  0  0  0  0  0  0
   10.9418   -3.4032   21.2053 O   0  0  0  0  0  0  0  0  0  0  0  0
    1.4797   -8.6258   16.2950 C   0  0  0  0  0  0  0  0  0  0  0  0
    9.2861   -1.2743   25.3585 C   0  0  0  0  0  0  0  0  0  0  0  0
    1.8892  -10.3985   17.7511 N   0  0  0  0  0  0  0  0  0  0  0  0
    9.6210   -0.6952   24.0976 C   0  0  0  0  0  0  0  0  0  0  0  0
    7.0792   -9.0217   17.1429 C   0  0  0  0  0  0  0  0  0  0  0  0
    3.1713  -10.1816   17.6634 C   0  0  0  0  0  0  0  0  0  0  0  0
    2.7878   -8.3822   16.2137 C   0  0  0  0  0  0  0  0  0  0  0  0
    9.4601   -2.6590   25.6528 C   0  0  0  0  0  0  0  0  0  0  0  0
   10.1182   -1.5672   23.1165 C   0  0  0  0  0  0  0  0  0  0  0  0
    1.0552   -9.6360   17.0650 C   0  0  0  0  0  0  0  0  0  0  0  0
    3.6519   -9.1783   16.9039 C   0  0  0  0  0  0  0  0  0  0  0  0
    7.8675   -7.0096   15.9415 C   0  0  0  0  0  0  0  0  0  0  0  0
    5.9733   -9.6553   17.3832 N   0  0  0  0  0  0  0  0  0  0  0  0
   10.2411   -2.9363   23.4301 C   0  0  0  0  0  0  0  0  0  0  0  0
   10.7288   -3.8197   19.9525 C   0  0  0  0  0  0  0  0  0  0  0  0
   10.1189   -5.0054   19.6987 C   0  0  0  0  0  0  0  0  0  0  0  0
  1  3  4  0
  1  7  4  0
  2 21  4  0
  2 27  4  0
  3  9  4  0
  3 10  4  0
  4  8  4  0
  4 18  4  0
  4 25  1  0
  5  9  4  0
  5 12  4  0
  6 13  1  0
  6 27  1  0
  7 28  4  0
  8 11  4  0
  9 29  4  0
 10 12  4  0
 11 24  1  0
 11 26  4  0
 12 25  1  0
 13 28  1  0
 14 20  4  0
 14 23  4  0
 15 17  4  0
 15 21  4  0
 16 19  4  0
 16 23  4  0
 17 22  4  0
 18 26  4  0
 19 24  4  0
 20 24  4  0
 22 27  4  0
 28 29  4  0
M  END
$$$$

 Created by Python create_sdf_string function

 29 33  0  0  0  0  0  0  0  0999 V2000
   10.7215   -3.3326   17.6437 C   0  0  0  0  0  0  0  0  0  0  0  0
    9.9489   -3.4675   24.6487 N   0  0  0  0  0  0  0  0  0  0  0  0
   10.0172   -4.4740   17.4101 C   0  0  0  0  0  0  0  0  0  0  0  0
    6.9051   -7.9575   16.4222 C   0  0  0  0  0  0  0  0  0  0  0  0
    8.9969   -6.3552   17.9668 N   0  0  0  0  0  0  0  0  0  0  0  0
   10.6702   -3.9051   22.4070 C   0  0  0  0  0  0  0  0  0  0  0  0
   11.0625   -3.0028   18.8894 C   0  0  0  0  0  0  0  0  0  0  0  0
    5.6180   -7.9194   16.1754 O   0  0  0  0  0  0  0  0  0  0  0  0
    9.7259   -5.3080   18.4485 C   0  0  0  0  0  0  0  0  0  0  0  0
    9.4578   -5.0200   16.3036 N   0  0  0  0  0  0  0  0  0  0  0  0
    5.0287   -8.9365   16.8223 C   0  0  0  0  0  0  0  0  0  0  0  0
    8.7742   -6.1498   16.6764 C   0  0  0  0  0  0  0  0  0  0  0  0
   10.9418   -3.4032   21.2053 O   0  0  0  0  0  0  0  0  0  0  0  0
    1.4797   -8.6258   16.2950 C   0  0  0  0  0  0  0  0  0  0  0  0
    9.2861   -1.2743   25.3585 C   0  0  0  0  0  0  0  0  0  0  0  0
    1.8892  -10.3985   17.7511 N   0  0  0  0  0  0  0  0  0  0  0  0
    9.6210   -0.6952   24.0976 C   0  0  0  0  0  0  0  0  0  0  0  0
    7.0792   -9.0217   17.1429 C   0  0  0  0  0  0  0  0  0  0  0  0
    3.1713  -10.1816   17.6634 C   0  0  0  0  0  0  0  0  0  0  0  0
    2.7878   -8.3822   16.2137 C   0  0  0  0  0  0  0  0  0  0  0  0
    9.4601   -2.6590   25.6528 C   0  0  0  0  0  0  0  0  0  0  0  0
   10.1182   -1.5672   23.1165 C   0  0  0  0  0  0  0  0  0  0  0  0
    1.0552   -9.6360   17.0650 C   0  0  0  0  0  0  0  0  0  0  0  0
    3.6519   -9.1783   16.9039 C   0  0  0  0  0  0  0  0  0  0  0  0
    7.8675   -7.0096   15.9415 C   0  0  0  0  0  0  0  0  0  0  0  0
    5.9733   -9.6553   17.3832 N   0  0  0  0  0  0  0  0  0  0  0  0
   10.2411   -2.9363   23.4301 C   0  0  0  0  0  0  0  0  0  0  0  0
   10.7288   -3.8197   19.9525 C   0  0  0  0  0  0  0  0  0  0  0  0
   10.1189   -5.0054   19.6987 C   0  0  0  0  0  0  0  0  0  0  0  0
  1  3  4  0
  1  7  4  0
  2 21  4  0
  2 27  4  0
  3  9  4  0
  3 10  4  0
  4  8  4  0
  4 18  4  0
  4 25  1  0
  5  9  4  0
  5 12  4  0
  6 13  1  0
  6 27  1  0
  7 28  4  0
  8 11  4  0
  9 29  4  0
 10 12  4  0
 11 24  1  0
 11 26  4  0
 12 25  1  0
 13 28  1  0
 14 20  4  0
 14 23  4  0
 15 17  4  0
 15 21  4  0
 16 19  4  0
 16 23  4  0
 17 22  4  0
 18 26  4  0
 19 24  4  0
 20 24  4  0
 22 27  4  0
 28 29  4  0
M  END
$$$$

 Created by Python create_sdf_string function

 29 33  0  0  0  0  0  0  0  0999 V2000
   10.7215   -3.3326   17.6437 C   0  0  0  0  0  0  0  0  0  0  0  0
    9.9489   -3.4675   24.6487 N   0  0  0  0  0  0  0  0  0  0  0  0
   10.0172   -4.4740   17.4101 C   0  0  0  0  0  0  0  0  0  0  0  0
    6.9051   -7.9575   16.4222 C   0  0  0  0  0  0  0  0  0  0  0  0
    8.9969   -6.3552   17.9668 N   0  0  0  0  0  0  0  0  0  0  0  0
   10.6702   -3.9051   22.4070 C   0  0  0  0  0  0  0  0  0  0  0  0
   11.0625   -3.0028   18.8894 C   0  0  0  0  0  0  0  0  0  0  0  0
    5.6180   -7.9194   16.1754 O   0  0  0  0  0  0  0  0  0  0  0  0
    9.7259   -5.3080   18.4485 C   0  0  0  0  0  0  0  0  0  0  0  0
    9.4578   -5.0200   16.3036 N   0  0  0  0  0  0  0  0  0  0  0  0
    5.0287   -8.9365   16.8223 C   0  0  0  0  0  0  0  0  0  0  0  0
    8.7742   -6.1498   16.6764 C   0  0  0  0  0  0  0  0  0  0  0  0
   10.9418   -3.4032   21.2053 O   0  0  0  0  0  0  0  0  0  0  0  0
    1.4797   -8.6258   16.2950 C   0  0  0  0  0  0  0  0  0  0  0  0
    9.2861   -1.2743   25.3585 C   0  0  0  0  0  0  0  0  0  0  0  0
    1.8892  -10.3985   17.7511 N   0  0  0  0  0  0  0  0  0  0  0  0
    9.6210   -0.6952   24.0976 C   0  0  0  0  0  0  0  0  0  0  0  0
    7.0792   -9.0217   17.1429 C   0  0  0  0  0  0  0  0  0  0  0  0
    3.1713  -10.1816   17.6634 C   0  0  0  0  0  0  0  0  0  0  0  0
    2.7878   -8.3822   16.2137 C   0  0  0  0  0  0  0  0  0  0  0  0
    9.4601   -2.6590   25.6528 C   0  0  0  0  0  0  0  0  0  0  0  0
   10.1182   -1.5672   23.1165 C   0  0  0  0  0  0  0  0  0  0  0  0
    1.0552   -9.6360   17.0650 C   0  0  0  0  0  0  0  0  0  0  0  0
    3.6519   -9.1783   16.9039 C   0  0  0  0  0  0  0  0  0  0  0  0
    7.8675   -7.0096   15.9415 C   0  0  0  0  0  0  0  0  0  0  0  0
    5.9733   -9.6553   17.3832 N   0  0  0  0  0  0  0  0  0  0  0  0
   10.2411   -2.9363   23.4301 C   0  0  0  0  0  0  0  0  0  0  0  0
   10.7288   -3.8197   19.9525 C   0  0  0  0  0  0  0  0  0  0  0  0
   10.1189   -5.0054   19.6987 C   0  0  0  0  0  0  0  0  0  0  0  0
  1  3  4  0
  1  7  4  0
  2 21  4  0
  2 27  4  0
  3  9  4  0
  3 10  4  0
  4  8  4  0
  4 18  4  0
  4 25  1  0
  5  9  4  0
  5 12  4  0
  6 13  1  0
  6 27  1  0
  7 28  4  0
  8 11  4  0
  9 29  4  0
 10 12  4  0
 11 24  1  0
 11 26  4  0
 12 25  1  0
 13 28  1  0
 14 20  4  0
 14 23  4  0
 15 17  4  0
 15 21  4  0
 16 19  4  0
 16 23  4  0
 17 22  4  0
 18 26  4  0
 19 24  4  0
 20 24  4  0
 22 27  4  0
 28 29  4  0
M  END
$$$$

 Created by Python create_sdf_string function

 29 33  0  0  0  0  0  0  0  0999 V2000
   10.7215   -3.3326   17.6437 C   0  0  0  0  0  0  0  0  0  0  0  0
    9.9489   -3.4675   24.6487 N   0  0  0  0  0  0  0  0  0  0  0  0
   10.0172   -4.4740   17.4101 C   0  0  0  0  0  0  0  0  0  0  0  0
    6.9051   -7.9575   16.4222 C   0  0  0  0  0  0  0  0  0  0  0  0
    8.9969   -6.3552   17.9668 N   0  0  0  0  0  0  0  0  0  0  0  0
   10.6702   -3.9051   22.4070 C   0  0  0  0  0  0  0  0  0  0  0  0
   11.0625   -3.0028   18.8894 C   0  0  0  0  0  0  0  0  0  0  0  0
    5.6180   -7.9194   16.1754 O   0  0  0  0  0  0  0  0  0  0  0  0
    9.7259   -5.3080   18.4485 C   0  0  0  0  0  0  0  0  0  0  0  0
    9.4578   -5.0200   16.3036 N   0  0  0  0  0  0  0  0  0  0  0  0
    5.0287   -8.9365   16.8223 C   0  0  0  0  0  0  0  0  0  0  0  0
    8.7742   -6.1498   16.6764 C   0  0  0  0  0  0  0  0  0  0  0  0
   10.9418   -3.4032   21.2053 O   0  0  0  0  0  0  0  0  0  0  0  0
    1.4797   -8.6258   16.2950 C   0  0  0  0  0  0  0  0  0  0  0  0
    9.2861   -1.2743   25.3585 C   0  0  0  0  0  0  0  0  0  0  0  0
    1.8892  -10.3985   17.7511 N   0  0  0  0  0  0  0  0  0  0  0  0
    9.6210   -0.6952   24.0976 C   0  0  0  0  0  0  0  0  0  0  0  0
    7.0792   -9.0217   17.1429 C   0  0  0  0  0  0  0  0  0  0  0  0
    3.1713  -10.1816   17.6634 C   0  0  0  0  0  0  0  0  0  0  0  0
    2.7878   -8.3822   16.2137 C   0  0  0  0  0  0  0  0  0  0  0  0
    9.4601   -2.6590   25.6528 C   0  0  0  0  0  0  0  0  0  0  0  0
   10.1182   -1.5672   23.1165 C   0  0  0  0  0  0  0  0  0  0  0  0
    1.0552   -9.6360   17.0650 C   0  0  0  0  0  0  0  0  0  0  0  0
    3.6519   -9.1783   16.9039 C   0  0  0  0  0  0  0  0  0  0  0  0
    7.8675   -7.0096   15.9415 C   0  0  0  0  0  0  0  0  0  0  0  0
    5.9733   -9.6553   17.3832 N   0  0  0  0  0  0  0  0  0  0  0  0
   10.2411   -2.9363   23.4301 C   0  0  0  0  0  0  0  0  0  0  0  0
   10.7288   -3.8197   19.9525 C   0  0  0  0  0  0  0  0  0  0  0  0
   10.1189   -5.0054   19.6987 C   0  0  0  0  0  0  0  0  0  0  0  0
  1  3  4  0
  1  7  4  0
  2 21  4  0
  2 27  4  0
  3  9  4  0
  3 10  4  0
  4  8  4  0
  4 18  4  0
  4 25  1  0
  5  9  4  0
  5 12  4  0
  6 13  1  0
  6 27  1  0
  7 28  4  0
  8 11  4  0
  9 29  4  0
 10 12  4  0
 11 24  1  0
 11 26  4  0
 12 25  1  0
 13 28  1  0
 14 20  4  0
 14 23  4  0
 15 17  4  0
 15 21  4  0
 16 19  4  0
 16 23  4  0
 17 22  4  0
 18 26  4  0
 19 24  4  0
 20 24  4  0
 22 27  4  0
 28 29  4  0
M  END
$$$$

 Created by Python create_sdf_string function

 29 33  0  0  0  0  0  0  0  0999 V2000
   10.7215   -3.3326   17.6437 C   0  0  0  0  0  0  0  0  0  0  0  0
    9.9489   -3.4675   24.6487 N   0  0  0  0  0  0  0  0  0  0  0  0
   10.0172   -4.4740   17.4101 C   0  0  0  0  0  0  0  0  0  0  0  0
    6.9051   -7.9575   16.4222 C   0  0  0  0  0  0  0  0  0  0  0  0
    8.9969   -6.3552   17.9668 N   0  0  0  0  0  0  0  0  0  0  0  0
   10.6702   -3.9051   22.4070 C   0  0  0  0  0  0  0  0  0  0  0  0
   11.0625   -3.0028   18.8894 C   0  0  0  0  0  0  0  0  0  0  0  0
    5.6180   -7.9194   16.1754 O   0  0  0  0  0  0  0  0  0  0  0  0
    9.7259   -5.3080   18.4485 C   0  0  0  0  0  0  0  0  0  0  0  0
    9.4578   -5.0200   16.3036 N   0  0  0  0  0  0  0  0  0  0  0  0
    5.0287   -8.9365   16.8223 C   0  0  0  0  0  0  0  0  0  0  0  0
    8.7742   -6.1498   16.6764 C   0  0  0  0  0  0  0  0  0  0  0  0
   10.9418   -3.4032   21.2053 O   0  0  0  0  0  0  0  0  0  0  0  0
    1.4797   -8.6258   16.2950 C   0  0  0  0  0  0  0  0  0  0  0  0
    9.2861   -1.2743   25.3585 C   0  0  0  0  0  0  0  0  0  0  0  0
    1.8892  -10.3985   17.7511 N   0  0  0  0  0  0  0  0  0  0  0  0
    9.6210   -0.6952   24.0976 C   0  0  0  0  0  0  0  0  0  0  0  0
    7.0792   -9.0217   17.1429 C   0  0  0  0  0  0  0  0  0  0  0  0
    3.1713  -10.1816   17.6634 C   0  0  0  0  0  0  0  0  0  0  0  0
    2.7878   -8.3822   16.2137 C   0  0  0  0  0  0  0  0  0  0  0  0
    9.4601   -2.6590   25.6528 C   0  0  0  0  0  0  0  0  0  0  0  0
   10.1182   -1.5672   23.1165 C   0  0  0  0  0  0  0  0  0  0  0  0
    1.0552   -9.6360   17.0650 C   0  0  0  0  0  0  0  0  0  0  0  0
    3.6519   -9.1783   16.9039 C   0  0  0  0  0  0  0  0  0  0  0  0
    7.8675   -7.0096   15.9415 C   0  0  0  0  0  0  0  0  0  0  0  0
    5.9733   -9.6553   17.3832 N   0  0  0  0  0  0  0  0  0  0  0  0
   10.2411   -2.9363   23.4301 C   0  0  0  0  0  0  0  0  0  0  0  0
   10.7288   -3.8197   19.9525 C   0  0  0  0  0  0  0  0  0  0  0  0
   10.1189   -5.0054   19.6987 C   0  0  0  0  0  0  0  0  0  0  0  0
  1  3  4  0
  1  7  4  0
  2 21  4  0
  2 27  4  0
  3  9  4  0
  3 10  4  0
  4  8  4  0
  4 18  4  0
  4 25  1  0
  5  9  4  0
  5 12  4  0
  6 13  1  0
  6 27  1  0
  7 28  4  0
  8 11  4  0
  9 29  4  0
 10 12  4  0
 11 24  1  0
 11 26  4  0
 12 25  1  0
 13 28  1  0
 14 20  4  0
 14 23  4  0
 15 17  4  0
 15 21  4  0
 16 19  4  0
 16 23  4  0
 17 22  4  0
 18 26  4  0
 19 24  4  0
 20 24  4  0
 22 27  4  0
 28 29  4  0
M  END
$$$$

 Created by Python create_sdf_string function

 29 33  0  0  0  0  0  0  0  0999 V2000
   10.7215   -3.3326   17.6437 C   0  0  0  0  0  0  0  0  0  0  0  0
    9.9489   -3.4675   24.6487 N   0  0  0  0  0  0  0  0  0  0  0  0
   10.0172   -4.4740   17.4101 C   0  0  0  0  0  0  0  0  0  0  0  0
    6.9051   -7.9575   16.4222 C   0  0  0  0  0  0  0  0  0  0  0  0
    8.9969   -6.3552   17.9668 N   0  0  0  0  0  0  0  0  0  0  0  0
   10.6702   -3.9051   22.4070 C   0  0  0  0  0  0  0  0  0  0  0  0
   11.0625   -3.0028   18.8894 C   0  0  0  0  0  0  0  0  0  0  0  0
    5.6180   -7.9194   16.1754 O   0  0  0  0  0  0  0  0  0  0  0  0
    9.7259   -5.3080   18.4485 C   0  0  0  0  0  0  0  0  0  0  0  0
    9.4578   -5.0200   16.3036 N   0  0  0  0  0  0  0  0  0  0  0  0
    5.0287   -8.9365   16.8223 C   0  0  0  0  0  0  0  0  0  0  0  0
    8.7742   -6.1498   16.6764 C   0  0  0  0  0  0  0  0  0  0  0  0
   10.9418   -3.4032   21.2053 O   0  0  0  0  0  0  0  0  0  0  0  0
    1.4797   -8.6258   16.2950 C   0  0  0  0  0  0  0  0  0  0  0  0
    9.2861   -1.2743   25.3585 C   0  0  0  0  0  0  0  0  0  0  0  0
    1.8892  -10.3985   17.7511 N   0  0  0  0  0  0  0  0  0  0  0  0
    9.6210   -0.6952   24.0976 C   0  0  0  0  0  0  0  0  0  0  0  0
    7.0792   -9.0217   17.1429 C   0  0  0  0  0  0  0  0  0  0  0  0
    3.1713  -10.1816   17.6634 C   0  0  0  0  0  0  0  0  0  0  0  0
    2.7878   -8.3822   16.2137 C   0  0  0  0  0  0  0  0  0  0  0  0
    9.4601   -2.6590   25.6528 C   0  0  0  0  0  0  0  0  0  0  0  0
   10.1182   -1.5672   23.1165 C   0  0  0  0  0  0  0  0  0  0  0  0
    1.0552   -9.6360   17.0650 C   0  0  0  0  0  0  0  0  0  0  0  0
    3.6519   -9.1783   16.9039 C   0  0  0  0  0  0  0  0  0  0  0  0
    7.8675   -7.0096   15.9415 C   0  0  0  0  0  0  0  0  0  0  0  0
    5.9733   -9.6553   17.3832 N   0  0  0  0  0  0  0  0  0  0  0  0
   10.2411   -2.9363   23.4301 C   0  0  0  0  0  0  0  0  0  0  0  0
   10.7288   -3.8197   19.9525 C   0  0  0  0  0  0  0  0  0  0  0  0
   10.1189   -5.0054   19.6987 C   0  0  0  0  0  0  0  0  0  0  0  0
  1  3  4  0
  1  7  4  0
  2 21  4  0
  2 27  4  0
  3  9  4  0
  3 10  4  0
  4  8  4  0
  4 18  4  0
  4 25  1  0
  5  9  4  0
  5 12  4  0
  6 13  1  0
  6 27  1  0
  7 28  4  0
  8 11  4  0
  9 29  4  0
 10 12  4  0
 11 24  1  0
 11 26  4  0
 12 25  1  0
 13 28  1  0
 14 20  4  0
 14 23  4  0
 15 17  4  0
 15 21  4  0
 16 19  4  0
 16 23  4  0
 17 22  4  0
 18 26  4  0
 19 24  4  0
 20 24  4  0
 22 27  4  0
 28 29  4  0
M  END
$$$$

 Created by Python create_sdf_string function

 29 33  0  0  0  0  0  0  0  0999 V2000
   10.7215   -3.3326   17.6437 C   0  0  0  0  0  0  0  0  0  0  0  0
    9.9489   -3.4675   24.6487 N   0  0  0  0  0  0  0  0  0  0  0  0
   10.0172   -4.4740   17.4101 C   0  0  0  0  0  0  0  0  0  0  0  0
    6.9051   -7.9575   16.4222 C   0  0  0  0  0  0  0  0  0  0  0  0
    8.9969   -6.3552   17.9668 N   0  0  0  0  0  0  0  0  0  0  0  0
   10.6702   -3.9051   22.4070 C   0  0  0  0  0  0  0  0  0  0  0  0
   11.0625   -3.0028   18.8894 C   0  0  0  0  0  0  0  0  0  0  0  0
    5.6180   -7.9194   16.1754 O   0  0  0  0  0  0  0  0  0  0  0  0
    9.7259   -5.3080   18.4485 C   0  0  0  0  0  0  0  0  0  0  0  0
    9.4578   -5.0200   16.3036 N   0  0  0  0  0  0  0  0  0  0  0  0
    5.0287   -8.9365   16.8223 C   0  0  0  0  0  0  0  0  0  0  0  0
    8.7742   -6.1498   16.6764 C   0  0  0  0  0  0  0  0  0  0  0  0
   10.9418   -3.4032   21.2053 O   0  0  0  0  0  0  0  0  0  0  0  0
    1.4797   -8.6258   16.2950 C   0  0  0  0  0  0  0  0  0  0  0  0
    9.2861   -1.2743   25.3585 C   0  0  0  0  0  0  0  0  0  0  0  0
    1.8892  -10.3985   17.7511 N   0  0  0  0  0  0  0  0  0  0  0  0
    9.6210   -0.6952   24.0976 C   0  0  0  0  0  0  0  0  0  0  0  0
    7.0792   -9.0217   17.1429 C   0  0  0  0  0  0  0  0  0  0  0  0
    3.1713  -10.1816   17.6634 C   0  0  0  0  0  0  0  0  0  0  0  0
    2.7878   -8.3822   16.2137 C   0  0  0  0  0  0  0  0  0  0  0  0
    9.4601   -2.6590   25.6528 C   0  0  0  0  0  0  0  0  0  0  0  0
   10.1182   -1.5672   23.1165 C   0  0  0  0  0  0  0  0  0  0  0  0
    1.0552   -9.6360   17.0650 C   0  0  0  0  0  0  0  0  0  0  0  0
    3.6519   -9.1783   16.9039 C   0  0  0  0  0  0  0  0  0  0  0  0
    7.8675   -7.0096   15.9415 C   0  0  0  0  0  0  0  0  0  0  0  0
    5.9733   -9.6553   17.3832 N   0  0  0  0  0  0  0  0  0  0  0  0
   10.2411   -2.9363   23.4301 C   0  0  0  0  0  0  0  0  0  0  0  0
   10.7288   -3.8197   19.9525 C   0  0  0  0  0  0  0  0  0  0  0  0
   10.1189   -5.0054   19.6987 C   0  0  0  0  0  0  0  0  0  0  0  0
  1  3  4  0
  1  7  4  0
  2 21  4  0
  2 27  4  0
  3  9  4  0
  3 10  4  0
  4  8  4  0
  4 18  4  0
  4 25  1  0
  5  9  4  0
  5 12  4  0
  6 13  1  0
  6 27  1  0
  7 28  4  0
  8 11  4  0
  9 29  4  0
 10 12  4  0
 11 24  1  0
 11 26  4  0
 12 25  1  0
 13 28  1  0
 14 20  4  0
 14 23  4  0
 15 17  4  0
 15 21  4  0
 16 19  4  0
 16 23  4  0
 17 22  4  0
 18 26  4  0
 19 24  4  0
 20 24  4  0
 22 27  4  0
 28 29  4  0
M  END
$$$$

 Created by Python create_sdf_string function

 29 33  0  0  0  0  0  0  0  0999 V2000
   10.7215   -3.3326   17.6437 C   0  0  0  0  0  0  0  0  0  0  0  0
    9.9489   -3.4675   24.6487 N   0  0  0  0  0  0  0  0  0  0  0  0
   10.0172   -4.4740   17.4101 C   0  0  0  0  0  0  0  0  0  0  0  0
    6.9051   -7.9575   16.4222 C   0  0  0  0  0  0  0  0  0  0  0  0
    8.9969   -6.3552   17.9668 N   0  0  0  0  0  0  0  0  0  0  0  0
   10.6702   -3.9051   22.4070 C   0  0  0  0  0  0  0  0  0  0  0  0
   11.0625   -3.0028   18.8894 C   0  0  0  0  0  0  0  0  0  0  0  0
    5.6180   -7.9194   16.1754 O   0  0  0  0  0  0  0  0  0  0  0  0
    9.7259   -5.3080   18.4485 C   0  0  0  0  0  0  0  0  0  0  0  0
    9.4578   -5.0200   16.3036 N   0  0  0  0  0  0  0  0  0  0  0  0
    5.0287   -8.9365   16.8223 C   0  0  0  0  0  0  0  0  0  0  0  0
    8.7742   -6.1498   16.6764 C   0  0  0  0  0  0  0  0  0  0  0  0
   10.9418   -3.4032   21.2053 O   0  0  0  0  0  0  0  0  0  0  0  0
    1.4797   -8.6258   16.2950 C   0  0  0  0  0  0  0  0  0  0  0  0
    9.2861   -1.2743   25.3585 C   0  0  0  0  0  0  0  0  0  0  0  0
    1.8892  -10.3985   17.7511 N   0  0  0  0  0  0  0  0  0  0  0  0
    9.6210   -0.6952   24.0976 C   0  0  0  0  0  0  0  0  0  0  0  0
    7.0792   -9.0217   17.1429 C   0  0  0  0  0  0  0  0  0  0  0  0
    3.1713  -10.1816   17.6634 C   0  0  0  0  0  0  0  0  0  0  0  0
    2.7878   -8.3822   16.2137 C   0  0  0  0  0  0  0  0  0  0  0  0
    9.4601   -2.6590   25.6528 C   0  0  0  0  0  0  0  0  0  0  0  0
   10.1182   -1.5672   23.1165 C   0  0  0  0  0  0  0  0  0  0  0  0
    1.0552   -9.6360   17.0650 C   0  0  0  0  0  0  0  0  0  0  0  0
    3.6519   -9.1783   16.9039 C   0  0  0  0  0  0  0  0  0  0  0  0
    7.8675   -7.0096   15.9415 C   0  0  0  0  0  0  0  0  0  0  0  0
    5.9733   -9.6553   17.3832 N   0  0  0  0  0  0  0  0  0  0  0  0
   10.2411   -2.9363   23.4301 C   0  0  0  0  0  0  0  0  0  0  0  0
   10.7288   -3.8197   19.9525 C   0  0  0  0  0  0  0  0  0  0  0  0
   10.1189   -5.0054   19.6987 C   0  0  0  0  0  0  0  0  0  0  0  0
  1  3  4  0
  1  7  4  0
  2 21  4  0
  2 27  4  0
  3  9  4  0
  3 10  4  0
  4  8  4  0
  4 18  4  0
  4 25  1  0
  5  9  4  0
  5 12  4  0
  6 13  1  0
  6 27  1  0
  7 28  4  0
  8 11  4  0
  9 29  4  0
 10 12  4  0
 11 24  1  0
 11 26  4  0
 12 25  1  0
 13 28  1  0
 14 20  4  0
 14 23  4  0
 15 17  4  0
 15 21  4  0
 16 19  4  0
 16 23  4  0
 17 22  4  0
 18 26  4  0
 19 24  4  0
 20 24  4  0
 22 27  4  0
 28 29  4  0
M  END
$$$$

 Created by Python create_sdf_string function

 29 33  0  0  0  0  0  0  0  0999 V2000
   10.7215   -3.3326   17.6437 C   0  0  0  0  0  0  0  0  0  0  0  0
    9.9489   -3.4675   24.6487 N   0  0  0  0  0  0  0  0  0  0  0  0
   10.0172   -4.4740   17.4101 C   0  0  0  0  0  0  0  0  0  0  0  0
    6.9051   -7.9575   16.4222 C   0  0  0  0  0  0  0  0  0  0  0  0
    8.9969   -6.3552   17.9668 N   0  0  0  0  0  0  0  0  0  0  0  0
   10.6702   -3.9051   22.4070 C   0  0  0  0  0  0  0  0  0  0  0  0
   11.0625   -3.0028   18.8894 C   0  0  0  0  0  0  0  0  0  0  0  0
    5.6180   -7.9194   16.1754 O   0  0  0  0  0  0  0  0  0  0  0  0
    9.7259   -5.3080   18.4485 C   0  0  0  0  0  0  0  0  0  0  0  0
    9.4578   -5.0200   16.3036 N   0  0  0  0  0  0  0  0  0  0  0  0
    5.0287   -8.9365   16.8223 C   0  0  0  0  0  0  0  0  0  0  0  0
    8.7742   -6.1498   16.6764 C   0  0  0  0  0  0  0  0  0  0  0  0
   10.9418   -3.4032   21.2053 O   0  0  0  0  0  0  0  0  0  0  0  0
    1.4797   -8.6258   16.2950 C   0  0  0  0  0  0  0  0  0  0  0  0
    9.2861   -1.2743   25.3585 C   0  0  0  0  0  0  0  0  0  0  0  0
    1.8892  -10.3985   17.7511 N   0  0  0  0  0  0  0  0  0  0  0  0
    9.6210   -0.6952   24.0976 C   0  0  0  0  0  0  0  0  0  0  0  0
    7.0792   -9.0217   17.1429 C   0  0  0  0  0  0  0  0  0  0  0  0
    3.1713  -10.1816   17.6634 C   0  0  0  0  0  0  0  0  0  0  0  0
    2.7878   -8.3822   16.2137 C   0  0  0  0  0  0  0  0  0  0  0  0
    9.4601   -2.6590   25.6528 C   0  0  0  0  0  0  0  0  0  0  0  0
   10.1182   -1.5672   23.1165 C   0  0  0  0  0  0  0  0  0  0  0  0
    1.0552   -9.6360   17.0650 C   0  0  0  0  0  0  0  0  0  0  0  0
    3.6519   -9.1783   16.9039 C   0  0  0  0  0  0  0  0  0  0  0  0
    7.8675   -7.0096   15.9415 C   0  0  0  0  0  0  0  0  0  0  0  0
    5.9733   -9.6553   17.3832 N   0  0  0  0  0  0  0  0  0  0  0  0
   10.2411   -2.9363   23.4301 C   0  0  0  0  0  0  0  0  0  0  0  0
   10.7288   -3.8197   19.9525 C   0  0  0  0  0  0  0  0  0  0  0  0
   10.1189   -5.0054   19.6987 C   0  0  0  0  0  0  0  0  0  0  0  0
  1  3  4  0
  1  7  4  0
  2 21  4  0
  2 27  4  0
  3  9  4  0
  3 10  4  0
  4  8  4  0
  4 18  4  0
  4 25  1  0
  5  9  4  0
  5 12  4  0
  6 13  1  0
  6 27  1  0
  7 28  4  0
  8 11  4  0
  9 29  4  0
 10 12  4  0
 11 24  1  0
 11 26  4  0
 12 25  1  0
 13 28  1  0
 14 20  4  0
 14 23  4  0
 15 17  4  0
 15 21  4  0
 16 19  4  0
 16 23  4  0
 17 22  4  0
 18 26  4  0
 19 24  4  0
 20 24  4  0
 22 27  4  0
 28 29  4  0
M  END
$$$$

 Created by Python create_sdf_string function

 29 33  0  0  0  0  0  0  0  0999 V2000
   10.7215   -3.3326   17.6437 C   0  0  0  0  0  0  0  0  0  0  0  0
    9.9489   -3.4675   24.6487 N   0  0  0  0  0  0  0  0  0  0  0  0
   10.0172   -4.4740   17.4101 C   0  0  0  0  0  0  0  0  0  0  0  0
    6.9051   -7.9575   16.4222 C   0  0  0  0  0  0  0  0  0  0  0  0
    8.9969   -6.3552   17.9668 N   0  0  0  0  0  0  0  0  0  0  0  0
   10.6702   -3.9051   22.4070 C   0  0  0  0  0  0  0  0  0  0  0  0
   11.0625   -3.0028   18.8894 C   0  0  0  0  0  0  0  0  0  0  0  0
    5.6180   -7.9194   16.1754 O   0  0  0  0  0  0  0  0  0  0  0  0
    9.7259   -5.3080   18.4485 C   0  0  0  0  0  0  0  0  0  0  0  0
    9.4578   -5.0200   16.3036 N   0  0  0  0  0  0  0  0  0  0  0  0
    5.0287   -8.9365   16.8223 C   0  0  0  0  0  0  0  0  0  0  0  0
    8.7742   -6.1498   16.6764 C   0  0  0  0  0  0  0  0  0  0  0  0
   10.9418   -3.4032   21.2053 O   0  0  0  0  0  0  0  0  0  0  0  0
    1.4797   -8.6258   16.2950 C   0  0  0  0  0  0  0  0  0  0  0  0
    9.2861   -1.2743   25.3585 C   0  0  0  0  0  0  0  0  0  0  0  0
    1.8892  -10.3985   17.7511 N   0  0  0  0  0  0  0  0  0  0  0  0
    9.6210   -0.6952   24.0976 C   0  0  0  0  0  0  0  0  0  0  0  0
    7.0792   -9.0217   17.1429 C   0  0  0  0  0  0  0  0  0  0  0  0
    3.1713  -10.1816   17.6634 C   0  0  0  0  0  0  0  0  0  0  0  0
    2.7878   -8.3822   16.2137 C   0  0  0  0  0  0  0  0  0  0  0  0
    9.4601   -2.6590   25.6528 C   0  0  0  0  0  0  0  0  0  0  0  0
   10.1182   -1.5672   23.1165 C   0  0  0  0  0  0  0  0  0  0  0  0
    1.0552   -9.6360   17.0650 C   0  0  0  0  0  0  0  0  0  0  0  0
    3.6519   -9.1783   16.9039 C   0  0  0  0  0  0  0  0  0  0  0  0
    7.8675   -7.0096   15.9415 C   0  0  0  0  0  0  0  0  0  0  0  0
    5.9733   -9.6553   17.3832 N   0  0  0  0  0  0  0  0  0  0  0  0
   10.2411   -2.9363   23.4301 C   0  0  0  0  0  0  0  0  0  0  0  0
   10.7288   -3.8197   19.9525 C   0  0  0  0  0  0  0  0  0  0  0  0
   10.1189   -5.0054   19.6987 C   0  0  0  0  0  0  0  0  0  0  0  0
  1  3  4  0
  1  7  4  0
  2 21  4  0
  2 27  4  0
  3  9  4  0
  3 10  4  0
  4  8  4  0
  4 18  4  0
  4 25  1  0
  5  9  4  0
  5 12  4  0
  6 13  1  0
  6 27  1  0
  7 28  4  0
  8 11  4  0
  9 29  4  0
 10 12  4  0
 11 24  1  0
 11 26  4  0
 12 25  1  0
 13 28  1  0
 14 20  4  0
 14 23  4  0
 15 17  4  0
 15 21  4  0
 16 19  4  0
 16 23  4  0
 17 22  4  0
 18 26  4  0
 19 24  4  0
 20 24  4  0
 22 27  4  0
 28 29  4  0
M  END
$$$$

 Created by Python create_sdf_string function

 29 33  0  0  0  0  0  0  0  0999 V2000
   10.7215   -3.3326   17.6437 C   0  0  0  0  0  0  0  0  0  0  0  0
    9.9489   -3.4675   24.6487 N   0  0  0  0  0  0  0  0  0  0  0  0
   10.0172   -4.4740   17.4101 C   0  0  0  0  0  0  0  0  0  0  0  0
    6.9051   -7.9575   16.4222 C   0  0  0  0  0  0  0  0  0  0  0  0
    8.9969   -6.3552   17.9668 N   0  0  0  0  0  0  0  0  0  0  0  0
   10.6702   -3.9051   22.4070 C   0  0  0  0  0  0  0  0  0  0  0  0
   11.0625   -3.0028   18.8894 C   0  0  0  0  0  0  0  0  0  0  0  0
    5.6180   -7.9194   16.1754 O   0  0  0  0  0  0  0  0  0  0  0  0
    9.7259   -5.3080   18.4485 C   0  0  0  0  0  0  0  0  0  0  0  0
    9.4578   -5.0200   16.3036 N   0  0  0  0  0  0  0  0  0  0  0  0
    5.0287   -8.9365   16.8223 C   0  0  0  0  0  0  0  0  0  0  0  0
    8.7742   -6.1498   16.6764 C   0  0  0  0  0  0  0  0  0  0  0  0
   10.9418   -3.4032   21.2053 O   0  0  0  0  0  0  0  0  0  0  0  0
    1.4797   -8.6258   16.2950 C   0  0  0  0  0  0  0  0  0  0  0  0
    9.2861   -1.2743   25.3585 C   0  0  0  0  0  0  0  0  0  0  0  0
    1.8892  -10.3985   17.7511 N   0  0  0  0  0  0  0  0  0  0  0  0
    9.6210   -0.6952   24.0976 C   0  0  0  0  0  0  0  0  0  0  0  0
    7.0792   -9.0217   17.1429 C   0  0  0  0  0  0  0  0  0  0  0  0
    3.1713  -10.1816   17.6634 C   0  0  0  0  0  0  0  0  0  0  0  0
    2.7878   -8.3822   16.2137 C   0  0  0  0  0  0  0  0  0  0  0  0
    9.4601   -2.6590   25.6528 C   0  0  0  0  0  0  0  0  0  0  0  0
   10.1182   -1.5672   23.1165 C   0  0  0  0  0  0  0  0  0  0  0  0
    1.0552   -9.6360   17.0650 C   0  0  0  0  0  0  0  0  0  0  0  0
    3.6519   -9.1783   16.9039 C   0  0  0  0  0  0  0  0  0  0  0  0
    7.8675   -7.0096   15.9415 C   0  0  0  0  0  0  0  0  0  0  0  0
    5.9733   -9.6553   17.3832 N   0  0  0  0  0  0  0  0  0  0  0  0
   10.2411   -2.9363   23.4301 C   0  0  0  0  0  0  0  0  0  0  0  0
   10.7288   -3.8197   19.9525 C   0  0  0  0  0  0  0  0  0  0  0  0
   10.1189   -5.0054   19.6987 C   0  0  0  0  0  0  0  0  0  0  0  0
  1  3  4  0
  1  7  4  0
  2 21  4  0
  2 27  4  0
  3  9  4  0
  3 10  4  0
  4  8  4  0
  4 18  4  0
  4 25  1  0
  5  9  4  0
  5 12  4  0
  6 13  1  0
  6 27  1  0
  7 28  4  0
  8 11  4  0
  9 29  4  0
 10 12  4  0
 11 24  1  0
 11 26  4  0
 12 25  1  0
 13 28  1  0
 14 20  4  0
 14 23  4  0
 15 17  4  0
 15 21  4  0
 16 19  4  0
 16 23  4  0
 17 22  4  0
 18 26  4  0
 19 24  4  0
 20 24  4  0
 22 27  4  0
 28 29  4  0
M  END
$$$$

 Created by Python create_sdf_string function

 29 33  0  0  0  0  0  0  0  0999 V2000
   10.7215   -3.3326   17.6437 C   0  0  0  0  0  0  0  0  0  0  0  0
    9.9489   -3.4675   24.6487 N   0  0  0  0  0  0  0  0  0  0  0  0
   10.0172   -4.4740   17.4101 C   0  0  0  0  0  0  0  0  0  0  0  0
    6.9051   -7.9575   16.4222 C   0  0  0  0  0  0  0  0  0  0  0  0
    8.9969   -6.3552   17.9668 N   0  0  0  0  0  0  0  0  0  0  0  0
   10.6702   -3.9051   22.4070 C   0  0  0  0  0  0  0  0  0  0  0  0
   11.0625   -3.0028   18.8894 C   0  0  0  0  0  0  0  0  0  0  0  0
    5.6180   -7.9194   16.1754 O   0  0  0  0  0  0  0  0  0  0  0  0
    9.7259   -5.3080   18.4485 C   0  0  0  0  0  0  0  0  0  0  0  0
    9.4578   -5.0200   16.3036 N   0  0  0  0  0  0  0  0  0  0  0  0
    5.0287   -8.9365   16.8223 C   0  0  0  0  0  0  0  0  0  0  0  0
    8.7742   -6.1498   16.6764 C   0  0  0  0  0  0  0  0  0  0  0  0
   10.9418   -3.4032   21.2053 O   0  0  0  0  0  0  0  0  0  0  0  0
    1.4797   -8.6258   16.2950 C   0  0  0  0  0  0  0  0  0  0  0  0
    9.2861   -1.2743   25.3585 C   0  0  0  0  0  0  0  0  0  0  0  0
    1.8892  -10.3985   17.7511 N   0  0  0  0  0  0  0  0  0  0  0  0
    9.6210   -0.6952   24.0976 C   0  0  0  0  0  0  0  0  0  0  0  0
    7.0792   -9.0217   17.1429 C   0  0  0  0  0  0  0  0  0  0  0  0
    3.1713  -10.1816   17.6634 C   0  0  0  0  0  0  0  0  0  0  0  0
    2.7878   -8.3822   16.2137 C   0  0  0  0  0  0  0  0  0  0  0  0
    9.4601   -2.6590   25.6528 C   0  0  0  0  0  0  0  0  0  0  0  0
   10.1182   -1.5672   23.1165 C   0  0  0  0  0  0  0  0  0  0  0  0
    1.0552   -9.6360   17.0650 C   0  0  0  0  0  0  0  0  0  0  0  0
    3.6519   -9.1783   16.9039 C   0  0  0  0  0  0  0  0  0  0  0  0
    7.8675   -7.0096   15.9415 C   0  0  0  0  0  0  0  0  0  0  0  0
    5.9733   -9.6553   17.3832 N   0  0  0  0  0  0  0  0  0  0  0  0
   10.2411   -2.9363   23.4301 C   0  0  0  0  0  0  0  0  0  0  0  0
   10.7288   -3.8197   19.9525 C   0  0  0  0  0  0  0  0  0  0  0  0
   10.1189   -5.0054   19.6987 C   0  0  0  0  0  0  0  0  0  0  0  0
  1  3  4  0
  1  7  4  0
  2 21  4  0
  2 27  4  0
  3  9  4  0
  3 10  4  0
  4  8  4  0
  4 18  4  0
  4 25  1  0
  5  9  4  0
  5 12  4  0
  6 13  1  0
  6 27  1  0
  7 28  4  0
  8 11  4  0
  9 29  4  0
 10 12  4  0
 11 24  1  0
 11 26  4  0
 12 25  1  0
 13 28  1  0
 14 20  4  0
 14 23  4  0
 15 17  4  0
 15 21  4  0
 16 19  4  0
 16 23  4  0
 17 22  4  0
 18 26  4  0
 19 24  4  0
 20 24  4  0
 22 27  4  0
 28 29  4  0
M  END
$$$$

 Created by Python create_sdf_string function

 29 33  0  0  0  0  0  0  0  0999 V2000
   10.7215   -3.3326   17.6437 C   0  0  0  0  0  0  0  0  0  0  0  0
    9.9489   -3.4675   24.6487 N   0  0  0  0  0  0  0  0  0  0  0  0
   10.0172   -4.4740   17.4101 C   0  0  0  0  0  0  0  0  0  0  0  0
    6.9051   -7.9575   16.4222 C   0  0  0  0  0  0  0  0  0  0  0  0
    8.9969   -6.3552   17.9668 N   0  0  0  0  0  0  0  0  0  0  0  0
   10.6702   -3.9051   22.4070 C   0  0  0  0  0  0  0  0  0  0  0  0
   11.0625   -3.0028   18.8894 C   0  0  0  0  0  0  0  0  0  0  0  0
    5.6180   -7.9194   16.1754 O   0  0  0  0  0  0  0  0  0  0  0  0
    9.7259   -5.3080   18.4485 C   0  0  0  0  0  0  0  0  0  0  0  0
    9.4578   -5.0200   16.3036 N   0  0  0  0  0  0  0  0  0  0  0  0
    5.0287   -8.9365   16.8223 C   0  0  0  0  0  0  0  0  0  0  0  0
    8.7742   -6.1498   16.6764 C   0  0  0  0  0  0  0  0  0  0  0  0
   10.9418   -3.4032   21.2053 O   0  0  0  0  0  0  0  0  0  0  0  0
    1.4797   -8.6258   16.2950 C   0  0  0  0  0  0  0  0  0  0  0  0
    9.2861   -1.2743   25.3585 C   0  0  0  0  0  0  0  0  0  0  0  0
    1.8892  -10.3985   17.7511 N   0  0  0  0  0  0  0  0  0  0  0  0
    9.6210   -0.6952   24.0976 C   0  0  0  0  0  0  0  0  0  0  0  0
    7.0792   -9.0217   17.1429 C   0  0  0  0  0  0  0  0  0  0  0  0
    3.1713  -10.1816   17.6634 C   0  0  0  0  0  0  0  0  0  0  0  0
    2.7878   -8.3822   16.2137 C   0  0  0  0  0  0  0  0  0  0  0  0
    9.4601   -2.6590   25.6528 C   0  0  0  0  0  0  0  0  0  0  0  0
   10.1182   -1.5672   23.1165 C   0  0  0  0  0  0  0  0  0  0  0  0
    1.0552   -9.6360   17.0650 C   0  0  0  0  0  0  0  0  0  0  0  0
    3.6519   -9.1783   16.9039 C   0  0  0  0  0  0  0  0  0  0  0  0
    7.8675   -7.0096   15.9415 C   0  0  0  0  0  0  0  0  0  0  0  0
    5.9733   -9.6553   17.3832 N   0  0  0  0  0  0  0  0  0  0  0  0
   10.2411   -2.9363   23.4301 C   0  0  0  0  0  0  0  0  0  0  0  0
   10.7288   -3.8197   19.9525 C   0  0  0  0  0  0  0  0  0  0  0  0
   10.1189   -5.0054   19.6987 C   0  0  0  0  0  0  0  0  0  0  0  0
  1  3  4  0
  1  7  4  0
  2 21  4  0
  2 27  4  0
  3  9  4  0
  3 10  4  0
  4  8  4  0
  4 18  4  0
  4 25  1  0
  5  9  4  0
  5 12  4  0
  6 13  1  0
  6 27  1  0
  7 28  4  0
  8 11  4  0
  9 29  4  0
 10 12  4  0
 11 24  1  0
 11 26  4  0
 12 25  1  0
 13 28  1  0
 14 20  4  0
 14 23  4  0
 15 17  4  0
 15 21  4  0
 16 19  4  0
 16 23  4  0
 17 22  4  0
 18 26  4  0
 19 24  4  0
 20 24  4  0
 22 27  4  0
 28 29  4  0
M  END
$$$$

 Created by Python create_sdf_string function

 29 33  0  0  0  0  0  0  0  0999 V2000
   10.7215   -3.3326   17.6437 C   0  0  0  0  0  0  0  0  0  0  0  0
    9.9489   -3.4675   24.6487 N   0  0  0  0  0  0  0  0  0  0  0  0
   10.0172   -4.4740   17.4101 C   0  0  0  0  0  0  0  0  0  0  0  0
    6.9051   -7.9575   16.4222 C   0  0  0  0  0  0  0  0  0  0  0  0
    8.9969   -6.3552   17.9668 N   0  0  0  0  0  0  0  0  0  0  0  0
   10.6702   -3.9051   22.4070 C   0  0  0  0  0  0  0  0  0  0  0  0
   11.0625   -3.0028   18.8894 C   0  0  0  0  0  0  0  0  0  0  0  0
    5.6180   -7.9194   16.1754 O   0  0  0  0  0  0  0  0  0  0  0  0
    9.7259   -5.3080   18.4485 C   0  0  0  0  0  0  0  0  0  0  0  0
    9.4578   -5.0200   16.3036 N   0  0  0  0  0  0  0  0  0  0  0  0
    5.0287   -8.9365   16.8223 C   0  0  0  0  0  0  0  0  0  0  0  0
    8.7742   -6.1498   16.6764 C   0  0  0  0  0  0  0  0  0  0  0  0
   10.9418   -3.4032   21.2053 O   0  0  0  0  0  0  0  0  0  0  0  0
    1.4797   -8.6258   16.2950 C   0  0  0  0  0  0  0  0  0  0  0  0
    9.2861   -1.2743   25.3585 C   0  0  0  0  0  0  0  0  0  0  0  0
    1.8892  -10.3985   17.7511 N   0  0  0  0  0  0  0  0  0  0  0  0
    9.6210   -0.6952   24.0976 C   0  0  0  0  0  0  0  0  0  0  0  0
    7.0792   -9.0217   17.1429 C   0  0  0  0  0  0  0  0  0  0  0  0
    3.1713  -10.1816   17.6634 C   0  0  0  0  0  0  0  0  0  0  0  0
    2.7878   -8.3822   16.2137 C   0  0  0  0  0  0  0  0  0  0  0  0
    9.4601   -2.6590   25.6528 C   0  0  0  0  0  0  0  0  0  0  0  0
   10.1182   -1.5672   23.1165 C   0  0  0  0  0  0  0  0  0  0  0  0
    1.0552   -9.6360   17.0650 C   0  0  0  0  0  0  0  0  0  0  0  0
    3.6519   -9.1783   16.9039 C   0  0  0  0  0  0  0  0  0  0  0  0
    7.8675   -7.0096   15.9415 C   0  0  0  0  0  0  0  0  0  0  0  0
    5.9733   -9.6553   17.3832 N   0  0  0  0  0  0  0  0  0  0  0  0
   10.2411   -2.9363   23.4301 C   0  0  0  0  0  0  0  0  0  0  0  0
   10.7288   -3.8197   19.9525 C   0  0  0  0  0  0  0  0  0  0  0  0
   10.1189   -5.0054   19.6987 C   0  0  0  0  0  0  0  0  0  0  0  0
  1  3  4  0
  1  7  4  0
  2 21  4  0
  2 27  4  0
  3  9  4  0
  3 10  4  0
  4  8  4  0
  4 18  4  0
  4 25  1  0
  5  9  4  0
  5 12  4  0
  6 13  1  0
  6 27  1  0
  7 28  4  0
  8 11  4  0
  9 29  4  0
 10 12  4  0
 11 24  1  0
 11 26  4  0
 12 25  1  0
 13 28  1  0
 14 20  4  0
 14 23  4  0
 15 17  4  0
 15 21  4  0
 16 19  4  0
 16 23  4  0
 17 22  4  0
 18 26  4  0
 19 24  4  0
 20 24  4  0
 22 27  4  0
 28 29  4  0
M  END
$$$$

 Created by Python create_sdf_string function

 29 33  0  0  0  0  0  0  0  0999 V2000
   10.7215   -3.3326   17.6437 C   0  0  0  0  0  0  0  0  0  0  0  0
    9.9489   -3.4675   24.6487 N   0  0  0  0  0  0  0  0  0  0  0  0
   10.0172   -4.4740   17.4101 C   0  0  0  0  0  0  0  0  0  0  0  0
    6.9051   -7.9575   16.4222 C   0  0  0  0  0  0  0  0  0  0  0  0
    8.9969   -6.3552   17.9668 N   0  0  0  0  0  0  0  0  0  0  0  0
   10.6702   -3.9051   22.4070 C   0  0  0  0  0  0  0  0  0  0  0  0
   11.0625   -3.0028   18.8894 C   0  0  0  0  0  0  0  0  0  0  0  0
    5.6180   -7.9194   16.1754 O   0  0  0  0  0  0  0  0  0  0  0  0
    9.7259   -5.3080   18.4485 C   0  0  0  0  0  0  0  0  0  0  0  0
    9.4578   -5.0200   16.3036 N   0  0  0  0  0  0  0  0  0  0  0  0
    5.0287   -8.9365   16.8223 C   0  0  0  0  0  0  0  0  0  0  0  0
    8.7742   -6.1498   16.6764 C   0  0  0  0  0  0  0  0  0  0  0  0
   10.9418   -3.4032   21.2053 O   0  0  0  0  0  0  0  0  0  0  0  0
    1.4797   -8.6258   16.2950 C   0  0  0  0  0  0  0  0  0  0  0  0
    9.2861   -1.2743   25.3585 C   0  0  0  0  0  0  0  0  0  0  0  0
    1.8892  -10.3985   17.7511 N   0  0  0  0  0  0  0  0  0  0  0  0
    9.6210   -0.6952   24.0976 C   0  0  0  0  0  0  0  0  0  0  0  0
    7.0792   -9.0217   17.1429 C   0  0  0  0  0  0  0  0  0  0  0  0
    3.1713  -10.1816   17.6634 C   0  0  0  0  0  0  0  0  0  0  0  0
    2.7878   -8.3822   16.2137 C   0  0  0  0  0  0  0  0  0  0  0  0
    9.4601   -2.6590   25.6528 C   0  0  0  0  0  0  0  0  0  0  0  0
   10.1182   -1.5672   23.1165 C   0  0  0  0  0  0  0  0  0  0  0  0
    1.0552   -9.6360   17.0650 C   0  0  0  0  0  0  0  0  0  0  0  0
    3.6519   -9.1783   16.9039 C   0  0  0  0  0  0  0  0  0  0  0  0
    7.8675   -7.0096   15.9415 C   0  0  0  0  0  0  0  0  0  0  0  0
    5.9733   -9.6553   17.3832 N   0  0  0  0  0  0  0  0  0  0  0  0
   10.2411   -2.9363   23.4301 C   0  0  0  0  0  0  0  0  0  0  0  0
   10.7288   -3.8197   19.9525 C   0  0  0  0  0  0  0  0  0  0  0  0
   10.1189   -5.0054   19.6987 C   0  0  0  0  0  0  0  0  0  0  0  0
  1  3  4  0
  1  7  4  0
  2 21  4  0
  2 27  4  0
  3  9  4  0
  3 10  4  0
  4  8  4  0
  4 18  4  0
  4 25  1  0
  5  9  4  0
  5 12  4  0
  6 13  1  0
  6 27  1  0
  7 28  4  0
  8 11  4  0
  9 29  4  0
 10 12  4  0
 11 24  1  0
 11 26  4  0
 12 25  1  0
 13 28  1  0
 14 20  4  0
 14 23  4  0
 15 17  4  0
 15 21  4  0
 16 19  4  0
 16 23  4  0
 17 22  4  0
 18 26  4  0
 19 24  4  0
 20 24  4  0
 22 27  4  0
 28 29  4  0
M  END
$$$$

 Created by Python create_sdf_string function

 29 33  0  0  0  0  0  0  0  0999 V2000
   10.7215   -3.3326   17.6437 C   0  0  0  0  0  0  0  0  0  0  0  0
    9.9489   -3.4675   24.6487 N   0  0  0  0  0  0  0  0  0  0  0  0
   10.0172   -4.4740   17.4101 C   0  0  0  0  0  0  0  0  0  0  0  0
    6.9051   -7.9575   16.4222 C   0  0  0  0  0  0  0  0  0  0  0  0
    8.9969   -6.3552   17.9668 N   0  0  0  0  0  0  0  0  0  0  0  0
   10.6702   -3.9051   22.4070 C   0  0  0  0  0  0  0  0  0  0  0  0
   11.0625   -3.0028   18.8894 C   0  0  0  0  0  0  0  0  0  0  0  0
    5.6180   -7.9194   16.1754 O   0  0  0  0  0  0  0  0  0  0  0  0
    9.7259   -5.3080   18.4485 C   0  0  0  0  0  0  0  0  0  0  0  0
    9.4578   -5.0200   16.3036 N   0  0  0  0  0  0  0  0  0  0  0  0
    5.0287   -8.9365   16.8223 C   0  0  0  0  0  0  0  0  0  0  0  0
    8.7742   -6.1498   16.6764 C   0  0  0  0  0  0  0  0  0  0  0  0
   10.9418   -3.4032   21.2053 O   0  0  0  0  0  0  0  0  0  0  0  0
    1.4797   -8.6258   16.2950 C   0  0  0  0  0  0  0  0  0  0  0  0
    9.2861   -1.2743   25.3585 C   0  0  0  0  0  0  0  0  0  0  0  0
    1.8892  -10.3985   17.7511 N   0  0  0  0  0  0  0  0  0  0  0  0
    9.6210   -0.6952   24.0976 C   0  0  0  0  0  0  0  0  0  0  0  0
    7.0792   -9.0217   17.1429 C   0  0  0  0  0  0  0  0  0  0  0  0
    3.1713  -10.1816   17.6634 C   0  0  0  0  0  0  0  0  0  0  0  0
    2.7878   -8.3822   16.2137 C   0  0  0  0  0  0  0  0  0  0  0  0
    9.4601   -2.6590   25.6528 C   0  0  0  0  0  0  0  0  0  0  0  0
   10.1182   -1.5672   23.1165 C   0  0  0  0  0  0  0  0  0  0  0  0
    1.0552   -9.6360   17.0650 C   0  0  0  0  0  0  0  0  0  0  0  0
    3.6519   -9.1783   16.9039 C   0  0  0  0  0  0  0  0  0  0  0  0
    7.8675   -7.0096   15.9415 C   0  0  0  0  0  0  0  0  0  0  0  0
    5.9733   -9.6553   17.3832 N   0  0  0  0  0  0  0  0  0  0  0  0
   10.2411   -2.9363   23.4301 C   0  0  0  0  0  0  0  0  0  0  0  0
   10.7288   -3.8197   19.9525 C   0  0  0  0  0  0  0  0  0  0  0  0
   10.1189   -5.0054   19.6987 C   0  0  0  0  0  0  0  0  0  0  0  0
  1  3  4  0
  1  7  4  0
  2 21  4  0
  2 27  4  0
  3  9  4  0
  3 10  4  0
  4  8  4  0
  4 18  4  0
  4 25  1  0
  5  9  4  0
  5 12  4  0
  6 13  1  0
  6 27  1  0
  7 28  4  0
  8 11  4  0
  9 29  4  0
 10 12  4  0
 11 24  1  0
 11 26  4  0
 12 25  1  0
 13 28  1  0
 14 20  4  0
 14 23  4  0
 15 17  4  0
 15 21  4  0
 16 19  4  0
 16 23  4  0
 17 22  4  0
 18 26  4  0
 19 24  4  0
 20 24  4  0
 22 27  4  0
 28 29  4  0
M  END
$$$$

 Created by Python create_sdf_string function

 29 33  0  0  0  0  0  0  0  0999 V2000
   10.7215   -3.3326   17.6437 C   0  0  0  0  0  0  0  0  0  0  0  0
    9.9489   -3.4675   24.6487 N   0  0  0  0  0  0  0  0  0  0  0  0
   10.0172   -4.4740   17.4101 C   0  0  0  0  0  0  0  0  0  0  0  0
    6.9051   -7.9575   16.4222 C   0  0  0  0  0  0  0  0  0  0  0  0
    8.9969   -6.3552   17.9668 N   0  0  0  0  0  0  0  0  0  0  0  0
   10.6702   -3.9051   22.4070 C   0  0  0  0  0  0  0  0  0  0  0  0
   11.0625   -3.0028   18.8894 C   0  0  0  0  0  0  0  0  0  0  0  0
    5.6180   -7.9194   16.1754 O   0  0  0  0  0  0  0  0  0  0  0  0
    9.7259   -5.3080   18.4485 C   0  0  0  0  0  0  0  0  0  0  0  0
    9.4578   -5.0200   16.3036 N   0  0  0  0  0  0  0  0  0  0  0  0
    5.0287   -8.9365   16.8223 C   0  0  0  0  0  0  0  0  0  0  0  0
    8.7742   -6.1498   16.6764 C   0  0  0  0  0  0  0  0  0  0  0  0
   10.9418   -3.4032   21.2053 O   0  0  0  0  0  0  0  0  0  0  0  0
    1.4797   -8.6258   16.2950 C   0  0  0  0  0  0  0  0  0  0  0  0
    9.2861   -1.2743   25.3585 C   0  0  0  0  0  0  0  0  0  0  0  0
    1.8892  -10.3985   17.7511 N   0  0  0  0  0  0  0  0  0  0  0  0
    9.6210   -0.6952   24.0976 C   0  0  0  0  0  0  0  0  0  0  0  0
    7.0792   -9.0217   17.1429 C   0  0  0  0  0  0  0  0  0  0  0  0
    3.1713  -10.1816   17.6634 C   0  0  0  0  0  0  0  0  0  0  0  0
    2.7878   -8.3822   16.2137 C   0  0  0  0  0  0  0  0  0  0  0  0
    9.4601   -2.6590   25.6528 C   0  0  0  0  0  0  0  0  0  0  0  0
   10.1182   -1.5672   23.1165 C   0  0  0  0  0  0  0  0  0  0  0  0
    1.0552   -9.6360   17.0650 C   0  0  0  0  0  0  0  0  0  0  0  0
    3.6519   -9.1783   16.9039 C   0  0  0  0  0  0  0  0  0  0  0  0
    7.8675   -7.0096   15.9415 C   0  0  0  0  0  0  0  0  0  0  0  0
    5.9733   -9.6553   17.3832 N   0  0  0  0  0  0  0  0  0  0  0  0
   10.2411   -2.9363   23.4301 C   0  0  0  0  0  0  0  0  0  0  0  0
   10.7288   -3.8197   19.9525 C   0  0  0  0  0  0  0  0  0  0  0  0
   10.1189   -5.0054   19.6987 C   0  0  0  0  0  0  0  0  0  0  0  0
  1  3  4  0
  1  7  4  0
  2 21  4  0
  2 27  4  0
  3  9  4  0
  3 10  4  0
  4  8  4  0
  4 18  4  0
  4 25  1  0
  5  9  4  0
  5 12  4  0
  6 13  1  0
  6 27  1  0
  7 28  4  0
  8 11  4  0
  9 29  4  0
 10 12  4  0
 11 24  1  0
 11 26  4  0
 12 25  1  0
 13 28  1  0
 14 20  4  0
 14 23  4  0
 15 17  4  0
 15 21  4  0
 16 19  4  0
 16 23  4  0
 17 22  4  0
 18 26  4  0
 19 24  4  0
 20 24  4  0
 22 27  4  0
 28 29  4  0
M  END
$$$$

 Created by Python create_sdf_string function

 29 33  0  0  0  0  0  0  0  0999 V2000
   10.7215   -3.3326   17.6437 C   0  0  0  0  0  0  0  0  0  0  0  0
    9.9489   -3.4675   24.6487 N   0  0  0  0  0  0  0  0  0  0  0  0
   10.0172   -4.4740   17.4101 C   0  0  0  0  0  0  0  0  0  0  0  0
    6.9051   -7.9575   16.4222 C   0  0  0  0  0  0  0  0  0  0  0  0
    8.9969   -6.3552   17.9668 N   0  0  0  0  0  0  0  0  0  0  0  0
   10.6702   -3.9051   22.4070 C   0  0  0  0  0  0  0  0  0  0  0  0
   11.0625   -3.0028   18.8894 C   0  0  0  0  0  0  0  0  0  0  0  0
    5.6180   -7.9194   16.1754 O   0  0  0  0  0  0  0  0  0  0  0  0
    9.7259   -5.3080   18.4485 C   0  0  0  0  0  0  0  0  0  0  0  0
    9.4578   -5.0200   16.3036 N   0  0  0  0  0  0  0  0  0  0  0  0
    5.0287   -8.9365   16.8223 C   0  0  0  0  0  0  0  0  0  0  0  0
    8.7742   -6.1498   16.6764 C   0  0  0  0  0  0  0  0  0  0  0  0
   10.9418   -3.4032   21.2053 O   0  0  0  0  0  0  0  0  0  0  0  0
    1.4797   -8.6258   16.2950 C   0  0  0  0  0  0  0  0  0  0  0  0
    9.2861   -1.2743   25.3585 C   0  0  0  0  0  0  0  0  0  0  0  0
    1.8892  -10.3985   17.7511 N   0  0  0  0  0  0  0  0  0  0  0  0
    9.6210   -0.6952   24.0976 C   0  0  0  0  0  0  0  0  0  0  0  0
    7.0792   -9.0217   17.1429 C   0  0  0  0  0  0  0  0  0  0  0  0
    3.1713  -10.1816   17.6634 C   0  0  0  0  0  0  0  0  0  0  0  0
    2.7878   -8.3822   16.2137 C   0  0  0  0  0  0  0  0  0  0  0  0
    9.4601   -2.6590   25.6528 C   0  0  0  0  0  0  0  0  0  0  0  0
   10.1182   -1.5672   23.1165 C   0  0  0  0  0  0  0  0  0  0  0  0
    1.0552   -9.6360   17.0650 C   0  0  0  0  0  0  0  0  0  0  0  0
    3.6519   -9.1783   16.9039 C   0  0  0  0  0  0  0  0  0  0  0  0
    7.8675   -7.0096   15.9415 C   0  0  0  0  0  0  0  0  0  0  0  0
    5.9733   -9.6553   17.3832 N   0  0  0  0  0  0  0  0  0  0  0  0
   10.2411   -2.9363   23.4301 C   0  0  0  0  0  0  0  0  0  0  0  0
   10.7288   -3.8197   19.9525 C   0  0  0  0  0  0  0  0  0  0  0  0
   10.1189   -5.0054   19.6987 C   0  0  0  0  0  0  0  0  0  0  0  0
  1  3  4  0
  1  7  4  0
  2 21  4  0
  2 27  4  0
  3  9  4  0
  3 10  4  0
  4  8  4  0
  4 18  4  0
  4 25  1  0
  5  9  4  0
  5 12  4  0
  6 13  1  0
  6 27  1  0
  7 28  4  0
  8 11  4  0
  9 29  4  0
 10 12  4  0
 11 24  1  0
 11 26  4  0
 12 25  1  0
 13 28  1  0
 14 20  4  0
 14 23  4  0
 15 17  4  0
 15 21  4  0
 16 19  4  0
 16 23  4  0
 17 22  4  0
 18 26  4  0
 19 24  4  0
 20 24  4  0
 22 27  4  0
 28 29  4  0
M  END
$$$$

 Created by Python create_sdf_string function

 29 33  0  0  0  0  0  0  0  0999 V2000
   10.7215   -3.3326   17.6437 C   0  0  0  0  0  0  0  0  0  0  0  0
    9.9489   -3.4675   24.6487 N   0  0  0  0  0  0  0  0  0  0  0  0
   10.0172   -4.4740   17.4101 C   0  0  0  0  0  0  0  0  0  0  0  0
    6.9051   -7.9575   16.4222 C   0  0  0  0  0  0  0  0  0  0  0  0
    8.9969   -6.3552   17.9668 N   0  0  0  0  0  0  0  0  0  0  0  0
   10.6702   -3.9051   22.4070 C   0  0  0  0  0  0  0  0  0  0  0  0
   11.0625   -3.0028   18.8894 C   0  0  0  0  0  0  0  0  0  0  0  0
    5.6180   -7.9194   16.1754 O   0  0  0  0  0  0  0  0  0  0  0  0
    9.7259   -5.3080   18.4485 C   0  0  0  0  0  0  0  0  0  0  0  0
    9.4578   -5.0200   16.3036 N   0  0  0  0  0  0  0  0  0  0  0  0
    5.0287   -8.9365   16.8223 C   0  0  0  0  0  0  0  0  0  0  0  0
    8.7742   -6.1498   16.6764 C   0  0  0  0  0  0  0  0  0  0  0  0
   10.9418   -3.4032   21.2053 O   0  0  0  0  0  0  0  0  0  0  0  0
    1.4797   -8.6258   16.2950 C   0  0  0  0  0  0  0  0  0  0  0  0
    9.2861   -1.2743   25.3585 C   0  0  0  0  0  0  0  0  0  0  0  0
    1.8892  -10.3985   17.7511 N   0  0  0  0  0  0  0  0  0  0  0  0
    9.6210   -0.6952   24.0976 C   0  0  0  0  0  0  0  0  0  0  0  0
    7.0792   -9.0217   17.1429 C   0  0  0  0  0  0  0  0  0  0  0  0
    3.1713  -10.1816   17.6634 C   0  0  0  0  0  0  0  0  0  0  0  0
    2.7878   -8.3822   16.2137 C   0  0  0  0  0  0  0  0  0  0  0  0
    9.4601   -2.6590   25.6528 C   0  0  0  0  0  0  0  0  0  0  0  0
   10.1182   -1.5672   23.1165 C   0  0  0  0  0  0  0  0  0  0  0  0
    1.0552   -9.6360   17.0650 C   0  0  0  0  0  0  0  0  0  0  0  0
    3.6519   -9.1783   16.9039 C   0  0  0  0  0  0  0  0  0  0  0  0
    7.8675   -7.0096   15.9415 C   0  0  0  0  0  0  0  0  0  0  0  0
    5.9733   -9.6553   17.3832 N   0  0  0  0  0  0  0  0  0  0  0  0
   10.2411   -2.9363   23.4301 C   0  0  0  0  0  0  0  0  0  0  0  0
   10.7288   -3.8197   19.9525 C   0  0  0  0  0  0  0  0  0  0  0  0
   10.1189   -5.0054   19.6987 C   0  0  0  0  0  0  0  0  0  0  0  0
  1  3  4  0
  1  7  4  0
  2 21  4  0
  2 27  4  0
  3  9  4  0
  3 10  4  0
  4  8  4  0
  4 18  4  0
  4 25  1  0
  5  9  4  0
  5 12  4  0
  6 13  1  0
  6 27  1  0
  7 28  4  0
  8 11  4  0
  9 29  4  0
 10 12  4  0
 11 24  1  0
 11 26  4  0
 12 25  1  0
 13 28  1  0
 14 20  4  0
 14 23  4  0
 15 17  4  0
 15 21  4  0
 16 19  4  0
 16 23  4  0
 17 22  4  0
 18 26  4  0
 19 24  4  0
 20 24  4  0
 22 27  4  0
 28 29  4  0
M  END
$$$$

 Created by Python create_sdf_string function

 29 33  0  0  0  0  0  0  0  0999 V2000
   10.7215   -3.3326   17.6437 C   0  0  0  0  0  0  0  0  0  0  0  0
    9.9489   -3.4675   24.6487 N   0  0  0  0  0  0  0  0  0  0  0  0
   10.0172   -4.4740   17.4101 C   0  0  0  0  0  0  0  0  0  0  0  0
    6.9051   -7.9575   16.4222 C   0  0  0  0  0  0  0  0  0  0  0  0
    8.9969   -6.3552   17.9668 N   0  0  0  0  0  0  0  0  0  0  0  0
   10.6702   -3.9051   22.4070 C   0  0  0  0  0  0  0  0  0  0  0  0
   11.0625   -3.0028   18.8894 C   0  0  0  0  0  0  0  0  0  0  0  0
    5.6180   -7.9194   16.1754 O   0  0  0  0  0  0  0  0  0  0  0  0
    9.7259   -5.3080   18.4485 C   0  0  0  0  0  0  0  0  0  0  0  0
    9.4578   -5.0200   16.3036 N   0  0  0  0  0  0  0  0  0  0  0  0
    5.0287   -8.9365   16.8223 C   0  0  0  0  0  0  0  0  0  0  0  0
    8.7742   -6.1498   16.6764 C   0  0  0  0  0  0  0  0  0  0  0  0
   10.9418   -3.4032   21.2053 O   0  0  0  0  0  0  0  0  0  0  0  0
    1.4797   -8.6258   16.2950 C   0  0  0  0  0  0  0  0  0  0  0  0
    9.2861   -1.2743   25.3585 C   0  0  0  0  0  0  0  0  0  0  0  0
    1.8892  -10.3985   17.7511 N   0  0  0  0  0  0  0  0  0  0  0  0
    9.6210   -0.6952   24.0976 C   0  0  0  0  0  0  0  0  0  0  0  0
    7.0792   -9.0217   17.1429 C   0  0  0  0  0  0  0  0  0  0  0  0
    3.1713  -10.1816   17.6634 C   0  0  0  0  0  0  0  0  0  0  0  0
    2.7878   -8.3822   16.2137 C   0  0  0  0  0  0  0  0  0  0  0  0
    9.4601   -2.6590   25.6528 C   0  0  0  0  0  0  0  0  0  0  0  0
   10.1182   -1.5672   23.1165 C   0  0  0  0  0  0  0  0  0  0  0  0
    1.0552   -9.6360   17.0650 C   0  0  0  0  0  0  0  0  0  0  0  0
    3.6519   -9.1783   16.9039 C   0  0  0  0  0  0  0  0  0  0  0  0
    7.8675   -7.0096   15.9415 C   0  0  0  0  0  0  0  0  0  0  0  0
    5.9733   -9.6553   17.3832 N   0  0  0  0  0  0  0  0  0  0  0  0
   10.2411   -2.9363   23.4301 C   0  0  0  0  0  0  0  0  0  0  0  0
   10.7288   -3.8197   19.9525 C   0  0  0  0  0  0  0  0  0  0  0  0
   10.1189   -5.0054   19.6987 C   0  0  0  0  0  0  0  0  0  0  0  0
  1  3  4  0
  1  7  4  0
  2 21  4  0
  2 27  4  0
  3  9  4  0
  3 10  4  0
  4  8  4  0
  4 18  4  0
  4 25  1  0
  5  9  4  0
  5 12  4  0
  6 13  1  0
  6 27  1  0
  7 28  4  0
  8 11  4  0
  9 29  4  0
 10 12  4  0
 11 24  1  0
 11 26  4  0
 12 25  1  0
 13 28  1  0
 14 20  4  0
 14 23  4  0
 15 17  4  0
 15 21  4  0
 16 19  4  0
 16 23  4  0
 17 22  4  0
 18 26  4  0
 19 24  4  0
 20 24  4  0
 22 27  4  0
 28 29  4  0
M  END
$$$$

 Created by Python create_sdf_string function

 29 33  0  0  0  0  0  0  0  0999 V2000
   10.7215   -3.3326   17.6437 C   0  0  0  0  0  0  0  0  0  0  0  0
    9.9489   -3.4675   24.6487 N   0  0  0  0  0  0  0  0  0  0  0  0
   10.0172   -4.4740   17.4101 C   0  0  0  0  0  0  0  0  0  0  0  0
    6.9051   -7.9575   16.4222 C   0  0  0  0  0  0  0  0  0  0  0  0
    8.9969   -6.3552   17.9668 N   0  0  0  0  0  0  0  0  0  0  0  0
   10.6702   -3.9051   22.4070 C   0  0  0  0  0  0  0  0  0  0  0  0
   11.0625   -3.0028   18.8894 C   0  0  0  0  0  0  0  0  0  0  0  0
    5.6180   -7.9194   16.1754 O   0  0  0  0  0  0  0  0  0  0  0  0
    9.7259   -5.3080   18.4485 C   0  0  0  0  0  0  0  0  0  0  0  0
    9.4578   -5.0200   16.3036 N   0  0  0  0  0  0  0  0  0  0  0  0
    5.0287   -8.9365   16.8223 C   0  0  0  0  0  0  0  0  0  0  0  0
    8.7742   -6.1498   16.6764 C   0  0  0  0  0  0  0  0  0  0  0  0
   10.9418   -3.4032   21.2053 O   0  0  0  0  0  0  0  0  0  0  0  0
    1.4797   -8.6258   16.2950 C   0  0  0  0  0  0  0  0  0  0  0  0
    9.2861   -1.2743   25.3585 C   0  0  0  0  0  0  0  0  0  0  0  0
    1.8892  -10.3985   17.7511 N   0  0  0  0  0  0  0  0  0  0  0  0
    9.6210   -0.6952   24.0976 C   0  0  0  0  0  0  0  0  0  0  0  0
    7.0792   -9.0217   17.1429 C   0  0  0  0  0  0  0  0  0  0  0  0
    3.1713  -10.1816   17.6634 C   0  0  0  0  0  0  0  0  0  0  0  0
    2.7878   -8.3822   16.2137 C   0  0  0  0  0  0  0  0  0  0  0  0
    9.4601   -2.6590   25.6528 C   0  0  0  0  0  0  0  0  0  0  0  0
   10.1182   -1.5672   23.1165 C   0  0  0  0  0  0  0  0  0  0  0  0
    1.0552   -9.6360   17.0650 C   0  0  0  0  0  0  0  0  0  0  0  0
    3.6519   -9.1783   16.9039 C   0  0  0  0  0  0  0  0  0  0  0  0
    7.8675   -7.0096   15.9415 C   0  0  0  0  0  0  0  0  0  0  0  0
    5.9733   -9.6553   17.3832 N   0  0  0  0  0  0  0  0  0  0  0  0
   10.2411   -2.9363   23.4301 C   0  0  0  0  0  0  0  0  0  0  0  0
   10.7288   -3.8197   19.9525 C   0  0  0  0  0  0  0  0  0  0  0  0
   10.1189   -5.0054   19.6987 C   0  0  0  0  0  0  0  0  0  0  0  0
  1  3  4  0
  1  7  4  0
  2 21  4  0
  2 27  4  0
  3  9  4  0
  3 10  4  0
  4  8  4  0
  4 18  4  0
  4 25  1  0
  5  9  4  0
  5 12  4  0
  6 13  1  0
  6 27  1  0
  7 28  4  0
  8 11  4  0
  9 29  4  0
 10 12  4  0
 11 24  1  0
 11 26  4  0
 12 25  1  0
 13 28  1  0
 14 20  4  0
 14 23  4  0
 15 17  4  0
 15 21  4  0
 16 19  4  0
 16 23  4  0
 17 22  4  0
 18 26  4  0
 19 24  4  0
 20 24  4  0
 22 27  4  0
 28 29  4  0
M  END
$$$$

 Created by Python create_sdf_string function

 29 33  0  0  0  0  0  0  0  0999 V2000
   10.7215   -3.3326   17.6437 C   0  0  0  0  0  0  0  0  0  0  0  0
    9.9489   -3.4675   24.6487 N   0  0  0  0  0  0  0  0  0  0  0  0
   10.0172   -4.4740   17.4101 C   0  0  0  0  0  0  0  0  0  0  0  0
    6.9051   -7.9575   16.4222 C   0  0  0  0  0  0  0  0  0  0  0  0
    8.9969   -6.3552   17.9668 N   0  0  0  0  0  0  0  0  0  0  0  0
   10.6702   -3.9051   22.4070 C   0  0  0  0  0  0  0  0  0  0  0  0
   11.0625   -3.0028   18.8894 C   0  0  0  0  0  0  0  0  0  0  0  0
    5.6180   -7.9194   16.1754 O   0  0  0  0  0  0  0  0  0  0  0  0
    9.7259   -5.3080   18.4485 C   0  0  0  0  0  0  0  0  0  0  0  0
    9.4578   -5.0200   16.3036 N   0  0  0  0  0  0  0  0  0  0  0  0
    5.0287   -8.9365   16.8223 C   0  0  0  0  0  0  0  0  0  0  0  0
    8.7742   -6.1498   16.6764 C   0  0  0  0  0  0  0  0  0  0  0  0
   10.9418   -3.4032   21.2053 O   0  0  0  0  0  0  0  0  0  0  0  0
    1.4797   -8.6258   16.2950 C   0  0  0  0  0  0  0  0  0  0  0  0
    9.2861   -1.2743   25.3585 C   0  0  0  0  0  0  0  0  0  0  0  0
    1.8892  -10.3985   17.7511 N   0  0  0  0  0  0  0  0  0  0  0  0
    9.6210   -0.6952   24.0976 C   0  0  0  0  0  0  0  0  0  0  0  0
    7.0792   -9.0217   17.1429 C   0  0  0  0  0  0  0  0  0  0  0  0
    3.1713  -10.1816   17.6634 C   0  0  0  0  0  0  0  0  0  0  0  0
    2.7878   -8.3822   16.2137 C   0  0  0  0  0  0  0  0  0  0  0  0
    9.4601   -2.6590   25.6528 C   0  0  0  0  0  0  0  0  0  0  0  0
   10.1182   -1.5672   23.1165 C   0  0  0  0  0  0  0  0  0  0  0  0
    1.0552   -9.6360   17.0650 C   0  0  0  0  0  0  0  0  0  0  0  0
    3.6519   -9.1783   16.9039 C   0  0  0  0  0  0  0  0  0  0  0  0
    7.8675   -7.0096   15.9415 C   0  0  0  0  0  0  0  0  0  0  0  0
    5.9733   -9.6553   17.3832 N   0  0  0  0  0  0  0  0  0  0  0  0
   10.2411   -2.9363   23.4301 C   0  0  0  0  0  0  0  0  0  0  0  0
   10.7288   -3.8197   19.9525 C   0  0  0  0  0  0  0  0  0  0  0  0
   10.1189   -5.0054   19.6987 C   0  0  0  0  0  0  0  0  0  0  0  0
  1  3  4  0
  1  7  4  0
  2 21  4  0
  2 27  4  0
  3  9  4  0
  3 10  4  0
  4  8  4  0
  4 18  4  0
  4 25  1  0
  5  9  4  0
  5 12  4  0
  6 13  1  0
  6 27  1  0
  7 28  4  0
  8 11  4  0
  9 29  4  0
 10 12  4  0
 11 24  1  0
 11 26  4  0
 12 25  1  0
 13 28  1  0
 14 20  4  0
 14 23  4  0
 15 17  4  0
 15 21  4  0
 16 19  4  0
 16 23  4  0
 17 22  4  0
 18 26  4  0
 19 24  4  0
 20 24  4  0
 22 27  4  0
 28 29  4  0
M  END
$$$$

 Created by Python create_sdf_string function

 29 33  0  0  0  0  0  0  0  0999 V2000
   10.7215   -3.3326   17.6437 C   0  0  0  0  0  0  0  0  0  0  0  0
    9.9489   -3.4675   24.6487 N   0  0  0  0  0  0  0  0  0  0  0  0
   10.0172   -4.4740   17.4101 C   0  0  0  0  0  0  0  0  0  0  0  0
    6.9051   -7.9575   16.4222 C   0  0  0  0  0  0  0  0  0  0  0  0
    8.9969   -6.3552   17.9668 N   0  0  0  0  0  0  0  0  0  0  0  0
   10.6702   -3.9051   22.4070 C   0  0  0  0  0  0  0  0  0  0  0  0
   11.0625   -3.0028   18.8894 C   0  0  0  0  0  0  0  0  0  0  0  0
    5.6180   -7.9194   16.1754 O   0  0  0  0  0  0  0  0  0  0  0  0
    9.7259   -5.3080   18.4485 C   0  0  0  0  0  0  0  0  0  0  0  0
    9.4578   -5.0200   16.3036 N   0  0  0  0  0  0  0  0  0  0  0  0
    5.0287   -8.9365   16.8223 C   0  0  0  0  0  0  0  0  0  0  0  0
    8.7742   -6.1498   16.6764 C   0  0  0  0  0  0  0  0  0  0  0  0
   10.9418   -3.4032   21.2053 O   0  0  0  0  0  0  0  0  0  0  0  0
    1.4797   -8.6258   16.2950 C   0  0  0  0  0  0  0  0  0  0  0  0
    9.2861   -1.2743   25.3585 C   0  0  0  0  0  0  0  0  0  0  0  0
    1.8892  -10.3985   17.7511 N   0  0  0  0  0  0  0  0  0  0  0  0
    9.6210   -0.6952   24.0976 C   0  0  0  0  0  0  0  0  0  0  0  0
    7.0792   -9.0217   17.1429 C   0  0  0  0  0  0  0  0  0  0  0  0
    3.1713  -10.1816   17.6634 C   0  0  0  0  0  0  0  0  0  0  0  0
    2.7878   -8.3822   16.2137 C   0  0  0  0  0  0  0  0  0  0  0  0
    9.4601   -2.6590   25.6528 C   0  0  0  0  0  0  0  0  0  0  0  0
   10.1182   -1.5672   23.1165 C   0  0  0  0  0  0  0  0  0  0  0  0
    1.0552   -9.6360   17.0650 C   0  0  0  0  0  0  0  0  0  0  0  0
    3.6519   -9.1783   16.9039 C   0  0  0  0  0  0  0  0  0  0  0  0
    7.8675   -7.0096   15.9415 C   0  0  0  0  0  0  0  0  0  0  0  0
    5.9733   -9.6553   17.3832 N   0  0  0  0  0  0  0  0  0  0  0  0
   10.2411   -2.9363   23.4301 C   0  0  0  0  0  0  0  0  0  0  0  0
   10.7288   -3.8197   19.9525 C   0  0  0  0  0  0  0  0  0  0  0  0
   10.1189   -5.0054   19.6987 C   0  0  0  0  0  0  0  0  0  0  0  0
  1  3  4  0
  1  7  4  0
  2 21  4  0
  2 27  4  0
  3  9  4  0
  3 10  4  0
  4  8  4  0
  4 18  4  0
  4 25  1  0
  5  9  4  0
  5 12  4  0
  6 13  1  0
  6 27  1  0
  7 28  4  0
  8 11  4  0
  9 29  4  0
 10 12  4  0
 11 24  1  0
 11 26  4  0
 12 25  1  0
 13 28  1  0
 14 20  4  0
 14 23  4  0
 15 17  4  0
 15 21  4  0
 16 19  4  0
 16 23  4  0
 17 22  4  0
 18 26  4  0
 19 24  4  0
 20 24  4  0
 22 27  4  0
 28 29  4  0
M  END
$$$$

 Created by Python create_sdf_string function

 29 33  0  0  0  0  0  0  0  0999 V2000
   10.7215   -3.3326   17.6437 C   0  0  0  0  0  0  0  0  0  0  0  0
    9.9489   -3.4675   24.6487 N   0  0  0  0  0  0  0  0  0  0  0  0
   10.0172   -4.4740   17.4101 C   0  0  0  0  0  0  0  0  0  0  0  0
    6.9051   -7.9575   16.4222 C   0  0  0  0  0  0  0  0  0  0  0  0
    8.9969   -6.3552   17.9668 N   0  0  0  0  0  0  0  0  0  0  0  0
   10.6702   -3.9051   22.4070 C   0  0  0  0  0  0  0  0  0  0  0  0
   11.0625   -3.0028   18.8894 C   0  0  0  0  0  0  0  0  0  0  0  0
    5.6180   -7.9194   16.1754 O   0  0  0  0  0  0  0  0  0  0  0  0
    9.7259   -5.3080   18.4485 C   0  0  0  0  0  0  0  0  0  0  0  0
    9.4578   -5.0200   16.3036 N   0  0  0  0  0  0  0  0  0  0  0  0
    5.0287   -8.9365   16.8223 C   0  0  0  0  0  0  0  0  0  0  0  0
    8.7742   -6.1498   16.6764 C   0  0  0  0  0  0  0  0  0  0  0  0
   10.9418   -3.4032   21.2053 O   0  0  0  0  0  0  0  0  0  0  0  0
    1.4797   -8.6258   16.2950 C   0  0  0  0  0  0  0  0  0  0  0  0
    9.2861   -1.2743   25.3585 C   0  0  0  0  0  0  0  0  0  0  0  0
    1.8892  -10.3985   17.7511 N   0  0  0  0  0  0  0  0  0  0  0  0
    9.6210   -0.6952   24.0976 C   0  0  0  0  0  0  0  0  0  0  0  0
    7.0792   -9.0217   17.1429 C   0  0  0  0  0  0  0  0  0  0  0  0
    3.1713  -10.1816   17.6634 C   0  0  0  0  0  0  0  0  0  0  0  0
    2.7878   -8.3822   16.2137 C   0  0  0  0  0  0  0  0  0  0  0  0
    9.4601   -2.6590   25.6528 C   0  0  0  0  0  0  0  0  0  0  0  0
   10.1182   -1.5672   23.1165 C   0  0  0  0  0  0  0  0  0  0  0  0
    1.0552   -9.6360   17.0650 C   0  0  0  0  0  0  0  0  0  0  0  0
    3.6519   -9.1783   16.9039 C   0  0  0  0  0  0  0  0  0  0  0  0
    7.8675   -7.0096   15.9415 C   0  0  0  0  0  0  0  0  0  0  0  0
    5.9733   -9.6553   17.3832 N   0  0  0  0  0  0  0  0  0  0  0  0
   10.2411   -2.9363   23.4301 C   0  0  0  0  0  0  0  0  0  0  0  0
   10.7288   -3.8197   19.9525 C   0  0  0  0  0  0  0  0  0  0  0  0
   10.1189   -5.0054   19.6987 C   0  0  0  0  0  0  0  0  0  0  0  0
  1  3  4  0
  1  7  4  0
  2 21  4  0
  2 27  4  0
  3  9  4  0
  3 10  4  0
  4  8  4  0
  4 18  4  0
  4 25  1  0
  5  9  4  0
  5 12  4  0
  6 13  1  0
  6 27  1  0
  7 28  4  0
  8 11  4  0
  9 29  4  0
 10 12  4  0
 11 24  1  0
 11 26  4  0
 12 25  1  0
 13 28  1  0
 14 20  4  0
 14 23  4  0
 15 17  4  0
 15 21  4  0
 16 19  4  0
 16 23  4  0
 17 22  4  0
 18 26  4  0
 19 24  4  0
 20 24  4  0
 22 27  4  0
 28 29  4  0
M  END
$$$$

 Created by Python create_sdf_string function

 29 33  0  0  0  0  0  0  0  0999 V2000
   10.7215   -3.3326   17.6437 C   0  0  0  0  0  0  0  0  0  0  0  0
    9.9489   -3.4675   24.6487 N   0  0  0  0  0  0  0  0  0  0  0  0
   10.0172   -4.4740   17.4101 C   0  0  0  0  0  0  0  0  0  0  0  0
    6.9051   -7.9575   16.4222 C   0  0  0  0  0  0  0  0  0  0  0  0
    8.9969   -6.3552   17.9668 N   0  0  0  0  0  0  0  0  0  0  0  0
   10.6702   -3.9051   22.4070 C   0  0  0  0  0  0  0  0  0  0  0  0
   11.0625   -3.0028   18.8894 C   0  0  0  0  0  0  0  0  0  0  0  0
    5.6180   -7.9194   16.1754 O   0  0  0  0  0  0  0  0  0  0  0  0
    9.7259   -5.3080   18.4485 C   0  0  0  0  0  0  0  0  0  0  0  0
    9.4578   -5.0200   16.3036 N   0  0  0  0  0  0  0  0  0  0  0  0
    5.0287   -8.9365   16.8223 C   0  0  0  0  0  0  0  0  0  0  0  0
    8.7742   -6.1498   16.6764 C   0  0  0  0  0  0  0  0  0  0  0  0
   10.9418   -3.4032   21.2053 O   0  0  0  0  0  0  0  0  0  0  0  0
    1.4797   -8.6258   16.2950 C   0  0  0  0  0  0  0  0  0  0  0  0
    9.2861   -1.2743   25.3585 C   0  0  0  0  0  0  0  0  0  0  0  0
    1.8892  -10.3985   17.7511 N   0  0  0  0  0  0  0  0  0  0  0  0
    9.6210   -0.6952   24.0976 C   0  0  0  0  0  0  0  0  0  0  0  0
    7.0792   -9.0217   17.1429 C   0  0  0  0  0  0  0  0  0  0  0  0
    3.1713  -10.1816   17.6634 C   0  0  0  0  0  0  0  0  0  0  0  0
    2.7878   -8.3822   16.2137 C   0  0  0  0  0  0  0  0  0  0  0  0
    9.4601   -2.6590   25.6528 C   0  0  0  0  0  0  0  0  0  0  0  0
   10.1182   -1.5672   23.1165 C   0  0  0  0  0  0  0  0  0  0  0  0
    1.0552   -9.6360   17.0650 C   0  0  0  0  0  0  0  0  0  0  0  0
    3.6519   -9.1783   16.9039 C   0  0  0  0  0  0  0  0  0  0  0  0
    7.8675   -7.0096   15.9415 C   0  0  0  0  0  0  0  0  0  0  0  0
    5.9733   -9.6553   17.3832 N   0  0  0  0  0  0  0  0  0  0  0  0
   10.2411   -2.9363   23.4301 C   0  0  0  0  0  0  0  0  0  0  0  0
   10.7288   -3.8197   19.9525 C   0  0  0  0  0  0  0  0  0  0  0  0
   10.1189   -5.0054   19.6987 C   0  0  0  0  0  0  0  0  0  0  0  0
  1  3  4  0
  1  7  4  0
  2 21  4  0
  2 27  4  0
  3  9  4  0
  3 10  4  0
  4  8  4  0
  4 18  4  0
  4 25  1  0
  5  9  4  0
  5 12  4  0
  6 13  1  0
  6 27  1  0
  7 28  4  0
  8 11  4  0
  9 29  4  0
 10 12  4  0
 11 24  1  0
 11 26  4  0
 12 25  1  0
 13 28  1  0
 14 20  4  0
 14 23  4  0
 15 17  4  0
 15 21  4  0
 16 19  4  0
 16 23  4  0
 17 22  4  0
 18 26  4  0
 19 24  4  0
 20 24  4  0
 22 27  4  0
 28 29  4  0
M  END
$$$$

 Created by Python create_sdf_string function

 29 33  0  0  0  0  0  0  0  0999 V2000
   10.7215   -3.3326   17.6437 C   0  0  0  0  0  0  0  0  0  0  0  0
    9.9489   -3.4675   24.6487 N   0  0  0  0  0  0  0  0  0  0  0  0
   10.0172   -4.4740   17.4101 C   0  0  0  0  0  0  0  0  0  0  0  0
    6.9051   -7.9575   16.4222 C   0  0  0  0  0  0  0  0  0  0  0  0
    8.9969   -6.3552   17.9668 N   0  0  0  0  0  0  0  0  0  0  0  0
   10.6702   -3.9051   22.4070 C   0  0  0  0  0  0  0  0  0  0  0  0
   11.0625   -3.0028   18.8894 C   0  0  0  0  0  0  0  0  0  0  0  0
    5.6180   -7.9194   16.1754 O   0  0  0  0  0  0  0  0  0  0  0  0
    9.7259   -5.3080   18.4485 C   0  0  0  0  0  0  0  0  0  0  0  0
    9.4578   -5.0200   16.3036 N   0  0  0  0  0  0  0  0  0  0  0  0
    5.0287   -8.9365   16.8223 C   0  0  0  0  0  0  0  0  0  0  0  0
    8.7742   -6.1498   16.6764 C   0  0  0  0  0  0  0  0  0  0  0  0
   10.9418   -3.4032   21.2053 O   0  0  0  0  0  0  0  0  0  0  0  0
    1.4797   -8.6258   16.2950 C   0  0  0  0  0  0  0  0  0  0  0  0
    9.2861   -1.2743   25.3585 C   0  0  0  0  0  0  0  0  0  0  0  0
    1.8892  -10.3985   17.7511 N   0  0  0  0  0  0  0  0  0  0  0  0
    9.6210   -0.6952   24.0976 C   0  0  0  0  0  0  0  0  0  0  0  0
    7.0792   -9.0217   17.1429 C   0  0  0  0  0  0  0  0  0  0  0  0
    3.1713  -10.1816   17.6634 C   0  0  0  0  0  0  0  0  0  0  0  0
    2.7878   -8.3822   16.2137 C   0  0  0  0  0  0  0  0  0  0  0  0
    9.4601   -2.6590   25.6528 C   0  0  0  0  0  0  0  0  0  0  0  0
   10.1182   -1.5672   23.1165 C   0  0  0  0  0  0  0  0  0  0  0  0
    1.0552   -9.6360   17.0650 C   0  0  0  0  0  0  0  0  0  0  0  0
    3.6519   -9.1783   16.9039 C   0  0  0  0  0  0  0  0  0  0  0  0
    7.8675   -7.0096   15.9415 C   0  0  0  0  0  0  0  0  0  0  0  0
    5.9733   -9.6553   17.3832 N   0  0  0  0  0  0  0  0  0  0  0  0
   10.2411   -2.9363   23.4301 C   0  0  0  0  0  0  0  0  0  0  0  0
   10.7288   -3.8197   19.9525 C   0  0  0  0  0  0  0  0  0  0  0  0
   10.1189   -5.0054   19.6987 C   0  0  0  0  0  0  0  0  0  0  0  0
  1  3  4  0
  1  7  4  0
  2 21  4  0
  2 27  4  0
  3  9  4  0
  3 10  4  0
  4  8  4  0
  4 18  4  0
  4 25  1  0
  5  9  4  0
  5 12  4  0
  6 13  1  0
  6 27  1  0
  7 28  4  0
  8 11  4  0
  9 29  4  0
 10 12  4  0
 11 24  1  0
 11 26  4  0
 12 25  1  0
 13 28  1  0
 14 20  4  0
 14 23  4  0
 15 17  4  0
 15 21  4  0
 16 19  4  0
 16 23  4  0
 17 22  4  0
 18 26  4  0
 19 24  4  0
 20 24  4  0
 22 27  4  0
 28 29  4  0
M  END
$$$$

 Created by Python create_sdf_string function

 29 33  0  0  0  0  0  0  0  0999 V2000
   10.7215   -3.3326   17.6437 C   0  0  0  0  0  0  0  0  0  0  0  0
    9.9489   -3.4675   24.6487 N   0  0  0  0  0  0  0  0  0  0  0  0
   10.0172   -4.4740   17.4101 C   0  0  0  0  0  0  0  0  0  0  0  0
    6.9051   -7.9575   16.4222 C   0  0  0  0  0  0  0  0  0  0  0  0
    8.9969   -6.3552   17.9668 N   0  0  0  0  0  0  0  0  0  0  0  0
   10.6702   -3.9051   22.4070 C   0  0  0  0  0  0  0  0  0  0  0  0
   11.0625   -3.0028   18.8894 C   0  0  0  0  0  0  0  0  0  0  0  0
    5.6180   -7.9194   16.1754 O   0  0  0  0  0  0  0  0  0  0  0  0
    9.7259   -5.3080   18.4485 C   0  0  0  0  0  0  0  0  0  0  0  0
    9.4578   -5.0200   16.3036 N   0  0  0  0  0  0  0  0  0  0  0  0
    5.0287   -8.9365   16.8223 C   0  0  0  0  0  0  0  0  0  0  0  0
    8.7742   -6.1498   16.6764 C   0  0  0  0  0  0  0  0  0  0  0  0
   10.9418   -3.4032   21.2053 O   0  0  0  0  0  0  0  0  0  0  0  0
    1.4797   -8.6258   16.2950 C   0  0  0  0  0  0  0  0  0  0  0  0
    9.2861   -1.2743   25.3585 C   0  0  0  0  0  0  0  0  0  0  0  0
    1.8892  -10.3985   17.7511 N   0  0  0  0  0  0  0  0  0  0  0  0
    9.6210   -0.6952   24.0976 C   0  0  0  0  0  0  0  0  0  0  0  0
    7.0792   -9.0217   17.1429 C   0  0  0  0  0  0  0  0  0  0  0  0
    3.1713  -10.1816   17.6634 C   0  0  0  0  0  0  0  0  0  0  0  0
    2.7878   -8.3822   16.2137 C   0  0  0  0  0  0  0  0  0  0  0  0
    9.4601   -2.6590   25.6528 C   0  0  0  0  0  0  0  0  0  0  0  0
   10.1182   -1.5672   23.1165 C   0  0  0  0  0  0  0  0  0  0  0  0
    1.0552   -9.6360   17.0650 C   0  0  0  0  0  0  0  0  0  0  0  0
    3.6519   -9.1783   16.9039 C   0  0  0  0  0  0  0  0  0  0  0  0
    7.8675   -7.0096   15.9415 C   0  0  0  0  0  0  0  0  0  0  0  0
    5.9733   -9.6553   17.3832 N   0  0  0  0  0  0  0  0  0  0  0  0
   10.2411   -2.9363   23.4301 C   0  0  0  0  0  0  0  0  0  0  0  0
   10.7288   -3.8197   19.9525 C   0  0  0  0  0  0  0  0  0  0  0  0
   10.1189   -5.0054   19.6987 C   0  0  0  0  0  0  0  0  0  0  0  0
  1  3  4  0
  1  7  4  0
  2 21  4  0
  2 27  4  0
  3  9  4  0
  3 10  4  0
  4  8  4  0
  4 18  4  0
  4 25  1  0
  5  9  4  0
  5 12  4  0
  6 13  1  0
  6 27  1  0
  7 28  4  0
  8 11  4  0
  9 29  4  0
 10 12  4  0
 11 24  1  0
 11 26  4  0
 12 25  1  0
 13 28  1  0
 14 20  4  0
 14 23  4  0
 15 17  4  0
 15 21  4  0
 16 19  4  0
 16 23  4  0
 17 22  4  0
 18 26  4  0
 19 24  4  0
 20 24  4  0
 22 27  4  0
 28 29  4  0
M  END
$$$$

 Created by Python create_sdf_string function

 29 33  0  0  0  0  0  0  0  0999 V2000
   10.7215   -3.3326   17.6437 C   0  0  0  0  0  0  0  0  0  0  0  0
    9.9489   -3.4675   24.6487 N   0  0  0  0  0  0  0  0  0  0  0  0
   10.0172   -4.4740   17.4101 C   0  0  0  0  0  0  0  0  0  0  0  0
    6.9051   -7.9575   16.4222 C   0  0  0  0  0  0  0  0  0  0  0  0
    8.9969   -6.3552   17.9668 N   0  0  0  0  0  0  0  0  0  0  0  0
   10.6702   -3.9051   22.4070 C   0  0  0  0  0  0  0  0  0  0  0  0
   11.0625   -3.0028   18.8894 C   0  0  0  0  0  0  0  0  0  0  0  0
    5.6180   -7.9194   16.1754 O   0  0  0  0  0  0  0  0  0  0  0  0
    9.7259   -5.3080   18.4485 C   0  0  0  0  0  0  0  0  0  0  0  0
    9.4578   -5.0200   16.3036 N   0  0  0  0  0  0  0  0  0  0  0  0
    5.0287   -8.9365   16.8223 C   0  0  0  0  0  0  0  0  0  0  0  0
    8.7742   -6.1498   16.6764 C   0  0  0  0  0  0  0  0  0  0  0  0
   10.9418   -3.4032   21.2053 O   0  0  0  0  0  0  0  0  0  0  0  0
    1.4797   -8.6258   16.2950 C   0  0  0  0  0  0  0  0  0  0  0  0
    9.2861   -1.2743   25.3585 C   0  0  0  0  0  0  0  0  0  0  0  0
    1.8892  -10.3985   17.7511 N   0  0  0  0  0  0  0  0  0  0  0  0
    9.6210   -0.6952   24.0976 C   0  0  0  0  0  0  0  0  0  0  0  0
    7.0792   -9.0217   17.1429 C   0  0  0  0  0  0  0  0  0  0  0  0
    3.1713  -10.1816   17.6634 C   0  0  0  0  0  0  0  0  0  0  0  0
    2.7878   -8.3822   16.2137 C   0  0  0  0  0  0  0  0  0  0  0  0
    9.4601   -2.6590   25.6528 C   0  0  0  0  0  0  0  0  0  0  0  0
   10.1182   -1.5672   23.1165 C   0  0  0  0  0  0  0  0  0  0  0  0
    1.0552   -9.6360   17.0650 C   0  0  0  0  0  0  0  0  0  0  0  0
    3.6519   -9.1783   16.9039 C   0  0  0  0  0  0  0  0  0  0  0  0
    7.8675   -7.0096   15.9415 C   0  0  0  0  0  0  0  0  0  0  0  0
    5.9733   -9.6553   17.3832 N   0  0  0  0  0  0  0  0  0  0  0  0
   10.2411   -2.9363   23.4301 C   0  0  0  0  0  0  0  0  0  0  0  0
   10.7288   -3.8197   19.9525 C   0  0  0  0  0  0  0  0  0  0  0  0
   10.1189   -5.0054   19.6987 C   0  0  0  0  0  0  0  0  0  0  0  0
  1  3  4  0
  1  7  4  0
  2 21  4  0
  2 27  4  0
  3  9  4  0
  3 10  4  0
  4  8  4  0
  4 18  4  0
  4 25  1  0
  5  9  4  0
  5 12  4  0
  6 13  1  0
  6 27  1  0
  7 28  4  0
  8 11  4  0
  9 29  4  0
 10 12  4  0
 11 24  1  0
 11 26  4  0
 12 25  1  0
 13 28  1  0
 14 20  4  0
 14 23  4  0
 15 17  4  0
 15 21  4  0
 16 19  4  0
 16 23  4  0
 17 22  4  0
 18 26  4  0
 19 24  4  0
 20 24  4  0
 22 27  4  0
 28 29  4  0
M  END
$$$$

 Created by Python create_sdf_string function

 29 33  0  0  0  0  0  0  0  0999 V2000
   10.7215   -3.3326   17.6437 C   0  0  0  0  0  0  0  0  0  0  0  0
    9.9489   -3.4675   24.6487 N   0  0  0  0  0  0  0  0  0  0  0  0
   10.0172   -4.4740   17.4101 C   0  0  0  0  0  0  0  0  0  0  0  0
    6.9051   -7.9575   16.4222 C   0  0  0  0  0  0  0  0  0  0  0  0
    8.9969   -6.3552   17.9668 N   0  0  0  0  0  0  0  0  0  0  0  0
   10.6702   -3.9051   22.4070 C   0  0  0  0  0  0  0  0  0  0  0  0
   11.0625   -3.0028   18.8894 C   0  0  0  0  0  0  0  0  0  0  0  0
    5.6180   -7.9194   16.1754 O   0  0  0  0  0  0  0  0  0  0  0  0
    9.7259   -5.3080   18.4485 C   0  0  0  0  0  0  0  0  0  0  0  0
    9.4578   -5.0200   16.3036 N   0  0  0  0  0  0  0  0  0  0  0  0
    5.0287   -8.9365   16.8223 C   0  0  0  0  0  0  0  0  0  0  0  0
    8.7742   -6.1498   16.6764 C   0  0  0  0  0  0  0  0  0  0  0  0
   10.9418   -3.4032   21.2053 O   0  0  0  0  0  0  0  0  0  0  0  0
    1.4797   -8.6258   16.2950 C   0  0  0  0  0  0  0  0  0  0  0  0
    9.2861   -1.2743   25.3585 C   0  0  0  0  0  0  0  0  0  0  0  0
    1.8892  -10.3985   17.7511 N   0  0  0  0  0  0  0  0  0  0  0  0
    9.6210   -0.6952   24.0976 C   0  0  0  0  0  0  0  0  0  0  0  0
    7.0792   -9.0217   17.1429 C   0  0  0  0  0  0  0  0  0  0  0  0
    3.1713  -10.1816   17.6634 C   0  0  0  0  0  0  0  0  0  0  0  0
    2.7878   -8.3822   16.2137 C   0  0  0  0  0  0  0  0  0  0  0  0
    9.4601   -2.6590   25.6528 C   0  0  0  0  0  0  0  0  0  0  0  0
   10.1182   -1.5672   23.1165 C   0  0  0  0  0  0  0  0  0  0  0  0
    1.0552   -9.6360   17.0650 C   0  0  0  0  0  0  0  0  0  0  0  0
    3.6519   -9.1783   16.9039 C   0  0  0  0  0  0  0  0  0  0  0  0
    7.8675   -7.0096   15.9415 C   0  0  0  0  0  0  0  0  0  0  0  0
    5.9733   -9.6553   17.3832 N   0  0  0  0  0  0  0  0  0  0  0  0
   10.2411   -2.9363   23.4301 C   0  0  0  0  0  0  0  0  0  0  0  0
   10.7288   -3.8197   19.9525 C   0  0  0  0  0  0  0  0  0  0  0  0
   10.1189   -5.0054   19.6987 C   0  0  0  0  0  0  0  0  0  0  0  0
  1  3  4  0
  1  7  4  0
  2 21  4  0
  2 27  4  0
  3  9  4  0
  3 10  4  0
  4  8  4  0
  4 18  4  0
  4 25  1  0
  5  9  4  0
  5 12  4  0
  6 13  1  0
  6 27  1  0
  7 28  4  0
  8 11  4  0
  9 29  4  0
 10 12  4  0
 11 24  1  0
 11 26  4  0
 12 25  1  0
 13 28  1  0
 14 20  4  0
 14 23  4  0
 15 17  4  0
 15 21  4  0
 16 19  4  0
 16 23  4  0
 17 22  4  0
 18 26  4  0
 19 24  4  0
 20 24  4  0
 22 27  4  0
 28 29  4  0
M  END
$$$$

 Created by Python create_sdf_string function

 29 33  0  0  0  0  0  0  0  0999 V2000
   10.7215   -3.3326   17.6437 C   0  0  0  0  0  0  0  0  0  0  0  0
    9.9489   -3.4675   24.6487 N   0  0  0  0  0  0  0  0  0  0  0  0
   10.0172   -4.4740   17.4101 C   0  0  0  0  0  0  0  0  0  0  0  0
    6.9051   -7.9575   16.4222 C   0  0  0  0  0  0  0  0  0  0  0  0
    8.9969   -6.3552   17.9668 N   0  0  0  0  0  0  0  0  0  0  0  0
   10.6702   -3.9051   22.4070 C   0  0  0  0  0  0  0  0  0  0  0  0
   11.0625   -3.0028   18.8894 C   0  0  0  0  0  0  0  0  0  0  0  0
    5.6180   -7.9194   16.1754 O   0  0  0  0  0  0  0  0  0  0  0  0
    9.7259   -5.3080   18.4485 C   0  0  0  0  0  0  0  0  0  0  0  0
    9.4578   -5.0200   16.3036 N   0  0  0  0  0  0  0  0  0  0  0  0
    5.0287   -8.9365   16.8223 C   0  0  0  0  0  0  0  0  0  0  0  0
    8.7742   -6.1498   16.6764 C   0  0  0  0  0  0  0  0  0  0  0  0
   10.9418   -3.4032   21.2053 O   0  0  0  0  0  0  0  0  0  0  0  0
    1.4797   -8.6258   16.2950 C   0  0  0  0  0  0  0  0  0  0  0  0
    9.2861   -1.2743   25.3585 C   0  0  0  0  0  0  0  0  0  0  0  0
    1.8892  -10.3985   17.7511 N   0  0  0  0  0  0  0  0  0  0  0  0
    9.6210   -0.6952   24.0976 C   0  0  0  0  0  0  0  0  0  0  0  0
    7.0792   -9.0217   17.1429 C   0  0  0  0  0  0  0  0  0  0  0  0
    3.1713  -10.1816   17.6634 C   0  0  0  0  0  0  0  0  0  0  0  0
    2.7878   -8.3822   16.2137 C   0  0  0  0  0  0  0  0  0  0  0  0
    9.4601   -2.6590   25.6528 C   0  0  0  0  0  0  0  0  0  0  0  0
   10.1182   -1.5672   23.1165 C   0  0  0  0  0  0  0  0  0  0  0  0
    1.0552   -9.6360   17.0650 C   0  0  0  0  0  0  0  0  0  0  0  0
    3.6519   -9.1783   16.9039 C   0  0  0  0  0  0  0  0  0  0  0  0
    7.8675   -7.0096   15.9415 C   0  0  0  0  0  0  0  0  0  0  0  0
    5.9733   -9.6553   17.3832 N   0  0  0  0  0  0  0  0  0  0  0  0
   10.2411   -2.9363   23.4301 C   0  0  0  0  0  0  0  0  0  0  0  0
   10.7288   -3.8197   19.9525 C   0  0  0  0  0  0  0  0  0  0  0  0
   10.1189   -5.0054   19.6987 C   0  0  0  0  0  0  0  0  0  0  0  0
  1  3  4  0
  1  7  4  0
  2 21  4  0
  2 27  4  0
  3  9  4  0
  3 10  4  0
  4  8  4  0
  4 18  4  0
  4 25  1  0
  5  9  4  0
  5 12  4  0
  6 13  1  0
  6 27  1  0
  7 28  4  0
  8 11  4  0
  9 29  4  0
 10 12  4  0
 11 24  1  0
 11 26  4  0
 12 25  1  0
 13 28  1  0
 14 20  4  0
 14 23  4  0
 15 17  4  0
 15 21  4  0
 16 19  4  0
 16 23  4  0
 17 22  4  0
 18 26  4  0
 19 24  4  0
 20 24  4  0
 22 27  4  0
 28 29  4  0
M  END
$$$$

 Created by Python create_sdf_string function

 29 33  0  0  0  0  0  0  0  0999 V2000
   10.7215   -3.3326   17.6437 C   0  0  0  0  0  0  0  0  0  0  0  0
    9.9489   -3.4675   24.6487 N   0  0  0  0  0  0  0  0  0  0  0  0
   10.0172   -4.4740   17.4101 C   0  0  0  0  0  0  0  0  0  0  0  0
    6.9051   -7.9575   16.4222 C   0  0  0  0  0  0  0  0  0  0  0  0
    8.9969   -6.3552   17.9668 N   0  0  0  0  0  0  0  0  0  0  0  0
   10.6702   -3.9051   22.4070 C   0  0  0  0  0  0  0  0  0  0  0  0
   11.0625   -3.0028   18.8894 C   0  0  0  0  0  0  0  0  0  0  0  0
    5.6180   -7.9194   16.1754 O   0  0  0  0  0  0  0  0  0  0  0  0
    9.7259   -5.3080   18.4485 C   0  0  0  0  0  0  0  0  0  0  0  0
    9.4578   -5.0200   16.3036 N   0  0  0  0  0  0  0  0  0  0  0  0
    5.0287   -8.9365   16.8223 C   0  0  0  0  0  0  0  0  0  0  0  0
    8.7742   -6.1498   16.6764 C   0  0  0  0  0  0  0  0  0  0  0  0
   10.9418   -3.4032   21.2053 O   0  0  0  0  0  0  0  0  0  0  0  0
    1.4797   -8.6258   16.2950 C   0  0  0  0  0  0  0  0  0  0  0  0
    9.2861   -1.2743   25.3585 C   0  0  0  0  0  0  0  0  0  0  0  0
    1.8892  -10.3985   17.7511 N   0  0  0  0  0  0  0  0  0  0  0  0
    9.6210   -0.6952   24.0976 C   0  0  0  0  0  0  0  0  0  0  0  0
    7.0792   -9.0217   17.1429 C   0  0  0  0  0  0  0  0  0  0  0  0
    3.1713  -10.1816   17.6634 C   0  0  0  0  0  0  0  0  0  0  0  0
    2.7878   -8.3822   16.2137 C   0  0  0  0  0  0  0  0  0  0  0  0
    9.4601   -2.6590   25.6528 C   0  0  0  0  0  0  0  0  0  0  0  0
   10.1182   -1.5672   23.1165 C   0  0  0  0  0  0  0  0  0  0  0  0
    1.0552   -9.6360   17.0650 C   0  0  0  0  0  0  0  0  0  0  0  0
    3.6519   -9.1783   16.9039 C   0  0  0  0  0  0  0  0  0  0  0  0
    7.8675   -7.0096   15.9415 C   0  0  0  0  0  0  0  0  0  0  0  0
    5.9733   -9.6553   17.3832 N   0  0  0  0  0  0  0  0  0  0  0  0
   10.2411   -2.9363   23.4301 C   0  0  0  0  0  0  0  0  0  0  0  0
   10.7288   -3.8197   19.9525 C   0  0  0  0  0  0  0  0  0  0  0  0
   10.1189   -5.0054   19.6987 C   0  0  0  0  0  0  0  0  0  0  0  0
  1  3  4  0
  1  7  4  0
  2 21  4  0
  2 27  4  0
  3  9  4  0
  3 10  4  0
  4  8  4  0
  4 18  4  0
  4 25  1  0
  5  9  4  0
  5 12  4  0
  6 13  1  0
  6 27  1  0
  7 28  4  0
  8 11  4  0
  9 29  4  0
 10 12  4  0
 11 24  1  0
 11 26  4  0
 12 25  1  0
 13 28  1  0
 14 20  4  0
 14 23  4  0
 15 17  4  0
 15 21  4  0
 16 19  4  0
 16 23  4  0
 17 22  4  0
 18 26  4  0
 19 24  4  0
 20 24  4  0
 22 27  4  0
 28 29  4  0
M  END
$$$$

 Created by Python create_sdf_string function

 29 33  0  0  0  0  0  0  0  0999 V2000
   10.7215   -3.3326   17.6437 C   0  0  0  0  0  0  0  0  0  0  0  0
    9.9489   -3.4675   24.6487 N   0  0  0  0  0  0  0  0  0  0  0  0
   10.0172   -4.4740   17.4101 C   0  0  0  0  0  0  0  0  0  0  0  0
    6.9051   -7.9575   16.4222 C   0  0  0  0  0  0  0  0  0  0  0  0
    8.9969   -6.3552   17.9668 N   0  0  0  0  0  0  0  0  0  0  0  0
   10.6702   -3.9051   22.4070 C   0  0  0  0  0  0  0  0  0  0  0  0
   11.0625   -3.0028   18.8894 C   0  0  0  0  0  0  0  0  0  0  0  0
    5.6180   -7.9194   16.1754 O   0  0  0  0  0  0  0  0  0  0  0  0
    9.7259   -5.3080   18.4485 C   0  0  0  0  0  0  0  0  0  0  0  0
    9.4578   -5.0200   16.3036 N   0  0  0  0  0  0  0  0  0  0  0  0
    5.0287   -8.9365   16.8223 C   0  0  0  0  0  0  0  0  0  0  0  0
    8.7742   -6.1498   16.6764 C   0  0  0  0  0  0  0  0  0  0  0  0
   10.9418   -3.4032   21.2053 O   0  0  0  0  0  0  0  0  0  0  0  0
    1.4797   -8.6258   16.2950 C   0  0  0  0  0  0  0  0  0  0  0  0
    9.2861   -1.2743   25.3585 C   0  0  0  0  0  0  0  0  0  0  0  0
    1.8892  -10.3985   17.7511 N   0  0  0  0  0  0  0  0  0  0  0  0
    9.6210   -0.6952   24.0976 C   0  0  0  0  0  0  0  0  0  0  0  0
    7.0792   -9.0217   17.1429 C   0  0  0  0  0  0  0  0  0  0  0  0
    3.1713  -10.1816   17.6634 C   0  0  0  0  0  0  0  0  0  0  0  0
    2.7878   -8.3822   16.2137 C   0  0  0  0  0  0  0  0  0  0  0  0
    9.4601   -2.6590   25.6528 C   0  0  0  0  0  0  0  0  0  0  0  0
   10.1182   -1.5672   23.1165 C   0  0  0  0  0  0  0  0  0  0  0  0
    1.0552   -9.6360   17.0650 C   0  0  0  0  0  0  0  0  0  0  0  0
    3.6519   -9.1783   16.9039 C   0  0  0  0  0  0  0  0  0  0  0  0
    7.8675   -7.0096   15.9415 C   0  0  0  0  0  0  0  0  0  0  0  0
    5.9733   -9.6553   17.3832 N   0  0  0  0  0  0  0  0  0  0  0  0
   10.2411   -2.9363   23.4301 C   0  0  0  0  0  0  0  0  0  0  0  0
   10.7288   -3.8197   19.9525 C   0  0  0  0  0  0  0  0  0  0  0  0
   10.1189   -5.0054   19.6987 C   0  0  0  0  0  0  0  0  0  0  0  0
  1  3  4  0
  1  7  4  0
  2 21  4  0
  2 27  4  0
  3  9  4  0
  3 10  4  0
  4  8  4  0
  4 18  4  0
  4 25  1  0
  5  9  4  0
  5 12  4  0
  6 13  1  0
  6 27  1  0
  7 28  4  0
  8 11  4  0
  9 29  4  0
 10 12  4  0
 11 24  1  0
 11 26  4  0
 12 25  1  0
 13 28  1  0
 14 20  4  0
 14 23  4  0
 15 17  4  0
 15 21  4  0
 16 19  4  0
 16 23  4  0
 17 22  4  0
 18 26  4  0
 19 24  4  0
 20 24  4  0
 22 27  4  0
 28 29  4  0
M  END
$$$$

 Created by Python create_sdf_string function

 29 33  0  0  0  0  0  0  0  0999 V2000
   10.7215   -3.3326   17.6437 C   0  0  0  0  0  0  0  0  0  0  0  0
    9.9489   -3.4675   24.6487 N   0  0  0  0  0  0  0  0  0  0  0  0
   10.0172   -4.4740   17.4101 C   0  0  0  0  0  0  0  0  0  0  0  0
    6.9051   -7.9575   16.4222 C   0  0  0  0  0  0  0  0  0  0  0  0
    8.9969   -6.3552   17.9668 N   0  0  0  0  0  0  0  0  0  0  0  0
   10.6702   -3.9051   22.4070 C   0  0  0  0  0  0  0  0  0  0  0  0
   11.0625   -3.0028   18.8894 C   0  0  0  0  0  0  0  0  0  0  0  0
    5.6180   -7.9194   16.1754 O   0  0  0  0  0  0  0  0  0  0  0  0
    9.7259   -5.3080   18.4485 C   0  0  0  0  0  0  0  0  0  0  0  0
    9.4578   -5.0200   16.3036 N   0  0  0  0  0  0  0  0  0  0  0  0
    5.0287   -8.9365   16.8223 C   0  0  0  0  0  0  0  0  0  0  0  0
    8.7742   -6.1498   16.6764 C   0  0  0  0  0  0  0  0  0  0  0  0
   10.9418   -3.4032   21.2053 O   0  0  0  0  0  0  0  0  0  0  0  0
    1.4797   -8.6258   16.2950 C   0  0  0  0  0  0  0  0  0  0  0  0
    9.2861   -1.2743   25.3585 C   0  0  0  0  0  0  0  0  0  0  0  0
    1.8892  -10.3985   17.7511 N   0  0  0  0  0  0  0  0  0  0  0  0
    9.6210   -0.6952   24.0976 C   0  0  0  0  0  0  0  0  0  0  0  0
    7.0792   -9.0217   17.1429 C   0  0  0  0  0  0  0  0  0  0  0  0
    3.1713  -10.1816   17.6634 C   0  0  0  0  0  0  0  0  0  0  0  0
    2.7878   -8.3822   16.2137 C   0  0  0  0  0  0  0  0  0  0  0  0
    9.4601   -2.6590   25.6528 C   0  0  0  0  0  0  0  0  0  0  0  0
   10.1182   -1.5672   23.1165 C   0  0  0  0  0  0  0  0  0  0  0  0
    1.0552   -9.6360   17.0650 C   0  0  0  0  0  0  0  0  0  0  0  0
    3.6519   -9.1783   16.9039 C   0  0  0  0  0  0  0  0  0  0  0  0
    7.8675   -7.0096   15.9415 C   0  0  0  0  0  0  0  0  0  0  0  0
    5.9733   -9.6553   17.3832 N   0  0  0  0  0  0  0  0  0  0  0  0
   10.2411   -2.9363   23.4301 C   0  0  0  0  0  0  0  0  0  0  0  0
   10.7288   -3.8197   19.9525 C   0  0  0  0  0  0  0  0  0  0  0  0
   10.1189   -5.0054   19.6987 C   0  0  0  0  0  0  0  0  0  0  0  0
  1  3  4  0
  1  7  4  0
  2 21  4  0
  2 27  4  0
  3  9  4  0
  3 10  4  0
  4  8  4  0
  4 18  4  0
  4 25  1  0
  5  9  4  0
  5 12  4  0
  6 13  1  0
  6 27  1  0
  7 28  4  0
  8 11  4  0
  9 29  4  0
 10 12  4  0
 11 24  1  0
 11 26  4  0
 12 25  1  0
 13 28  1  0
 14 20  4  0
 14 23  4  0
 15 17  4  0
 15 21  4  0
 16 19  4  0
 16 23  4  0
 17 22  4  0
 18 26  4  0
 19 24  4  0
 20 24  4  0
 22 27  4  0
 28 29  4  0
M  END
$$$$

 Created by Python create_sdf_string function

 29 33  0  0  0  0  0  0  0  0999 V2000
   10.7215   -3.3326   17.6437 C   0  0  0  0  0  0  0  0  0  0  0  0
    9.9489   -3.4675   24.6487 N   0  0  0  0  0  0  0  0  0  0  0  0
   10.0172   -4.4740   17.4101 C   0  0  0  0  0  0  0  0  0  0  0  0
    6.9051   -7.9575   16.4222 C   0  0  0  0  0  0  0  0  0  0  0  0
    8.9969   -6.3552   17.9668 N   0  0  0  0  0  0  0  0  0  0  0  0
   10.6702   -3.9051   22.4070 C   0  0  0  0  0  0  0  0  0  0  0  0
   11.0625   -3.0028   18.8894 C   0  0  0  0  0  0  0  0  0  0  0  0
    5.6180   -7.9194   16.1754 O   0  0  0  0  0  0  0  0  0  0  0  0
    9.7259   -5.3080   18.4485 C   0  0  0  0  0  0  0  0  0  0  0  0
    9.4578   -5.0200   16.3036 N   0  0  0  0  0  0  0  0  0  0  0  0
    5.0287   -8.9365   16.8223 C   0  0  0  0  0  0  0  0  0  0  0  0
    8.7742   -6.1498   16.6764 C   0  0  0  0  0  0  0  0  0  0  0  0
   10.9418   -3.4032   21.2053 O   0  0  0  0  0  0  0  0  0  0  0  0
    1.4797   -8.6258   16.2950 C   0  0  0  0  0  0  0  0  0  0  0  0
    9.2861   -1.2743   25.3585 C   0  0  0  0  0  0  0  0  0  0  0  0
    1.8892  -10.3985   17.7511 N   0  0  0  0  0  0  0  0  0  0  0  0
    9.6210   -0.6952   24.0976 C   0  0  0  0  0  0  0  0  0  0  0  0
    7.0792   -9.0217   17.1429 C   0  0  0  0  0  0  0  0  0  0  0  0
    3.1713  -10.1816   17.6634 C   0  0  0  0  0  0  0  0  0  0  0  0
    2.7878   -8.3822   16.2137 C   0  0  0  0  0  0  0  0  0  0  0  0
    9.4601   -2.6590   25.6528 C   0  0  0  0  0  0  0  0  0  0  0  0
   10.1182   -1.5672   23.1165 C   0  0  0  0  0  0  0  0  0  0  0  0
    1.0552   -9.6360   17.0650 C   0  0  0  0  0  0  0  0  0  0  0  0
    3.6519   -9.1783   16.9039 C   0  0  0  0  0  0  0  0  0  0  0  0
    7.8675   -7.0096   15.9415 C   0  0  0  0  0  0  0  0  0  0  0  0
    5.9733   -9.6553   17.3832 N   0  0  0  0  0  0  0  0  0  0  0  0
   10.2411   -2.9363   23.4301 C   0  0  0  0  0  0  0  0  0  0  0  0
   10.7288   -3.8197   19.9525 C   0  0  0  0  0  0  0  0  0  0  0  0
   10.1189   -5.0054   19.6987 C   0  0  0  0  0  0  0  0  0  0  0  0
  1  3  4  0
  1  7  4  0
  2 21  4  0
  2 27  4  0
  3  9  4  0
  3 10  4  0
  4  8  4  0
  4 18  4  0
  4 25  1  0
  5  9  4  0
  5 12  4  0
  6 13  1  0
  6 27  1  0
  7 28  4  0
  8 11  4  0
  9 29  4  0
 10 12  4  0
 11 24  1  0
 11 26  4  0
 12 25  1  0
 13 28  1  0
 14 20  4  0
 14 23  4  0
 15 17  4  0
 15 21  4  0
 16 19  4  0
 16 23  4  0
 17 22  4  0
 18 26  4  0
 19 24  4  0
 20 24  4  0
 22 27  4  0
 28 29  4  0
M  END
$$$$

 Created by Python create_sdf_string function

 29 33  0  0  0  0  0  0  0  0999 V2000
   10.7215   -3.3326   17.6437 C   0  0  0  0  0  0  0  0  0  0  0  0
    9.9489   -3.4675   24.6487 N   0  0  0  0  0  0  0  0  0  0  0  0
   10.0172   -4.4740   17.4101 C   0  0  0  0  0  0  0  0  0  0  0  0
    6.9051   -7.9575   16.4222 C   0  0  0  0  0  0  0  0  0  0  0  0
    8.9969   -6.3552   17.9668 N   0  0  0  0  0  0  0  0  0  0  0  0
   10.6702   -3.9051   22.4070 C   0  0  0  0  0  0  0  0  0  0  0  0
   11.0625   -3.0028   18.8894 C   0  0  0  0  0  0  0  0  0  0  0  0
    5.6180   -7.9194   16.1754 O   0  0  0  0  0  0  0  0  0  0  0  0
    9.7259   -5.3080   18.4485 C   0  0  0  0  0  0  0  0  0  0  0  0
    9.4578   -5.0200   16.3036 N   0  0  0  0  0  0  0  0  0  0  0  0
    5.0287   -8.9365   16.8223 C   0  0  0  0  0  0  0  0  0  0  0  0
    8.7742   -6.1498   16.6764 C   0  0  0  0  0  0  0  0  0  0  0  0
   10.9418   -3.4032   21.2053 O   0  0  0  0  0  0  0  0  0  0  0  0
    1.4797   -8.6258   16.2950 C   0  0  0  0  0  0  0  0  0  0  0  0
    9.2861   -1.2743   25.3585 C   0  0  0  0  0  0  0  0  0  0  0  0
    1.8892  -10.3985   17.7511 N   0  0  0  0  0  0  0  0  0  0  0  0
    9.6210   -0.6952   24.0976 C   0  0  0  0  0  0  0  0  0  0  0  0
    7.0792   -9.0217   17.1429 C   0  0  0  0  0  0  0  0  0  0  0  0
    3.1713  -10.1816   17.6634 C   0  0  0  0  0  0  0  0  0  0  0  0
    2.7878   -8.3822   16.2137 C   0  0  0  0  0  0  0  0  0  0  0  0
    9.4601   -2.6590   25.6528 C   0  0  0  0  0  0  0  0  0  0  0  0
   10.1182   -1.5672   23.1165 C   0  0  0  0  0  0  0  0  0  0  0  0
    1.0552   -9.6360   17.0650 C   0  0  0  0  0  0  0  0  0  0  0  0
    3.6519   -9.1783   16.9039 C   0  0  0  0  0  0  0  0  0  0  0  0
    7.8675   -7.0096   15.9415 C   0  0  0  0  0  0  0  0  0  0  0  0
    5.9733   -9.6553   17.3832 N   0  0  0  0  0  0  0  0  0  0  0  0
   10.2411   -2.9363   23.4301 C   0  0  0  0  0  0  0  0  0  0  0  0
   10.7288   -3.8197   19.9525 C   0  0  0  0  0  0  0  0  0  0  0  0
   10.1189   -5.0054   19.6987 C   0  0  0  0  0  0  0  0  0  0  0  0
  1  3  4  0
  1  7  4  0
  2 21  4  0
  2 27  4  0
  3  9  4  0
  3 10  4  0
  4  8  4  0
  4 18  4  0
  4 25  1  0
  5  9  4  0
  5 12  4  0
  6 13  1  0
  6 27  1  0
  7 28  4  0
  8 11  4  0
  9 29  4  0
 10 12  4  0
 11 24  1  0
 11 26  4  0
 12 25  1  0
 13 28  1  0
 14 20  4  0
 14 23  4  0
 15 17  4  0
 15 21  4  0
 16 19  4  0
 16 23  4  0
 17 22  4  0
 18 26  4  0
 19 24  4  0
 20 24  4  0
 22 27  4  0
 28 29  4  0
M  END
$$$$

 Created by Python create_sdf_string function

 29 33  0  0  0  0  0  0  0  0999 V2000
   10.7215   -3.3326   17.6437 C   0  0  0  0  0  0  0  0  0  0  0  0
    9.9489   -3.4675   24.6487 N   0  0  0  0  0  0  0  0  0  0  0  0
   10.0172   -4.4740   17.4101 C   0  0  0  0  0  0  0  0  0  0  0  0
    6.9051   -7.9575   16.4222 C   0  0  0  0  0  0  0  0  0  0  0  0
    8.9969   -6.3552   17.9668 N   0  0  0  0  0  0  0  0  0  0  0  0
   10.6702   -3.9051   22.4070 C   0  0  0  0  0  0  0  0  0  0  0  0
   11.0625   -3.0028   18.8894 C   0  0  0  0  0  0  0  0  0  0  0  0
    5.6180   -7.9194   16.1754 O   0  0  0  0  0  0  0  0  0  0  0  0
    9.7259   -5.3080   18.4485 C   0  0  0  0  0  0  0  0  0  0  0  0
    9.4578   -5.0200   16.3036 N   0  0  0  0  0  0  0  0  0  0  0  0
    5.0287   -8.9365   16.8223 C   0  0  0  0  0  0  0  0  0  0  0  0
    8.7742   -6.1498   16.6764 C   0  0  0  0  0  0  0  0  0  0  0  0
   10.9418   -3.4032   21.2053 O   0  0  0  0  0  0  0  0  0  0  0  0
    1.4797   -8.6258   16.2950 C   0  0  0  0  0  0  0  0  0  0  0  0
    9.2861   -1.2743   25.3585 C   0  0  0  0  0  0  0  0  0  0  0  0
    1.8892  -10.3985   17.7511 N   0  0  0  0  0  0  0  0  0  0  0  0
    9.6210   -0.6952   24.0976 C   0  0  0  0  0  0  0  0  0  0  0  0
    7.0792   -9.0217   17.1429 C   0  0  0  0  0  0  0  0  0  0  0  0
    3.1713  -10.1816   17.6634 C   0  0  0  0  0  0  0  0  0  0  0  0
    2.7878   -8.3822   16.2137 C   0  0  0  0  0  0  0  0  0  0  0  0
    9.4601   -2.6590   25.6528 C   0  0  0  0  0  0  0  0  0  0  0  0
   10.1182   -1.5672   23.1165 C   0  0  0  0  0  0  0  0  0  0  0  0
    1.0552   -9.6360   17.0650 C   0  0  0  0  0  0  0  0  0  0  0  0
    3.6519   -9.1783   16.9039 C   0  0  0  0  0  0  0  0  0  0  0  0
    7.8675   -7.0096   15.9415 C   0  0  0  0  0  0  0  0  0  0  0  0
    5.9733   -9.6553   17.3832 N   0  0  0  0  0  0  0  0  0  0  0  0
   10.2411   -2.9363   23.4301 C   0  0  0  0  0  0  0  0  0  0  0  0
   10.7288   -3.8197   19.9525 C   0  0  0  0  0  0  0  0  0  0  0  0
   10.1189   -5.0054   19.6987 C   0  0  0  0  0  0  0  0  0  0  0  0
  1  3  4  0
  1  7  4  0
  2 21  4  0
  2 27  4  0
  3  9  4  0
  3 10  4  0
  4  8  4  0
  4 18  4  0
  4 25  1  0
  5  9  4  0
  5 12  4  0
  6 13  1  0
  6 27  1  0
  7 28  4  0
  8 11  4  0
  9 29  4  0
 10 12  4  0
 11 24  1  0
 11 26  4  0
 12 25  1  0
 13 28  1  0
 14 20  4  0
 14 23  4  0
 15 17  4  0
 15 21  4  0
 16 19  4  0
 16 23  4  0
 17 22  4  0
 18 26  4  0
 19 24  4  0
 20 24  4  0
 22 27  4  0
 28 29  4  0
M  END
$$$$

 Created by Python create_sdf_string function

 29 33  0  0  0  0  0  0  0  0999 V2000
   10.7215   -3.3326   17.6437 C   0  0  0  0  0  0  0  0  0  0  0  0
    9.9489   -3.4675   24.6487 N   0  0  0  0  0  0  0  0  0  0  0  0
   10.0172   -4.4740   17.4101 C   0  0  0  0  0  0  0  0  0  0  0  0
    6.9051   -7.9575   16.4222 C   0  0  0  0  0  0  0  0  0  0  0  0
    8.9969   -6.3552   17.9668 N   0  0  0  0  0  0  0  0  0  0  0  0
   10.6702   -3.9051   22.4070 C   0  0  0  0  0  0  0  0  0  0  0  0
   11.0625   -3.0028   18.8894 C   0  0  0  0  0  0  0  0  0  0  0  0
    5.6180   -7.9194   16.1754 O   0  0  0  0  0  0  0  0  0  0  0  0
    9.7259   -5.3080   18.4485 C   0  0  0  0  0  0  0  0  0  0  0  0
    9.4578   -5.0200   16.3036 N   0  0  0  0  0  0  0  0  0  0  0  0
    5.0287   -8.9365   16.8223 C   0  0  0  0  0  0  0  0  0  0  0  0
    8.7742   -6.1498   16.6764 C   0  0  0  0  0  0  0  0  0  0  0  0
   10.9418   -3.4032   21.2053 O   0  0  0  0  0  0  0  0  0  0  0  0
    1.4797   -8.6258   16.2950 C   0  0  0  0  0  0  0  0  0  0  0  0
    9.2861   -1.2743   25.3585 C   0  0  0  0  0  0  0  0  0  0  0  0
    1.8892  -10.3985   17.7511 N   0  0  0  0  0  0  0  0  0  0  0  0
    9.6210   -0.6952   24.0976 C   0  0  0  0  0  0  0  0  0  0  0  0
    7.0792   -9.0217   17.1429 C   0  0  0  0  0  0  0  0  0  0  0  0
    3.1713  -10.1816   17.6634 C   0  0  0  0  0  0  0  0  0  0  0  0
    2.7878   -8.3822   16.2137 C   0  0  0  0  0  0  0  0  0  0  0  0
    9.4601   -2.6590   25.6528 C   0  0  0  0  0  0  0  0  0  0  0  0
   10.1182   -1.5672   23.1165 C   0  0  0  0  0  0  0  0  0  0  0  0
    1.0552   -9.6360   17.0650 C   0  0  0  0  0  0  0  0  0  0  0  0
    3.6519   -9.1783   16.9039 C   0  0  0  0  0  0  0  0  0  0  0  0
    7.8675   -7.0096   15.9415 C   0  0  0  0  0  0  0  0  0  0  0  0
    5.9733   -9.6553   17.3832 N   0  0  0  0  0  0  0  0  0  0  0  0
   10.2411   -2.9363   23.4301 C   0  0  0  0  0  0  0  0  0  0  0  0
   10.7288   -3.8197   19.9525 C   0  0  0  0  0  0  0  0  0  0  0  0
   10.1189   -5.0054   19.6987 C   0  0  0  0  0  0  0  0  0  0  0  0
  1  3  4  0
  1  7  4  0
  2 21  4  0
  2 27  4  0
  3  9  4  0
  3 10  4  0
  4  8  4  0
  4 18  4  0
  4 25  1  0
  5  9  4  0
  5 12  4  0
  6 13  1  0
  6 27  1  0
  7 28  4  0
  8 11  4  0
  9 29  4  0
 10 12  4  0
 11 24  1  0
 11 26  4  0
 12 25  1  0
 13 28  1  0
 14 20  4  0
 14 23  4  0
 15 17  4  0
 15 21  4  0
 16 19  4  0
 16 23  4  0
 17 22  4  0
 18 26  4  0
 19 24  4  0
 20 24  4  0
 22 27  4  0
 28 29  4  0
M  END
$$$$

 Created by Python create_sdf_string function

 29 33  0  0  0  0  0  0  0  0999 V2000
   10.7215   -3.3326   17.6437 C   0  0  0  0  0  0  0  0  0  0  0  0
    9.9489   -3.4675   24.6487 N   0  0  0  0  0  0  0  0  0  0  0  0
   10.0172   -4.4740   17.4101 C   0  0  0  0  0  0  0  0  0  0  0  0
    6.9051   -7.9575   16.4222 C   0  0  0  0  0  0  0  0  0  0  0  0
    8.9969   -6.3552   17.9668 N   0  0  0  0  0  0  0  0  0  0  0  0
   10.6702   -3.9051   22.4070 C   0  0  0  0  0  0  0  0  0  0  0  0
   11.0625   -3.0028   18.8894 C   0  0  0  0  0  0  0  0  0  0  0  0
    5.6180   -7.9194   16.1754 O   0  0  0  0  0  0  0  0  0  0  0  0
    9.7259   -5.3080   18.4485 C   0  0  0  0  0  0  0  0  0  0  0  0
    9.4578   -5.0200   16.3036 N   0  0  0  0  0  0  0  0  0  0  0  0
    5.0287   -8.9365   16.8223 C   0  0  0  0  0  0  0  0  0  0  0  0
    8.7742   -6.1498   16.6764 C   0  0  0  0  0  0  0  0  0  0  0  0
   10.9418   -3.4032   21.2053 O   0  0  0  0  0  0  0  0  0  0  0  0
    1.4797   -8.6258   16.2950 C   0  0  0  0  0  0  0  0  0  0  0  0
    9.2861   -1.2743   25.3585 C   0  0  0  0  0  0  0  0  0  0  0  0
    1.8892  -10.3985   17.7511 N   0  0  0  0  0  0  0  0  0  0  0  0
    9.6210   -0.6952   24.0976 C   0  0  0  0  0  0  0  0  0  0  0  0
    7.0792   -9.0217   17.1429 C   0  0  0  0  0  0  0  0  0  0  0  0
    3.1713  -10.1816   17.6634 C   0  0  0  0  0  0  0  0  0  0  0  0
    2.7878   -8.3822   16.2137 C   0  0  0  0  0  0  0  0  0  0  0  0
    9.4601   -2.6590   25.6528 C   0  0  0  0  0  0  0  0  0  0  0  0
   10.1182   -1.5672   23.1165 C   0  0  0  0  0  0  0  0  0  0  0  0
    1.0552   -9.6360   17.0650 C   0  0  0  0  0  0  0  0  0  0  0  0
    3.6519   -9.1783   16.9039 C   0  0  0  0  0  0  0  0  0  0  0  0
    7.8675   -7.0096   15.9415 C   0  0  0  0  0  0  0  0  0  0  0  0
    5.9733   -9.6553   17.3832 N   0  0  0  0  0  0  0  0  0  0  0  0
   10.2411   -2.9363   23.4301 C   0  0  0  0  0  0  0  0  0  0  0  0
   10.7288   -3.8197   19.9525 C   0  0  0  0  0  0  0  0  0  0  0  0
   10.1189   -5.0054   19.6987 C   0  0  0  0  0  0  0  0  0  0  0  0
  1  3  4  0
  1  7  4  0
  2 21  4  0
  2 27  4  0
  3  9  4  0
  3 10  4  0
  4  8  4  0
  4 18  4  0
  4 25  1  0
  5  9  4  0
  5 12  4  0
  6 13  1  0
  6 27  1  0
  7 28  4  0
  8 11  4  0
  9 29  4  0
 10 12  4  0
 11 24  1  0
 11 26  4  0
 12 25  1  0
 13 28  1  0
 14 20  4  0
 14 23  4  0
 15 17  4  0
 15 21  4  0
 16 19  4  0
 16 23  4  0
 17 22  4  0
 18 26  4  0
 19 24  4  0
 20 24  4  0
 22 27  4  0
 28 29  4  0
M  END
$$$$

 Created by Python create_sdf_string function

 29 33  0  0  0  0  0  0  0  0999 V2000
   10.7215   -3.3326   17.6437 C   0  0  0  0  0  0  0  0  0  0  0  0
    9.9489   -3.4675   24.6487 N   0  0  0  0  0  0  0  0  0  0  0  0
   10.0172   -4.4740   17.4101 C   0  0  0  0  0  0  0  0  0  0  0  0
    6.9051   -7.9575   16.4222 C   0  0  0  0  0  0  0  0  0  0  0  0
    8.9969   -6.3552   17.9668 N   0  0  0  0  0  0  0  0  0  0  0  0
   10.6702   -3.9051   22.4070 C   0  0  0  0  0  0  0  0  0  0  0  0
   11.0625   -3.0028   18.8894 C   0  0  0  0  0  0  0  0  0  0  0  0
    5.6180   -7.9194   16.1754 O   0  0  0  0  0  0  0  0  0  0  0  0
    9.7259   -5.3080   18.4485 C   0  0  0  0  0  0  0  0  0  0  0  0
    9.4578   -5.0200   16.3036 N   0  0  0  0  0  0  0  0  0  0  0  0
    5.0287   -8.9365   16.8223 C   0  0  0  0  0  0  0  0  0  0  0  0
    8.7742   -6.1498   16.6764 C   0  0  0  0  0  0  0  0  0  0  0  0
   10.9418   -3.4032   21.2053 O   0  0  0  0  0  0  0  0  0  0  0  0
    1.4797   -8.6258   16.2950 C   0  0  0  0  0  0  0  0  0  0  0  0
    9.2861   -1.2743   25.3585 C   0  0  0  0  0  0  0  0  0  0  0  0
    1.8892  -10.3985   17.7511 N   0  0  0  0  0  0  0  0  0  0  0  0
    9.6210   -0.6952   24.0976 C   0  0  0  0  0  0  0  0  0  0  0  0
    7.0792   -9.0217   17.1429 C   0  0  0  0  0  0  0  0  0  0  0  0
    3.1713  -10.1816   17.6634 C   0  0  0  0  0  0  0  0  0  0  0  0
    2.7878   -8.3822   16.2137 C   0  0  0  0  0  0  0  0  0  0  0  0
    9.4601   -2.6590   25.6528 C   0  0  0  0  0  0  0  0  0  0  0  0
   10.1182   -1.5672   23.1165 C   0  0  0  0  0  0  0  0  0  0  0  0
    1.0552   -9.6360   17.0650 C   0  0  0  0  0  0  0  0  0  0  0  0
    3.6519   -9.1783   16.9039 C   0  0  0  0  0  0  0  0  0  0  0  0
    7.8675   -7.0096   15.9415 C   0  0  0  0  0  0  0  0  0  0  0  0
    5.9733   -9.6553   17.3832 N   0  0  0  0  0  0  0  0  0  0  0  0
   10.2411   -2.9363   23.4301 C   0  0  0  0  0  0  0  0  0  0  0  0
   10.7288   -3.8197   19.9525 C   0  0  0  0  0  0  0  0  0  0  0  0
   10.1189   -5.0054   19.6987 C   0  0  0  0  0  0  0  0  0  0  0  0
  1  3  4  0
  1  7  4  0
  2 21  4  0
  2 27  4  0
  3  9  4  0
  3 10  4  0
  4  8  4  0
  4 18  4  0
  4 25  1  0
  5  9  4  0
  5 12  4  0
  6 13  1  0
  6 27  1  0
  7 28  4  0
  8 11  4  0
  9 29  4  0
 10 12  4  0
 11 24  1  0
 11 26  4  0
 12 25  1  0
 13 28  1  0
 14 20  4  0
 14 23  4  0
 15 17  4  0
 15 21  4  0
 16 19  4  0
 16 23  4  0
 17 22  4  0
 18 26  4  0
 19 24  4  0
 20 24  4  0
 22 27  4  0
 28 29  4  0
M  END
$$$$

 Created by Python create_sdf_string function

 29 33  0  0  0  0  0  0  0  0999 V2000
   10.7215   -3.3326   17.6437 C   0  0  0  0  0  0  0  0  0  0  0  0
    9.9489   -3.4675   24.6487 N   0  0  0  0  0  0  0  0  0  0  0  0
   10.0172   -4.4740   17.4101 C   0  0  0  0  0  0  0  0  0  0  0  0
    6.9051   -7.9575   16.4222 C   0  0  0  0  0  0  0  0  0  0  0  0
    8.9969   -6.3552   17.9668 N   0  0  0  0  0  0  0  0  0  0  0  0
   10.6702   -3.9051   22.4070 C   0  0  0  0  0  0  0  0  0  0  0  0
   11.0625   -3.0028   18.8894 C   0  0  0  0  0  0  0  0  0  0  0  0
    5.6180   -7.9194   16.1754 O   0  0  0  0  0  0  0  0  0  0  0  0
    9.7259   -5.3080   18.4485 C   0  0  0  0  0  0  0  0  0  0  0  0
    9.4578   -5.0200   16.3036 N   0  0  0  0  0  0  0  0  0  0  0  0
    5.0287   -8.9365   16.8223 C   0  0  0  0  0  0  0  0  0  0  0  0
    8.7742   -6.1498   16.6764 C   0  0  0  0  0  0  0  0  0  0  0  0
   10.9418   -3.4032   21.2053 O   0  0  0  0  0  0  0  0  0  0  0  0
    1.4797   -8.6258   16.2950 C   0  0  0  0  0  0  0  0  0  0  0  0
    9.2861   -1.2743   25.3585 C   0  0  0  0  0  0  0  0  0  0  0  0
    1.8892  -10.3985   17.7511 N   0  0  0  0  0  0  0  0  0  0  0  0
    9.6210   -0.6952   24.0976 C   0  0  0  0  0  0  0  0  0  0  0  0
    7.0792   -9.0217   17.1429 C   0  0  0  0  0  0  0  0  0  0  0  0
    3.1713  -10.1816   17.6634 C   0  0  0  0  0  0  0  0  0  0  0  0
    2.7878   -8.3822   16.2137 C   0  0  0  0  0  0  0  0  0  0  0  0
    9.4601   -2.6590   25.6528 C   0  0  0  0  0  0  0  0  0  0  0  0
   10.1182   -1.5672   23.1165 C   0  0  0  0  0  0  0  0  0  0  0  0
    1.0552   -9.6360   17.0650 C   0  0  0  0  0  0  0  0  0  0  0  0
    3.6519   -9.1783   16.9039 C   0  0  0  0  0  0  0  0  0  0  0  0
    7.8675   -7.0096   15.9415 C   0  0  0  0  0  0  0  0  0  0  0  0
    5.9733   -9.6553   17.3832 N   0  0  0  0  0  0  0  0  0  0  0  0
   10.2411   -2.9363   23.4301 C   0  0  0  0  0  0  0  0  0  0  0  0
   10.7288   -3.8197   19.9525 C   0  0  0  0  0  0  0  0  0  0  0  0
   10.1189   -5.0054   19.6987 C   0  0  0  0  0  0  0  0  0  0  0  0
  1  3  4  0
  1  7  4  0
  2 21  4  0
  2 27  4  0
  3  9  4  0
  3 10  4  0
  4  8  4  0
  4 18  4  0
  4 25  1  0
  5  9  4  0
  5 12  4  0
  6 13  1  0
  6 27  1  0
  7 28  4  0
  8 11  4  0
  9 29  4  0
 10 12  4  0
 11 24  1  0
 11 26  4  0
 12 25  1  0
 13 28  1  0
 14 20  4  0
 14 23  4  0
 15 17  4  0
 15 21  4  0
 16 19  4  0
 16 23  4  0
 17 22  4  0
 18 26  4  0
 19 24  4  0
 20 24  4  0
 22 27  4  0
 28 29  4  0
M  END
$$$$

 Created by Python create_sdf_string function

 29 33  0  0  0  0  0  0  0  0999 V2000
   10.7215   -3.3326   17.6437 C   0  0  0  0  0  0  0  0  0  0  0  0
    9.9489   -3.4675   24.6487 N   0  0  0  0  0  0  0  0  0  0  0  0
   10.0172   -4.4740   17.4101 C   0  0  0  0  0  0  0  0  0  0  0  0
    6.9051   -7.9575   16.4222 C   0  0  0  0  0  0  0  0  0  0  0  0
    8.9969   -6.3552   17.9668 N   0  0  0  0  0  0  0  0  0  0  0  0
   10.6702   -3.9051   22.4070 C   0  0  0  0  0  0  0  0  0  0  0  0
   11.0625   -3.0028   18.8894 C   0  0  0  0  0  0  0  0  0  0  0  0
    5.6180   -7.9194   16.1754 O   0  0  0  0  0  0  0  0  0  0  0  0
    9.7259   -5.3080   18.4485 C   0  0  0  0  0  0  0  0  0  0  0  0
    9.4578   -5.0200   16.3036 N   0  0  0  0  0  0  0  0  0  0  0  0
    5.0287   -8.9365   16.8223 C   0  0  0  0  0  0  0  0  0  0  0  0
    8.7742   -6.1498   16.6764 C   0  0  0  0  0  0  0  0  0  0  0  0
   10.9418   -3.4032   21.2053 O   0  0  0  0  0  0  0  0  0  0  0  0
    1.4797   -8.6258   16.2950 C   0  0  0  0  0  0  0  0  0  0  0  0
    9.2861   -1.2743   25.3585 C   0  0  0  0  0  0  0  0  0  0  0  0
    1.8892  -10.3985   17.7511 N   0  0  0  0  0  0  0  0  0  0  0  0
    9.6210   -0.6952   24.0976 C   0  0  0  0  0  0  0  0  0  0  0  0
    7.0792   -9.0217   17.1429 C   0  0  0  0  0  0  0  0  0  0  0  0
    3.1713  -10.1816   17.6634 C   0  0  0  0  0  0  0  0  0  0  0  0
    2.7878   -8.3822   16.2137 C   0  0  0  0  0  0  0  0  0  0  0  0
    9.4601   -2.6590   25.6528 C   0  0  0  0  0  0  0  0  0  0  0  0
   10.1182   -1.5672   23.1165 C   0  0  0  0  0  0  0  0  0  0  0  0
    1.0552   -9.6360   17.0650 C   0  0  0  0  0  0  0  0  0  0  0  0
    3.6519   -9.1783   16.9039 C   0  0  0  0  0  0  0  0  0  0  0  0
    7.8675   -7.0096   15.9415 C   0  0  0  0  0  0  0  0  0  0  0  0
    5.9733   -9.6553   17.3832 N   0  0  0  0  0  0  0  0  0  0  0  0
   10.2411   -2.9363   23.4301 C   0  0  0  0  0  0  0  0  0  0  0  0
   10.7288   -3.8197   19.9525 C   0  0  0  0  0  0  0  0  0  0  0  0
   10.1189   -5.0054   19.6987 C   0  0  0  0  0  0  0  0  0  0  0  0
  1  3  4  0
  1  7  4  0
  2 21  4  0
  2 27  4  0
  3  9  4  0
  3 10  4  0
  4  8  4  0
  4 18  4  0
  4 25  1  0
  5  9  4  0
  5 12  4  0
  6 13  1  0
  6 27  1  0
  7 28  4  0
  8 11  4  0
  9 29  4  0
 10 12  4  0
 11 24  1  0
 11 26  4  0
 12 25  1  0
 13 28  1  0
 14 20  4  0
 14 23  4  0
 15 17  4  0
 15 21  4  0
 16 19  4  0
 16 23  4  0
 17 22  4  0
 18 26  4  0
 19 24  4  0
 20 24  4  0
 22 27  4  0
 28 29  4  0
M  END
$$$$

 Created by Python create_sdf_string function

 29 33  0  0  0  0  0  0  0  0999 V2000
   10.7215   -3.3326   17.6437 C   0  0  0  0  0  0  0  0  0  0  0  0
    9.9489   -3.4675   24.6487 N   0  0  0  0  0  0  0  0  0  0  0  0
   10.0172   -4.4740   17.4101 C   0  0  0  0  0  0  0  0  0  0  0  0
    6.9051   -7.9575   16.4222 C   0  0  0  0  0  0  0  0  0  0  0  0
    8.9969   -6.3552   17.9668 N   0  0  0  0  0  0  0  0  0  0  0  0
   10.6702   -3.9051   22.4070 C   0  0  0  0  0  0  0  0  0  0  0  0
   11.0625   -3.0028   18.8894 C   0  0  0  0  0  0  0  0  0  0  0  0
    5.6180   -7.9194   16.1754 O   0  0  0  0  0  0  0  0  0  0  0  0
    9.7259   -5.3080   18.4485 C   0  0  0  0  0  0  0  0  0  0  0  0
    9.4578   -5.0200   16.3036 N   0  0  0  0  0  0  0  0  0  0  0  0
    5.0287   -8.9365   16.8223 C   0  0  0  0  0  0  0  0  0  0  0  0
    8.7742   -6.1498   16.6764 C   0  0  0  0  0  0  0  0  0  0  0  0
   10.9418   -3.4032   21.2053 O   0  0  0  0  0  0  0  0  0  0  0  0
    1.4797   -8.6258   16.2950 C   0  0  0  0  0  0  0  0  0  0  0  0
    9.2861   -1.2743   25.3585 C   0  0  0  0  0  0  0  0  0  0  0  0
    1.8892  -10.3985   17.7511 N   0  0  0  0  0  0  0  0  0  0  0  0
    9.6210   -0.6952   24.0976 C   0  0  0  0  0  0  0  0  0  0  0  0
    7.0792   -9.0217   17.1429 C   0  0  0  0  0  0  0  0  0  0  0  0
    3.1713  -10.1816   17.6634 C   0  0  0  0  0  0  0  0  0  0  0  0
    2.7878   -8.3822   16.2137 C   0  0  0  0  0  0  0  0  0  0  0  0
    9.4601   -2.6590   25.6528 C   0  0  0  0  0  0  0  0  0  0  0  0
   10.1182   -1.5672   23.1165 C   0  0  0  0  0  0  0  0  0  0  0  0
    1.0552   -9.6360   17.0650 C   0  0  0  0  0  0  0  0  0  0  0  0
    3.6519   -9.1783   16.9039 C   0  0  0  0  0  0  0  0  0  0  0  0
    7.8675   -7.0096   15.9415 C   0  0  0  0  0  0  0  0  0  0  0  0
    5.9733   -9.6553   17.3832 N   0  0  0  0  0  0  0  0  0  0  0  0
   10.2411   -2.9363   23.4301 C   0  0  0  0  0  0  0  0  0  0  0  0
   10.7288   -3.8197   19.9525 C   0  0  0  0  0  0  0  0  0  0  0  0
   10.1189   -5.0054   19.6987 C   0  0  0  0  0  0  0  0  0  0  0  0
  1  3  4  0
  1  7  4  0
  2 21  4  0
  2 27  4  0
  3  9  4  0
  3 10  4  0
  4  8  4  0
  4 18  4  0
  4 25  1  0
  5  9  4  0
  5 12  4  0
  6 13  1  0
  6 27  1  0
  7 28  4  0
  8 11  4  0
  9 29  4  0
 10 12  4  0
 11 24  1  0
 11 26  4  0
 12 25  1  0
 13 28  1  0
 14 20  4  0
 14 23  4  0
 15 17  4  0
 15 21  4  0
 16 19  4  0
 16 23  4  0
 17 22  4  0
 18 26  4  0
 19 24  4  0
 20 24  4  0
 22 27  4  0
 28 29  4  0
M  END
$$$$

 Created by Python create_sdf_string function

 29 33  0  0  0  0  0  0  0  0999 V2000
   10.7215   -3.3326   17.6437 C   0  0  0  0  0  0  0  0  0  0  0  0
    9.9489   -3.4675   24.6487 N   0  0  0  0  0  0  0  0  0  0  0  0
   10.0172   -4.4740   17.4101 C   0  0  0  0  0  0  0  0  0  0  0  0
    6.9051   -7.9575   16.4222 C   0  0  0  0  0  0  0  0  0  0  0  0
    8.9969   -6.3552   17.9668 N   0  0  0  0  0  0  0  0  0  0  0  0
   10.6702   -3.9051   22.4070 C   0  0  0  0  0  0  0  0  0  0  0  0
   11.0625   -3.0028   18.8894 C   0  0  0  0  0  0  0  0  0  0  0  0
    5.6180   -7.9194   16.1754 O   0  0  0  0  0  0  0  0  0  0  0  0
    9.7259   -5.3080   18.4485 C   0  0  0  0  0  0  0  0  0  0  0  0
    9.4578   -5.0200   16.3036 N   0  0  0  0  0  0  0  0  0  0  0  0
    5.0287   -8.9365   16.8223 C   0  0  0  0  0  0  0  0  0  0  0  0
    8.7742   -6.1498   16.6764 C   0  0  0  0  0  0  0  0  0  0  0  0
   10.9418   -3.4032   21.2053 O   0  0  0  0  0  0  0  0  0  0  0  0
    1.4797   -8.6258   16.2950 C   0  0  0  0  0  0  0  0  0  0  0  0
    9.2861   -1.2743   25.3585 C   0  0  0  0  0  0  0  0  0  0  0  0
    1.8892  -10.3985   17.7511 N   0  0  0  0  0  0  0  0  0  0  0  0
    9.6210   -0.6952   24.0976 C   0  0  0  0  0  0  0  0  0  0  0  0
    7.0792   -9.0217   17.1429 C   0  0  0  0  0  0  0  0  0  0  0  0
    3.1713  -10.1816   17.6634 C   0  0  0  0  0  0  0  0  0  0  0  0
    2.7878   -8.3822   16.2137 C   0  0  0  0  0  0  0  0  0  0  0  0
    9.4601   -2.6590   25.6528 C   0  0  0  0  0  0  0  0  0  0  0  0
   10.1182   -1.5672   23.1165 C   0  0  0  0  0  0  0  0  0  0  0  0
    1.0552   -9.6360   17.0650 C   0  0  0  0  0  0  0  0  0  0  0  0
    3.6519   -9.1783   16.9039 C   0  0  0  0  0  0  0  0  0  0  0  0
    7.8675   -7.0096   15.9415 C   0  0  0  0  0  0  0  0  0  0  0  0
    5.9733   -9.6553   17.3832 N   0  0  0  0  0  0  0  0  0  0  0  0
   10.2411   -2.9363   23.4301 C   0  0  0  0  0  0  0  0  0  0  0  0
   10.7288   -3.8197   19.9525 C   0  0  0  0  0  0  0  0  0  0  0  0
   10.1189   -5.0054   19.6987 C   0  0  0  0  0  0  0  0  0  0  0  0
  1  3  4  0
  1  7  4  0
  2 21  4  0
  2 27  4  0
  3  9  4  0
  3 10  4  0
  4  8  4  0
  4 18  4  0
  4 25  1  0
  5  9  4  0
  5 12  4  0
  6 13  1  0
  6 27  1  0
  7 28  4  0
  8 11  4  0
  9 29  4  0
 10 12  4  0
 11 24  1  0
 11 26  4  0
 12 25  1  0
 13 28  1  0
 14 20  4  0
 14 23  4  0
 15 17  4  0
 15 21  4  0
 16 19  4  0
 16 23  4  0
 17 22  4  0
 18 26  4  0
 19 24  4  0
 20 24  4  0
 22 27  4  0
 28 29  4  0
M  END
$$$$

 Created by Python create_sdf_string function

 29 33  0  0  0  0  0  0  0  0999 V2000
   10.7215   -3.3326   17.6437 C   0  0  0  0  0  0  0  0  0  0  0  0
    9.9489   -3.4675   24.6487 N   0  0  0  0  0  0  0  0  0  0  0  0
   10.0172   -4.4740   17.4101 C   0  0  0  0  0  0  0  0  0  0  0  0
    6.9051   -7.9575   16.4222 C   0  0  0  0  0  0  0  0  0  0  0  0
    8.9969   -6.3552   17.9668 N   0  0  0  0  0  0  0  0  0  0  0  0
   10.6702   -3.9051   22.4070 C   0  0  0  0  0  0  0  0  0  0  0  0
   11.0625   -3.0028   18.8894 C   0  0  0  0  0  0  0  0  0  0  0  0
    5.6180   -7.9194   16.1754 O   0  0  0  0  0  0  0  0  0  0  0  0
    9.7259   -5.3080   18.4485 C   0  0  0  0  0  0  0  0  0  0  0  0
    9.4578   -5.0200   16.3036 N   0  0  0  0  0  0  0  0  0  0  0  0
    5.0287   -8.9365   16.8223 C   0  0  0  0  0  0  0  0  0  0  0  0
    8.7742   -6.1498   16.6764 C   0  0  0  0  0  0  0  0  0  0  0  0
   10.9418   -3.4032   21.2053 O   0  0  0  0  0  0  0  0  0  0  0  0
    1.4797   -8.6258   16.2950 C   0  0  0  0  0  0  0  0  0  0  0  0
    9.2861   -1.2743   25.3585 C   0  0  0  0  0  0  0  0  0  0  0  0
    1.8892  -10.3985   17.7511 N   0  0  0  0  0  0  0  0  0  0  0  0
    9.6210   -0.6952   24.0976 C   0  0  0  0  0  0  0  0  0  0  0  0
    7.0792   -9.0217   17.1429 C   0  0  0  0  0  0  0  0  0  0  0  0
    3.1713  -10.1816   17.6634 C   0  0  0  0  0  0  0  0  0  0  0  0
    2.7878   -8.3822   16.2137 C   0  0  0  0  0  0  0  0  0  0  0  0
    9.4601   -2.6590   25.6528 C   0  0  0  0  0  0  0  0  0  0  0  0
   10.1182   -1.5672   23.1165 C   0  0  0  0  0  0  0  0  0  0  0  0
    1.0552   -9.6360   17.0650 C   0  0  0  0  0  0  0  0  0  0  0  0
    3.6519   -9.1783   16.9039 C   0  0  0  0  0  0  0  0  0  0  0  0
    7.8675   -7.0096   15.9415 C   0  0  0  0  0  0  0  0  0  0  0  0
    5.9733   -9.6553   17.3832 N   0  0  0  0  0  0  0  0  0  0  0  0
   10.2411   -2.9363   23.4301 C   0  0  0  0  0  0  0  0  0  0  0  0
   10.7288   -3.8197   19.9525 C   0  0  0  0  0  0  0  0  0  0  0  0
   10.1189   -5.0054   19.6987 C   0  0  0  0  0  0  0  0  0  0  0  0
  1  3  4  0
  1  7  4  0
  2 21  4  0
  2 27  4  0
  3  9  4  0
  3 10  4  0
  4  8  4  0
  4 18  4  0
  4 25  1  0
  5  9  4  0
  5 12  4  0
  6 13  1  0
  6 27  1  0
  7 28  4  0
  8 11  4  0
  9 29  4  0
 10 12  4  0
 11 24  1  0
 11 26  4  0
 12 25  1  0
 13 28  1  0
 14 20  4  0
 14 23  4  0
 15 17  4  0
 15 21  4  0
 16 19  4  0
 16 23  4  0
 17 22  4  0
 18 26  4  0
 19 24  4  0
 20 24  4  0
 22 27  4  0
 28 29  4  0
M  END
$$$$

 Created by Python create_sdf_string function

 29 33  0  0  0  0  0  0  0  0999 V2000
   10.7215   -3.3326   17.6437 C   0  0  0  0  0  0  0  0  0  0  0  0
    9.9489   -3.4675   24.6487 N   0  0  0  0  0  0  0  0  0  0  0  0
   10.0172   -4.4740   17.4101 C   0  0  0  0  0  0  0  0  0  0  0  0
    6.9051   -7.9575   16.4222 C   0  0  0  0  0  0  0  0  0  0  0  0
    8.9969   -6.3552   17.9668 N   0  0  0  0  0  0  0  0  0  0  0  0
   10.6702   -3.9051   22.4070 C   0  0  0  0  0  0  0  0  0  0  0  0
   11.0625   -3.0028   18.8894 C   0  0  0  0  0  0  0  0  0  0  0  0
    5.6180   -7.9194   16.1754 O   0  0  0  0  0  0  0  0  0  0  0  0
    9.7259   -5.3080   18.4485 C   0  0  0  0  0  0  0  0  0  0  0  0
    9.4578   -5.0200   16.3036 N   0  0  0  0  0  0  0  0  0  0  0  0
    5.0287   -8.9365   16.8223 C   0  0  0  0  0  0  0  0  0  0  0  0
    8.7742   -6.1498   16.6764 C   0  0  0  0  0  0  0  0  0  0  0  0
   10.9418   -3.4032   21.2053 O   0  0  0  0  0  0  0  0  0  0  0  0
    1.4797   -8.6258   16.2950 C   0  0  0  0  0  0  0  0  0  0  0  0
    9.2861   -1.2743   25.3585 C   0  0  0  0  0  0  0  0  0  0  0  0
    1.8892  -10.3985   17.7511 N   0  0  0  0  0  0  0  0  0  0  0  0
    9.6210   -0.6952   24.0976 C   0  0  0  0  0  0  0  0  0  0  0  0
    7.0792   -9.0217   17.1429 C   0  0  0  0  0  0  0  0  0  0  0  0
    3.1713  -10.1816   17.6634 C   0  0  0  0  0  0  0  0  0  0  0  0
    2.7878   -8.3822   16.2137 C   0  0  0  0  0  0  0  0  0  0  0  0
    9.4601   -2.6590   25.6528 C   0  0  0  0  0  0  0  0  0  0  0  0
   10.1182   -1.5672   23.1165 C   0  0  0  0  0  0  0  0  0  0  0  0
    1.0552   -9.6360   17.0650 C   0  0  0  0  0  0  0  0  0  0  0  0
    3.6519   -9.1783   16.9039 C   0  0  0  0  0  0  0  0  0  0  0  0
    7.8675   -7.0096   15.9415 C   0  0  0  0  0  0  0  0  0  0  0  0
    5.9733   -9.6553   17.3832 N   0  0  0  0  0  0  0  0  0  0  0  0
   10.2411   -2.9363   23.4301 C   0  0  0  0  0  0  0  0  0  0  0  0
   10.7288   -3.8197   19.9525 C   0  0  0  0  0  0  0  0  0  0  0  0
   10.1189   -5.0054   19.6987 C   0  0  0  0  0  0  0  0  0  0  0  0
  1  3  4  0
  1  7  4  0
  2 21  4  0
  2 27  4  0
  3  9  4  0
  3 10  4  0
  4  8  4  0
  4 18  4  0
  4 25  1  0
  5  9  4  0
  5 12  4  0
  6 13  1  0
  6 27  1  0
  7 28  4  0
  8 11  4  0
  9 29  4  0
 10 12  4  0
 11 24  1  0
 11 26  4  0
 12 25  1  0
 13 28  1  0
 14 20  4  0
 14 23  4  0
 15 17  4  0
 15 21  4  0
 16 19  4  0
 16 23  4  0
 17 22  4  0
 18 26  4  0
 19 24  4  0
 20 24  4  0
 22 27  4  0
 28 29  4  0
M  END
$$$$

 Created by Python create_sdf_string function

 29 33  0  0  0  0  0  0  0  0999 V2000
   10.7215   -3.3326   17.6437 C   0  0  0  0  0  0  0  0  0  0  0  0
    9.9489   -3.4675   24.6487 N   0  0  0  0  0  0  0  0  0  0  0  0
   10.0172   -4.4740   17.4101 C   0  0  0  0  0  0  0  0  0  0  0  0
    6.9051   -7.9575   16.4222 C   0  0  0  0  0  0  0  0  0  0  0  0
    8.9969   -6.3552   17.9668 N   0  0  0  0  0  0  0  0  0  0  0  0
   10.6702   -3.9051   22.4070 C   0  0  0  0  0  0  0  0  0  0  0  0
   11.0625   -3.0028   18.8894 C   0  0  0  0  0  0  0  0  0  0  0  0
    5.6180   -7.9194   16.1754 O   0  0  0  0  0  0  0  0  0  0  0  0
    9.7259   -5.3080   18.4485 C   0  0  0  0  0  0  0  0  0  0  0  0
    9.4578   -5.0200   16.3036 N   0  0  0  0  0  0  0  0  0  0  0  0
    5.0287   -8.9365   16.8223 C   0  0  0  0  0  0  0  0  0  0  0  0
    8.7742   -6.1498   16.6764 C   0  0  0  0  0  0  0  0  0  0  0  0
   10.9418   -3.4032   21.2053 O   0  0  0  0  0  0  0  0  0  0  0  0
    1.4797   -8.6258   16.2950 C   0  0  0  0  0  0  0  0  0  0  0  0
    9.2861   -1.2743   25.3585 C   0  0  0  0  0  0  0  0  0  0  0  0
    1.8892  -10.3985   17.7511 N   0  0  0  0  0  0  0  0  0  0  0  0
    9.6210   -0.6952   24.0976 C   0  0  0  0  0  0  0  0  0  0  0  0
    7.0792   -9.0217   17.1429 C   0  0  0  0  0  0  0  0  0  0  0  0
    3.1713  -10.1816   17.6634 C   0  0  0  0  0  0  0  0  0  0  0  0
    2.7878   -8.3822   16.2137 C   0  0  0  0  0  0  0  0  0  0  0  0
    9.4601   -2.6590   25.6528 C   0  0  0  0  0  0  0  0  0  0  0  0
   10.1182   -1.5672   23.1165 C   0  0  0  0  0  0  0  0  0  0  0  0
    1.0552   -9.6360   17.0650 C   0  0  0  0  0  0  0  0  0  0  0  0
    3.6519   -9.1783   16.9039 C   0  0  0  0  0  0  0  0  0  0  0  0
    7.8675   -7.0096   15.9415 C   0  0  0  0  0  0  0  0  0  0  0  0
    5.9733   -9.6553   17.3832 N   0  0  0  0  0  0  0  0  0  0  0  0
   10.2411   -2.9363   23.4301 C   0  0  0  0  0  0  0  0  0  0  0  0
   10.7288   -3.8197   19.9525 C   0  0  0  0  0  0  0  0  0  0  0  0
   10.1189   -5.0054   19.6987 C   0  0  0  0  0  0  0  0  0  0  0  0
  1  3  4  0
  1  7  4  0
  2 21  4  0
  2 27  4  0
  3  9  4  0
  3 10  4  0
  4  8  4  0
  4 18  4  0
  4 25  1  0
  5  9  4  0
  5 12  4  0
  6 13  1  0
  6 27  1  0
  7 28  4  0
  8 11  4  0
  9 29  4  0
 10 12  4  0
 11 24  1  0
 11 26  4  0
 12 25  1  0
 13 28  1  0
 14 20  4  0
 14 23  4  0
 15 17  4  0
 15 21  4  0
 16 19  4  0
 16 23  4  0
 17 22  4  0
 18 26  4  0
 19 24  4  0
 20 24  4  0
 22 27  4  0
 28 29  4  0
M  END
$$$$

 Created by Python create_sdf_string function

 29 33  0  0  0  0  0  0  0  0999 V2000
   10.7215   -3.3326   17.6437 C   0  0  0  0  0  0  0  0  0  0  0  0
    9.9489   -3.4675   24.6487 N   0  0  0  0  0  0  0  0  0  0  0  0
   10.0172   -4.4740   17.4101 C   0  0  0  0  0  0  0  0  0  0  0  0
    6.9051   -7.9575   16.4222 C   0  0  0  0  0  0  0  0  0  0  0  0
    8.9969   -6.3552   17.9668 N   0  0  0  0  0  0  0  0  0  0  0  0
   10.6702   -3.9051   22.4070 C   0  0  0  0  0  0  0  0  0  0  0  0
   11.0625   -3.0028   18.8894 C   0  0  0  0  0  0  0  0  0  0  0  0
    5.6180   -7.9194   16.1754 O   0  0  0  0  0  0  0  0  0  0  0  0
    9.7259   -5.3080   18.4485 C   0  0  0  0  0  0  0  0  0  0  0  0
    9.4578   -5.0200   16.3036 N   0  0  0  0  0  0  0  0  0  0  0  0
    5.0287   -8.9365   16.8223 C   0  0  0  0  0  0  0  0  0  0  0  0
    8.7742   -6.1498   16.6764 C   0  0  0  0  0  0  0  0  0  0  0  0
   10.9418   -3.4032   21.2053 O   0  0  0  0  0  0  0  0  0  0  0  0
    1.4797   -8.6258   16.2950 C   0  0  0  0  0  0  0  0  0  0  0  0
    9.2861   -1.2743   25.3585 C   0  0  0  0  0  0  0  0  0  0  0  0
    1.8892  -10.3985   17.7511 N   0  0  0  0  0  0  0  0  0  0  0  0
    9.6210   -0.6952   24.0976 C   0  0  0  0  0  0  0  0  0  0  0  0
    7.0792   -9.0217   17.1429 C   0  0  0  0  0  0  0  0  0  0  0  0
    3.1713  -10.1816   17.6634 C   0  0  0  0  0  0  0  0  0  0  0  0
    2.7878   -8.3822   16.2137 C   0  0  0  0  0  0  0  0  0  0  0  0
    9.4601   -2.6590   25.6528 C   0  0  0  0  0  0  0  0  0  0  0  0
   10.1182   -1.5672   23.1165 C   0  0  0  0  0  0  0  0  0  0  0  0
    1.0552   -9.6360   17.0650 C   0  0  0  0  0  0  0  0  0  0  0  0
    3.6519   -9.1783   16.9039 C   0  0  0  0  0  0  0  0  0  0  0  0
    7.8675   -7.0096   15.9415 C   0  0  0  0  0  0  0  0  0  0  0  0
    5.9733   -9.6553   17.3832 N   0  0  0  0  0  0  0  0  0  0  0  0
   10.2411   -2.9363   23.4301 C   0  0  0  0  0  0  0  0  0  0  0  0
   10.7288   -3.8197   19.9525 C   0  0  0  0  0  0  0  0  0  0  0  0
   10.1189   -5.0054   19.6987 C   0  0  0  0  0  0  0  0  0  0  0  0
  1  3  4  0
  1  7  4  0
  2 21  4  0
  2 27  4  0
  3  9  4  0
  3 10  4  0
  4  8  4  0
  4 18  4  0
  4 25  1  0
  5  9  4  0
  5 12  4  0
  6 13  1  0
  6 27  1  0
  7 28  4  0
  8 11  4  0
  9 29  4  0
 10 12  4  0
 11 24  1  0
 11 26  4  0
 12 25  1  0
 13 28  1  0
 14 20  4  0
 14 23  4  0
 15 17  4  0
 15 21  4  0
 16 19  4  0
 16 23  4  0
 17 22  4  0
 18 26  4  0
 19 24  4  0
 20 24  4  0
 22 27  4  0
 28 29  4  0
M  END
$$$$

 Created by Python create_sdf_string function

 29 33  0  0  0  0  0  0  0  0999 V2000
   10.7215   -3.3326   17.6437 C   0  0  0  0  0  0  0  0  0  0  0  0
    9.9489   -3.4675   24.6487 N   0  0  0  0  0  0  0  0  0  0  0  0
   10.0172   -4.4740   17.4101 C   0  0  0  0  0  0  0  0  0  0  0  0
    6.9051   -7.9575   16.4222 C   0  0  0  0  0  0  0  0  0  0  0  0
    8.9969   -6.3552   17.9668 N   0  0  0  0  0  0  0  0  0  0  0  0
   10.6702   -3.9051   22.4070 C   0  0  0  0  0  0  0  0  0  0  0  0
   11.0625   -3.0028   18.8894 C   0  0  0  0  0  0  0  0  0  0  0  0
    5.6180   -7.9194   16.1754 O   0  0  0  0  0  0  0  0  0  0  0  0
    9.7259   -5.3080   18.4485 C   0  0  0  0  0  0  0  0  0  0  0  0
    9.4578   -5.0200   16.3036 N   0  0  0  0  0  0  0  0  0  0  0  0
    5.0287   -8.9365   16.8223 C   0  0  0  0  0  0  0  0  0  0  0  0
    8.7742   -6.1498   16.6764 C   0  0  0  0  0  0  0  0  0  0  0  0
   10.9418   -3.4032   21.2053 O   0  0  0  0  0  0  0  0  0  0  0  0
    1.4797   -8.6258   16.2950 C   0  0  0  0  0  0  0  0  0  0  0  0
    9.2861   -1.2743   25.3585 C   0  0  0  0  0  0  0  0  0  0  0  0
    1.8892  -10.3985   17.7511 N   0  0  0  0  0  0  0  0  0  0  0  0
    9.6210   -0.6952   24.0976 C   0  0  0  0  0  0  0  0  0  0  0  0
    7.0792   -9.0217   17.1429 C   0  0  0  0  0  0  0  0  0  0  0  0
    3.1713  -10.1816   17.6634 C   0  0  0  0  0  0  0  0  0  0  0  0
    2.7878   -8.3822   16.2137 C   0  0  0  0  0  0  0  0  0  0  0  0
    9.4601   -2.6590   25.6528 C   0  0  0  0  0  0  0  0  0  0  0  0
   10.1182   -1.5672   23.1165 C   0  0  0  0  0  0  0  0  0  0  0  0
    1.0552   -9.6360   17.0650 C   0  0  0  0  0  0  0  0  0  0  0  0
    3.6519   -9.1783   16.9039 C   0  0  0  0  0  0  0  0  0  0  0  0
    7.8675   -7.0096   15.9415 C   0  0  0  0  0  0  0  0  0  0  0  0
    5.9733   -9.6553   17.3832 N   0  0  0  0  0  0  0  0  0  0  0  0
   10.2411   -2.9363   23.4301 C   0  0  0  0  0  0  0  0  0  0  0  0
   10.7288   -3.8197   19.9525 C   0  0  0  0  0  0  0  0  0  0  0  0
   10.1189   -5.0054   19.6987 C   0  0  0  0  0  0  0  0  0  0  0  0
  1  3  4  0
  1  7  4  0
  2 21  4  0
  2 27  4  0
  3  9  4  0
  3 10  4  0
  4  8  4  0
  4 18  4  0
  4 25  1  0
  5  9  4  0
  5 12  4  0
  6 13  1  0
  6 27  1  0
  7 28  4  0
  8 11  4  0
  9 29  4  0
 10 12  4  0
 11 24  1  0
 11 26  4  0
 12 25  1  0
 13 28  1  0
 14 20  4  0
 14 23  4  0
 15 17  4  0
 15 21  4  0
 16 19  4  0
 16 23  4  0
 17 22  4  0
 18 26  4  0
 19 24  4  0
 20 24  4  0
 22 27  4  0
 28 29  4  0
M  END
$$$$

 Created by Python create_sdf_string function

 29 33  0  0  0  0  0  0  0  0999 V2000
   10.7215   -3.3326   17.6437 C   0  0  0  0  0  0  0  0  0  0  0  0
    9.9489   -3.4675   24.6487 N   0  0  0  0  0  0  0  0  0  0  0  0
   10.0172   -4.4740   17.4101 C   0  0  0  0  0  0  0  0  0  0  0  0
    6.9051   -7.9575   16.4222 C   0  0  0  0  0  0  0  0  0  0  0  0
    8.9969   -6.3552   17.9668 N   0  0  0  0  0  0  0  0  0  0  0  0
   10.6702   -3.9051   22.4070 C   0  0  0  0  0  0  0  0  0  0  0  0
   11.0625   -3.0028   18.8894 C   0  0  0  0  0  0  0  0  0  0  0  0
    5.6180   -7.9194   16.1754 O   0  0  0  0  0  0  0  0  0  0  0  0
    9.7259   -5.3080   18.4485 C   0  0  0  0  0  0  0  0  0  0  0  0
    9.4578   -5.0200   16.3036 N   0  0  0  0  0  0  0  0  0  0  0  0
    5.0287   -8.9365   16.8223 C   0  0  0  0  0  0  0  0  0  0  0  0
    8.7742   -6.1498   16.6764 C   0  0  0  0  0  0  0  0  0  0  0  0
   10.9418   -3.4032   21.2053 O   0  0  0  0  0  0  0  0  0  0  0  0
    1.4797   -8.6258   16.2950 C   0  0  0  0  0  0  0  0  0  0  0  0
    9.2861   -1.2743   25.3585 C   0  0  0  0  0  0  0  0  0  0  0  0
    1.8892  -10.3985   17.7511 N   0  0  0  0  0  0  0  0  0  0  0  0
    9.6210   -0.6952   24.0976 C   0  0  0  0  0  0  0  0  0  0  0  0
    7.0792   -9.0217   17.1429 C   0  0  0  0  0  0  0  0  0  0  0  0
    3.1713  -10.1816   17.6634 C   0  0  0  0  0  0  0  0  0  0  0  0
    2.7878   -8.3822   16.2137 C   0  0  0  0  0  0  0  0  0  0  0  0
    9.4601   -2.6590   25.6528 C   0  0  0  0  0  0  0  0  0  0  0  0
   10.1182   -1.5672   23.1165 C   0  0  0  0  0  0  0  0  0  0  0  0
    1.0552   -9.6360   17.0650 C   0  0  0  0  0  0  0  0  0  0  0  0
    3.6519   -9.1783   16.9039 C   0  0  0  0  0  0  0  0  0  0  0  0
    7.8675   -7.0096   15.9415 C   0  0  0  0  0  0  0  0  0  0  0  0
    5.9733   -9.6553   17.3832 N   0  0  0  0  0  0  0  0  0  0  0  0
   10.2411   -2.9363   23.4301 C   0  0  0  0  0  0  0  0  0  0  0  0
   10.7288   -3.8197   19.9525 C   0  0  0  0  0  0  0  0  0  0  0  0
   10.1189   -5.0054   19.6987 C   0  0  0  0  0  0  0  0  0  0  0  0
  1  3  4  0
  1  7  4  0
  2 21  4  0
  2 27  4  0
  3  9  4  0
  3 10  4  0
  4  8  4  0
  4 18  4  0
  4 25  1  0
  5  9  4  0
  5 12  4  0
  6 13  1  0
  6 27  1  0
  7 28  4  0
  8 11  4  0
  9 29  4  0
 10 12  4  0
 11 24  1  0
 11 26  4  0
 12 25  1  0
 13 28  1  0
 14 20  4  0
 14 23  4  0
 15 17  4  0
 15 21  4  0
 16 19  4  0
 16 23  4  0
 17 22  4  0
 18 26  4  0
 19 24  4  0
 20 24  4  0
 22 27  4  0
 28 29  4  0
M  END
$$$$

 Created by Python create_sdf_string function

 29 33  0  0  0  0  0  0  0  0999 V2000
   10.7215   -3.3326   17.6437 C   0  0  0  0  0  0  0  0  0  0  0  0
    9.9489   -3.4675   24.6487 N   0  0  0  0  0  0  0  0  0  0  0  0
   10.0172   -4.4740   17.4101 C   0  0  0  0  0  0  0  0  0  0  0  0
    6.9051   -7.9575   16.4222 C   0  0  0  0  0  0  0  0  0  0  0  0
    8.9969   -6.3552   17.9668 N   0  0  0  0  0  0  0  0  0  0  0  0
   10.6702   -3.9051   22.4070 C   0  0  0  0  0  0  0  0  0  0  0  0
   11.0625   -3.0028   18.8894 C   0  0  0  0  0  0  0  0  0  0  0  0
    5.6180   -7.9194   16.1754 O   0  0  0  0  0  0  0  0  0  0  0  0
    9.7259   -5.3080   18.4485 C   0  0  0  0  0  0  0  0  0  0  0  0
    9.4578   -5.0200   16.3036 N   0  0  0  0  0  0  0  0  0  0  0  0
    5.0287   -8.9365   16.8223 C   0  0  0  0  0  0  0  0  0  0  0  0
    8.7742   -6.1498   16.6764 C   0  0  0  0  0  0  0  0  0  0  0  0
   10.9418   -3.4032   21.2053 O   0  0  0  0  0  0  0  0  0  0  0  0
    1.4797   -8.6258   16.2950 C   0  0  0  0  0  0  0  0  0  0  0  0
    9.2861   -1.2743   25.3585 C   0  0  0  0  0  0  0  0  0  0  0  0
    1.8892  -10.3985   17.7511 N   0  0  0  0  0  0  0  0  0  0  0  0
    9.6210   -0.6952   24.0976 C   0  0  0  0  0  0  0  0  0  0  0  0
    7.0792   -9.0217   17.1429 C   0  0  0  0  0  0  0  0  0  0  0  0
    3.1713  -10.1816   17.6634 C   0  0  0  0  0  0  0  0  0  0  0  0
    2.7878   -8.3822   16.2137 C   0  0  0  0  0  0  0  0  0  0  0  0
    9.4601   -2.6590   25.6528 C   0  0  0  0  0  0  0  0  0  0  0  0
   10.1182   -1.5672   23.1165 C   0  0  0  0  0  0  0  0  0  0  0  0
    1.0552   -9.6360   17.0650 C   0  0  0  0  0  0  0  0  0  0  0  0
    3.6519   -9.1783   16.9039 C   0  0  0  0  0  0  0  0  0  0  0  0
    7.8675   -7.0096   15.9415 C   0  0  0  0  0  0  0  0  0  0  0  0
    5.9733   -9.6553   17.3832 N   0  0  0  0  0  0  0  0  0  0  0  0
   10.2411   -2.9363   23.4301 C   0  0  0  0  0  0  0  0  0  0  0  0
   10.7288   -3.8197   19.9525 C   0  0  0  0  0  0  0  0  0  0  0  0
   10.1189   -5.0054   19.6987 C   0  0  0  0  0  0  0  0  0  0  0  0
  1  3  4  0
  1  7  4  0
  2 21  4  0
  2 27  4  0
  3  9  4  0
  3 10  4  0
  4  8  4  0
  4 18  4  0
  4 25  1  0
  5  9  4  0
  5 12  4  0
  6 13  1  0
  6 27  1  0
  7 28  4  0
  8 11  4  0
  9 29  4  0
 10 12  4  0
 11 24  1  0
 11 26  4  0
 12 25  1  0
 13 28  1  0
 14 20  4  0
 14 23  4  0
 15 17  4  0
 15 21  4  0
 16 19  4  0
 16 23  4  0
 17 22  4  0
 18 26  4  0
 19 24  4  0
 20 24  4  0
 22 27  4  0
 28 29  4  0
M  END
$$$$

 Created by Python create_sdf_string function

 29 33  0  0  0  0  0  0  0  0999 V2000
   10.7215   -3.3326   17.6437 C   0  0  0  0  0  0  0  0  0  0  0  0
    9.9489   -3.4675   24.6487 N   0  0  0  0  0  0  0  0  0  0  0  0
   10.0172   -4.4740   17.4101 C   0  0  0  0  0  0  0  0  0  0  0  0
    6.9051   -7.9575   16.4222 C   0  0  0  0  0  0  0  0  0  0  0  0
    8.9969   -6.3552   17.9668 N   0  0  0  0  0  0  0  0  0  0  0  0
   10.6702   -3.9051   22.4070 C   0  0  0  0  0  0  0  0  0  0  0  0
   11.0625   -3.0028   18.8894 C   0  0  0  0  0  0  0  0  0  0  0  0
    5.6180   -7.9194   16.1754 O   0  0  0  0  0  0  0  0  0  0  0  0
    9.7259   -5.3080   18.4485 C   0  0  0  0  0  0  0  0  0  0  0  0
    9.4578   -5.0200   16.3036 N   0  0  0  0  0  0  0  0  0  0  0  0
    5.0287   -8.9365   16.8223 C   0  0  0  0  0  0  0  0  0  0  0  0
    8.7742   -6.1498   16.6764 C   0  0  0  0  0  0  0  0  0  0  0  0
   10.9418   -3.4032   21.2053 O   0  0  0  0  0  0  0  0  0  0  0  0
    1.4797   -8.6258   16.2950 C   0  0  0  0  0  0  0  0  0  0  0  0
    9.2861   -1.2743   25.3585 C   0  0  0  0  0  0  0  0  0  0  0  0
    1.8892  -10.3985   17.7511 N   0  0  0  0  0  0  0  0  0  0  0  0
    9.6210   -0.6952   24.0976 C   0  0  0  0  0  0  0  0  0  0  0  0
    7.0792   -9.0217   17.1429 C   0  0  0  0  0  0  0  0  0  0  0  0
    3.1713  -10.1816   17.6634 C   0  0  0  0  0  0  0  0  0  0  0  0
    2.7878   -8.3822   16.2137 C   0  0  0  0  0  0  0  0  0  0  0  0
    9.4601   -2.6590   25.6528 C   0  0  0  0  0  0  0  0  0  0  0  0
   10.1182   -1.5672   23.1165 C   0  0  0  0  0  0  0  0  0  0  0  0
    1.0552   -9.6360   17.0650 C   0  0  0  0  0  0  0  0  0  0  0  0
    3.6519   -9.1783   16.9039 C   0  0  0  0  0  0  0  0  0  0  0  0
    7.8675   -7.0096   15.9415 C   0  0  0  0  0  0  0  0  0  0  0  0
    5.9733   -9.6553   17.3832 N   0  0  0  0  0  0  0  0  0  0  0  0
   10.2411   -2.9363   23.4301 C   0  0  0  0  0  0  0  0  0  0  0  0
   10.7288   -3.8197   19.9525 C   0  0  0  0  0  0  0  0  0  0  0  0
   10.1189   -5.0054   19.6987 C   0  0  0  0  0  0  0  0  0  0  0  0
  1  3  4  0
  1  7  4  0
  2 21  4  0
  2 27  4  0
  3  9  4  0
  3 10  4  0
  4  8  4  0
  4 18  4  0
  4 25  1  0
  5  9  4  0
  5 12  4  0
  6 13  1  0
  6 27  1  0
  7 28  4  0
  8 11  4  0
  9 29  4  0
 10 12  4  0
 11 24  1  0
 11 26  4  0
 12 25  1  0
 13 28  1  0
 14 20  4  0
 14 23  4  0
 15 17  4  0
 15 21  4  0
 16 19  4  0
 16 23  4  0
 17 22  4  0
 18 26  4  0
 19 24  4  0
 20 24  4  0
 22 27  4  0
 28 29  4  0
M  END
$$$$

 Created by Python create_sdf_string function

 29 33  0  0  0  0  0  0  0  0999 V2000
   10.7215   -3.3326   17.6437 C   0  0  0  0  0  0  0  0  0  0  0  0
    9.9489   -3.4675   24.6487 N   0  0  0  0  0  0  0  0  0  0  0  0
   10.0172   -4.4740   17.4101 C   0  0  0  0  0  0  0  0  0  0  0  0
    6.9051   -7.9575   16.4222 C   0  0  0  0  0  0  0  0  0  0  0  0
    8.9969   -6.3552   17.9668 N   0  0  0  0  0  0  0  0  0  0  0  0
   10.6702   -3.9051   22.4070 C   0  0  0  0  0  0  0  0  0  0  0  0
   11.0625   -3.0028   18.8894 C   0  0  0  0  0  0  0  0  0  0  0  0
    5.6180   -7.9194   16.1754 O   0  0  0  0  0  0  0  0  0  0  0  0
    9.7259   -5.3080   18.4485 C   0  0  0  0  0  0  0  0  0  0  0  0
    9.4578   -5.0200   16.3036 N   0  0  0  0  0  0  0  0  0  0  0  0
    5.0287   -8.9365   16.8223 C   0  0  0  0  0  0  0  0  0  0  0  0
    8.7742   -6.1498   16.6764 C   0  0  0  0  0  0  0  0  0  0  0  0
   10.9418   -3.4032   21.2053 O   0  0  0  0  0  0  0  0  0  0  0  0
    1.4797   -8.6258   16.2950 C   0  0  0  0  0  0  0  0  0  0  0  0
    9.2861   -1.2743   25.3585 C   0  0  0  0  0  0  0  0  0  0  0  0
    1.8892  -10.3985   17.7511 N   0  0  0  0  0  0  0  0  0  0  0  0
    9.6210   -0.6952   24.0976 C   0  0  0  0  0  0  0  0  0  0  0  0
    7.0792   -9.0217   17.1429 C   0  0  0  0  0  0  0  0  0  0  0  0
    3.1713  -10.1816   17.6634 C   0  0  0  0  0  0  0  0  0  0  0  0
    2.7878   -8.3822   16.2137 C   0  0  0  0  0  0  0  0  0  0  0  0
    9.4601   -2.6590   25.6528 C   0  0  0  0  0  0  0  0  0  0  0  0
   10.1182   -1.5672   23.1165 C   0  0  0  0  0  0  0  0  0  0  0  0
    1.0552   -9.6360   17.0650 C   0  0  0  0  0  0  0  0  0  0  0  0
    3.6519   -9.1783   16.9039 C   0  0  0  0  0  0  0  0  0  0  0  0
    7.8675   -7.0096   15.9415 C   0  0  0  0  0  0  0  0  0  0  0  0
    5.9733   -9.6553   17.3832 N   0  0  0  0  0  0  0  0  0  0  0  0
   10.2411   -2.9363   23.4301 C   0  0  0  0  0  0  0  0  0  0  0  0
   10.7288   -3.8197   19.9525 C   0  0  0  0  0  0  0  0  0  0  0  0
   10.1189   -5.0054   19.6987 C   0  0  0  0  0  0  0  0  0  0  0  0
  1  3  4  0
  1  7  4  0
  2 21  4  0
  2 27  4  0
  3  9  4  0
  3 10  4  0
  4  8  4  0
  4 18  4  0
  4 25  1  0
  5  9  4  0
  5 12  4  0
  6 13  1  0
  6 27  1  0
  7 28  4  0
  8 11  4  0
  9 29  4  0
 10 12  4  0
 11 24  1  0
 11 26  4  0
 12 25  1  0
 13 28  1  0
 14 20  4  0
 14 23  4  0
 15 17  4  0
 15 21  4  0
 16 19  4  0
 16 23  4  0
 17 22  4  0
 18 26  4  0
 19 24  4  0
 20 24  4  0
 22 27  4  0
 28 29  4  0
M  END
$$$$

 Created by Python create_sdf_string function

 29 33  0  0  0  0  0  0  0  0999 V2000
   10.7215   -3.3326   17.6437 C   0  0  0  0  0  0  0  0  0  0  0  0
    9.9489   -3.4675   24.6487 N   0  0  0  0  0  0  0  0  0  0  0  0
   10.0172   -4.4740   17.4101 C   0  0  0  0  0  0  0  0  0  0  0  0
    6.9051   -7.9575   16.4222 C   0  0  0  0  0  0  0  0  0  0  0  0
    8.9969   -6.3552   17.9668 N   0  0  0  0  0  0  0  0  0  0  0  0
   10.6702   -3.9051   22.4070 C   0  0  0  0  0  0  0  0  0  0  0  0
   11.0625   -3.0028   18.8894 C   0  0  0  0  0  0  0  0  0  0  0  0
    5.6180   -7.9194   16.1754 O   0  0  0  0  0  0  0  0  0  0  0  0
    9.7259   -5.3080   18.4485 C   0  0  0  0  0  0  0  0  0  0  0  0
    9.4578   -5.0200   16.3036 N   0  0  0  0  0  0  0  0  0  0  0  0
    5.0287   -8.9365   16.8223 C   0  0  0  0  0  0  0  0  0  0  0  0
    8.7742   -6.1498   16.6764 C   0  0  0  0  0  0  0  0  0  0  0  0
   10.9418   -3.4032   21.2053 O   0  0  0  0  0  0  0  0  0  0  0  0
    1.4797   -8.6258   16.2950 C   0  0  0  0  0  0  0  0  0  0  0  0
    9.2861   -1.2743   25.3585 C   0  0  0  0  0  0  0  0  0  0  0  0
    1.8892  -10.3985   17.7511 N   0  0  0  0  0  0  0  0  0  0  0  0
    9.6210   -0.6952   24.0976 C   0  0  0  0  0  0  0  0  0  0  0  0
    7.0792   -9.0217   17.1429 C   0  0  0  0  0  0  0  0  0  0  0  0
    3.1713  -10.1816   17.6634 C   0  0  0  0  0  0  0  0  0  0  0  0
    2.7878   -8.3822   16.2137 C   0  0  0  0  0  0  0  0  0  0  0  0
    9.4601   -2.6590   25.6528 C   0  0  0  0  0  0  0  0  0  0  0  0
   10.1182   -1.5672   23.1165 C   0  0  0  0  0  0  0  0  0  0  0  0
    1.0552   -9.6360   17.0650 C   0  0  0  0  0  0  0  0  0  0  0  0
    3.6519   -9.1783   16.9039 C   0  0  0  0  0  0  0  0  0  0  0  0
    7.8675   -7.0096   15.9415 C   0  0  0  0  0  0  0  0  0  0  0  0
    5.9733   -9.6553   17.3832 N   0  0  0  0  0  0  0  0  0  0  0  0
   10.2411   -2.9363   23.4301 C   0  0  0  0  0  0  0  0  0  0  0  0
   10.7288   -3.8197   19.9525 C   0  0  0  0  0  0  0  0  0  0  0  0
   10.1189   -5.0054   19.6987 C   0  0  0  0  0  0  0  0  0  0  0  0
  1  3  4  0
  1  7  4  0
  2 21  4  0
  2 27  4  0
  3  9  4  0
  3 10  4  0
  4  8  4  0
  4 18  4  0
  4 25  1  0
  5  9  4  0
  5 12  4  0
  6 13  1  0
  6 27  1  0
  7 28  4  0
  8 11  4  0
  9 29  4  0
 10 12  4  0
 11 24  1  0
 11 26  4  0
 12 25  1  0
 13 28  1  0
 14 20  4  0
 14 23  4  0
 15 17  4  0
 15 21  4  0
 16 19  4  0
 16 23  4  0
 17 22  4  0
 18 26  4  0
 19 24  4  0
 20 24  4  0
 22 27  4  0
 28 29  4  0
M  END
$$$$

 Created by Python create_sdf_string function

 29 33  0  0  0  0  0  0  0  0999 V2000
   10.7215   -3.3326   17.6437 C   0  0  0  0  0  0  0  0  0  0  0  0
    9.9489   -3.4675   24.6487 N   0  0  0  0  0  0  0  0  0  0  0  0
   10.0172   -4.4740   17.4101 C   0  0  0  0  0  0  0  0  0  0  0  0
    6.9051   -7.9575   16.4222 C   0  0  0  0  0  0  0  0  0  0  0  0
    8.9969   -6.3552   17.9668 N   0  0  0  0  0  0  0  0  0  0  0  0
   10.6702   -3.9051   22.4070 C   0  0  0  0  0  0  0  0  0  0  0  0
   11.0625   -3.0028   18.8894 C   0  0  0  0  0  0  0  0  0  0  0  0
    5.6180   -7.9194   16.1754 O   0  0  0  0  0  0  0  0  0  0  0  0
    9.7259   -5.3080   18.4485 C   0  0  0  0  0  0  0  0  0  0  0  0
    9.4578   -5.0200   16.3036 N   0  0  0  0  0  0  0  0  0  0  0  0
    5.0287   -8.9365   16.8223 C   0  0  0  0  0  0  0  0  0  0  0  0
    8.7742   -6.1498   16.6764 C   0  0  0  0  0  0  0  0  0  0  0  0
   10.9418   -3.4032   21.2053 O   0  0  0  0  0  0  0  0  0  0  0  0
    1.4797   -8.6258   16.2950 C   0  0  0  0  0  0  0  0  0  0  0  0
    9.2861   -1.2743   25.3585 C   0  0  0  0  0  0  0  0  0  0  0  0
    1.8892  -10.3985   17.7511 N   0  0  0  0  0  0  0  0  0  0  0  0
    9.6210   -0.6952   24.0976 C   0  0  0  0  0  0  0  0  0  0  0  0
    7.0792   -9.0217   17.1429 C   0  0  0  0  0  0  0  0  0  0  0  0
    3.1713  -10.1816   17.6634 C   0  0  0  0  0  0  0  0  0  0  0  0
    2.7878   -8.3822   16.2137 C   0  0  0  0  0  0  0  0  0  0  0  0
    9.4601   -2.6590   25.6528 C   0  0  0  0  0  0  0  0  0  0  0  0
   10.1182   -1.5672   23.1165 C   0  0  0  0  0  0  0  0  0  0  0  0
    1.0552   -9.6360   17.0650 C   0  0  0  0  0  0  0  0  0  0  0  0
    3.6519   -9.1783   16.9039 C   0  0  0  0  0  0  0  0  0  0  0  0
    7.8675   -7.0096   15.9415 C   0  0  0  0  0  0  0  0  0  0  0  0
    5.9733   -9.6553   17.3832 N   0  0  0  0  0  0  0  0  0  0  0  0
   10.2411   -2.9363   23.4301 C   0  0  0  0  0  0  0  0  0  0  0  0
   10.7288   -3.8197   19.9525 C   0  0  0  0  0  0  0  0  0  0  0  0
   10.1189   -5.0054   19.6987 C   0  0  0  0  0  0  0  0  0  0  0  0
  1  3  4  0
  1  7  4  0
  2 21  4  0
  2 27  4  0
  3  9  4  0
  3 10  4  0
  4  8  4  0
  4 18  4  0
  4 25  1  0
  5  9  4  0
  5 12  4  0
  6 13  1  0
  6 27  1  0
  7 28  4  0
  8 11  4  0
  9 29  4  0
 10 12  4  0
 11 24  1  0
 11 26  4  0
 12 25  1  0
 13 28  1  0
 14 20  4  0
 14 23  4  0
 15 17  4  0
 15 21  4  0
 16 19  4  0
 16 23  4  0
 17 22  4  0
 18 26  4  0
 19 24  4  0
 20 24  4  0
 22 27  4  0
 28 29  4  0
M  END
$$$$

 Created by Python create_sdf_string function

 29 33  0  0  0  0  0  0  0  0999 V2000
   10.7215   -3.3326   17.6437 C   0  0  0  0  0  0  0  0  0  0  0  0
    9.9489   -3.4675   24.6487 N   0  0  0  0  0  0  0  0  0  0  0  0
   10.0172   -4.4740   17.4101 C   0  0  0  0  0  0  0  0  0  0  0  0
    6.9051   -7.9575   16.4222 C   0  0  0  0  0  0  0  0  0  0  0  0
    8.9969   -6.3552   17.9668 N   0  0  0  0  0  0  0  0  0  0  0  0
   10.6702   -3.9051   22.4070 C   0  0  0  0  0  0  0  0  0  0  0  0
   11.0625   -3.0028   18.8894 C   0  0  0  0  0  0  0  0  0  0  0  0
    5.6180   -7.9194   16.1754 O   0  0  0  0  0  0  0  0  0  0  0  0
    9.7259   -5.3080   18.4485 C   0  0  0  0  0  0  0  0  0  0  0  0
    9.4578   -5.0200   16.3036 N   0  0  0  0  0  0  0  0  0  0  0  0
    5.0287   -8.9365   16.8223 C   0  0  0  0  0  0  0  0  0  0  0  0
    8.7742   -6.1498   16.6764 C   0  0  0  0  0  0  0  0  0  0  0  0
   10.9418   -3.4032   21.2053 O   0  0  0  0  0  0  0  0  0  0  0  0
    1.4797   -8.6258   16.2950 C   0  0  0  0  0  0  0  0  0  0  0  0
    9.2861   -1.2743   25.3585 C   0  0  0  0  0  0  0  0  0  0  0  0
    1.8892  -10.3985   17.7511 N   0  0  0  0  0  0  0  0  0  0  0  0
    9.6210   -0.6952   24.0976 C   0  0  0  0  0  0  0  0  0  0  0  0
    7.0792   -9.0217   17.1429 C   0  0  0  0  0  0  0  0  0  0  0  0
    3.1713  -10.1816   17.6634 C   0  0  0  0  0  0  0  0  0  0  0  0
    2.7878   -8.3822   16.2137 C   0  0  0  0  0  0  0  0  0  0  0  0
    9.4601   -2.6590   25.6528 C   0  0  0  0  0  0  0  0  0  0  0  0
   10.1182   -1.5672   23.1165 C   0  0  0  0  0  0  0  0  0  0  0  0
    1.0552   -9.6360   17.0650 C   0  0  0  0  0  0  0  0  0  0  0  0
    3.6519   -9.1783   16.9039 C   0  0  0  0  0  0  0  0  0  0  0  0
    7.8675   -7.0096   15.9415 C   0  0  0  0  0  0  0  0  0  0  0  0
    5.9733   -9.6553   17.3832 N   0  0  0  0  0  0  0  0  0  0  0  0
   10.2411   -2.9363   23.4301 C   0  0  0  0  0  0  0  0  0  0  0  0
   10.7288   -3.8197   19.9525 C   0  0  0  0  0  0  0  0  0  0  0  0
   10.1189   -5.0054   19.6987 C   0  0  0  0  0  0  0  0  0  0  0  0
  1  3  4  0
  1  7  4  0
  2 21  4  0
  2 27  4  0
  3  9  4  0
  3 10  4  0
  4  8  4  0
  4 18  4  0
  4 25  1  0
  5  9  4  0
  5 12  4  0
  6 13  1  0
  6 27  1  0
  7 28  4  0
  8 11  4  0
  9 29  4  0
 10 12  4  0
 11 24  1  0
 11 26  4  0
 12 25  1  0
 13 28  1  0
 14 20  4  0
 14 23  4  0
 15 17  4  0
 15 21  4  0
 16 19  4  0
 16 23  4  0
 17 22  4  0
 18 26  4  0
 19 24  4  0
 20 24  4  0
 22 27  4  0
 28 29  4  0
M  END
$$$$

 Created by Python create_sdf_string function

 29 33  0  0  0  0  0  0  0  0999 V2000
   10.7215   -3.3326   17.6437 C   0  0  0  0  0  0  0  0  0  0  0  0
    9.9489   -3.4675   24.6487 N   0  0  0  0  0  0  0  0  0  0  0  0
   10.0172   -4.4740   17.4101 C   0  0  0  0  0  0  0  0  0  0  0  0
    6.9051   -7.9575   16.4222 C   0  0  0  0  0  0  0  0  0  0  0  0
    8.9969   -6.3552   17.9668 N   0  0  0  0  0  0  0  0  0  0  0  0
   10.6702   -3.9051   22.4070 C   0  0  0  0  0  0  0  0  0  0  0  0
   11.0625   -3.0028   18.8894 C   0  0  0  0  0  0  0  0  0  0  0  0
    5.6180   -7.9194   16.1754 O   0  0  0  0  0  0  0  0  0  0  0  0
    9.7259   -5.3080   18.4485 C   0  0  0  0  0  0  0  0  0  0  0  0
    9.4578   -5.0200   16.3036 N   0  0  0  0  0  0  0  0  0  0  0  0
    5.0287   -8.9365   16.8223 C   0  0  0  0  0  0  0  0  0  0  0  0
    8.7742   -6.1498   16.6764 C   0  0  0  0  0  0  0  0  0  0  0  0
   10.9418   -3.4032   21.2053 O   0  0  0  0  0  0  0  0  0  0  0  0
    1.4797   -8.6258   16.2950 C   0  0  0  0  0  0  0  0  0  0  0  0
    9.2861   -1.2743   25.3585 C   0  0  0  0  0  0  0  0  0  0  0  0
    1.8892  -10.3985   17.7511 N   0  0  0  0  0  0  0  0  0  0  0  0
    9.6210   -0.6952   24.0976 C   0  0  0  0  0  0  0  0  0  0  0  0
    7.0792   -9.0217   17.1429 C   0  0  0  0  0  0  0  0  0  0  0  0
    3.1713  -10.1816   17.6634 C   0  0  0  0  0  0  0  0  0  0  0  0
    2.7878   -8.3822   16.2137 C   0  0  0  0  0  0  0  0  0  0  0  0
    9.4601   -2.6590   25.6528 C   0  0  0  0  0  0  0  0  0  0  0  0
   10.1182   -1.5672   23.1165 C   0  0  0  0  0  0  0  0  0  0  0  0
    1.0552   -9.6360   17.0650 C   0  0  0  0  0  0  0  0  0  0  0  0
    3.6519   -9.1783   16.9039 C   0  0  0  0  0  0  0  0  0  0  0  0
    7.8675   -7.0096   15.9415 C   0  0  0  0  0  0  0  0  0  0  0  0
    5.9733   -9.6553   17.3832 N   0  0  0  0  0  0  0  0  0  0  0  0
   10.2411   -2.9363   23.4301 C   0  0  0  0  0  0  0  0  0  0  0  0
   10.7288   -3.8197   19.9525 C   0  0  0  0  0  0  0  0  0  0  0  0
   10.1189   -5.0054   19.6987 C   0  0  0  0  0  0  0  0  0  0  0  0
  1  3  4  0
  1  7  4  0
  2 21  4  0
  2 27  4  0
  3  9  4  0
  3 10  4  0
  4  8  4  0
  4 18  4  0
  4 25  1  0
  5  9  4  0
  5 12  4  0
  6 13  1  0
  6 27  1  0
  7 28  4  0
  8 11  4  0
  9 29  4  0
 10 12  4  0
 11 24  1  0
 11 26  4  0
 12 25  1  0
 13 28  1  0
 14 20  4  0
 14 23  4  0
 15 17  4  0
 15 21  4  0
 16 19  4  0
 16 23  4  0
 17 22  4  0
 18 26  4  0
 19 24  4  0
 20 24  4  0
 22 27  4  0
 28 29  4  0
M  END
$$$$

 Created by Python create_sdf_string function

 29 33  0  0  0  0  0  0  0  0999 V2000
   10.7215   -3.3326   17.6437 C   0  0  0  0  0  0  0  0  0  0  0  0
    9.9489   -3.4675   24.6487 N   0  0  0  0  0  0  0  0  0  0  0  0
   10.0172   -4.4740   17.4101 C   0  0  0  0  0  0  0  0  0  0  0  0
    6.9051   -7.9575   16.4222 C   0  0  0  0  0  0  0  0  0  0  0  0
    8.9969   -6.3552   17.9668 N   0  0  0  0  0  0  0  0  0  0  0  0
   10.6702   -3.9051   22.4070 C   0  0  0  0  0  0  0  0  0  0  0  0
   11.0625   -3.0028   18.8894 C   0  0  0  0  0  0  0  0  0  0  0  0
    5.6180   -7.9194   16.1754 O   0  0  0  0  0  0  0  0  0  0  0  0
    9.7259   -5.3080   18.4485 C   0  0  0  0  0  0  0  0  0  0  0  0
    9.4578   -5.0200   16.3036 N   0  0  0  0  0  0  0  0  0  0  0  0
    5.0287   -8.9365   16.8223 C   0  0  0  0  0  0  0  0  0  0  0  0
    8.7742   -6.1498   16.6764 C   0  0  0  0  0  0  0  0  0  0  0  0
   10.9418   -3.4032   21.2053 O   0  0  0  0  0  0  0  0  0  0  0  0
    1.4797   -8.6258   16.2950 C   0  0  0  0  0  0  0  0  0  0  0  0
    9.2861   -1.2743   25.3585 C   0  0  0  0  0  0  0  0  0  0  0  0
    1.8892  -10.3985   17.7511 N   0  0  0  0  0  0  0  0  0  0  0  0
    9.6210   -0.6952   24.0976 C   0  0  0  0  0  0  0  0  0  0  0  0
    7.0792   -9.0217   17.1429 C   0  0  0  0  0  0  0  0  0  0  0  0
    3.1713  -10.1816   17.6634 C   0  0  0  0  0  0  0  0  0  0  0  0
    2.7878   -8.3822   16.2137 C   0  0  0  0  0  0  0  0  0  0  0  0
    9.4601   -2.6590   25.6528 C   0  0  0  0  0  0  0  0  0  0  0  0
   10.1182   -1.5672   23.1165 C   0  0  0  0  0  0  0  0  0  0  0  0
    1.0552   -9.6360   17.0650 C   0  0  0  0  0  0  0  0  0  0  0  0
    3.6519   -9.1783   16.9039 C   0  0  0  0  0  0  0  0  0  0  0  0
    7.8675   -7.0096   15.9415 C   0  0  0  0  0  0  0  0  0  0  0  0
    5.9733   -9.6553   17.3832 N   0  0  0  0  0  0  0  0  0  0  0  0
   10.2411   -2.9363   23.4301 C   0  0  0  0  0  0  0  0  0  0  0  0
   10.7288   -3.8197   19.9525 C   0  0  0  0  0  0  0  0  0  0  0  0
   10.1189   -5.0054   19.6987 C   0  0  0  0  0  0  0  0  0  0  0  0
  1  3  4  0
  1  7  4  0
  2 21  4  0
  2 27  4  0
  3  9  4  0
  3 10  4  0
  4  8  4  0
  4 18  4  0
  4 25  1  0
  5  9  4  0
  5 12  4  0
  6 13  1  0
  6 27  1  0
  7 28  4  0
  8 11  4  0
  9 29  4  0
 10 12  4  0
 11 24  1  0
 11 26  4  0
 12 25  1  0
 13 28  1  0
 14 20  4  0
 14 23  4  0
 15 17  4  0
 15 21  4  0
 16 19  4  0
 16 23  4  0
 17 22  4  0
 18 26  4  0
 19 24  4  0
 20 24  4  0
 22 27  4  0
 28 29  4  0
M  END
$$$$

 Created by Python create_sdf_string function

 29 33  0  0  0  0  0  0  0  0999 V2000
   10.7215   -3.3326   17.6437 C   0  0  0  0  0  0  0  0  0  0  0  0
    9.9489   -3.4675   24.6487 N   0  0  0  0  0  0  0  0  0  0  0  0
   10.0172   -4.4740   17.4101 C   0  0  0  0  0  0  0  0  0  0  0  0
    6.9051   -7.9575   16.4222 C   0  0  0  0  0  0  0  0  0  0  0  0
    8.9969   -6.3552   17.9668 N   0  0  0  0  0  0  0  0  0  0  0  0
   10.6702   -3.9051   22.4070 C   0  0  0  0  0  0  0  0  0  0  0  0
   11.0625   -3.0028   18.8894 C   0  0  0  0  0  0  0  0  0  0  0  0
    5.6180   -7.9194   16.1754 O   0  0  0  0  0  0  0  0  0  0  0  0
    9.7259   -5.3080   18.4485 C   0  0  0  0  0  0  0  0  0  0  0  0
    9.4578   -5.0200   16.3036 N   0  0  0  0  0  0  0  0  0  0  0  0
    5.0287   -8.9365   16.8223 C   0  0  0  0  0  0  0  0  0  0  0  0
    8.7742   -6.1498   16.6764 C   0  0  0  0  0  0  0  0  0  0  0  0
   10.9418   -3.4032   21.2053 O   0  0  0  0  0  0  0  0  0  0  0  0
    1.4797   -8.6258   16.2950 C   0  0  0  0  0  0  0  0  0  0  0  0
    9.2861   -1.2743   25.3585 C   0  0  0  0  0  0  0  0  0  0  0  0
    1.8892  -10.3985   17.7511 N   0  0  0  0  0  0  0  0  0  0  0  0
    9.6210   -0.6952   24.0976 C   0  0  0  0  0  0  0  0  0  0  0  0
    7.0792   -9.0217   17.1429 C   0  0  0  0  0  0  0  0  0  0  0  0
    3.1713  -10.1816   17.6634 C   0  0  0  0  0  0  0  0  0  0  0  0
    2.7878   -8.3822   16.2137 C   0  0  0  0  0  0  0  0  0  0  0  0
    9.4601   -2.6590   25.6528 C   0  0  0  0  0  0  0  0  0  0  0  0
   10.1182   -1.5672   23.1165 C   0  0  0  0  0  0  0  0  0  0  0  0
    1.0552   -9.6360   17.0650 C   0  0  0  0  0  0  0  0  0  0  0  0
    3.6519   -9.1783   16.9039 C   0  0  0  0  0  0  0  0  0  0  0  0
    7.8675   -7.0096   15.9415 C   0  0  0  0  0  0  0  0  0  0  0  0
    5.9733   -9.6553   17.3832 N   0  0  0  0  0  0  0  0  0  0  0  0
   10.2411   -2.9363   23.4301 C   0  0  0  0  0  0  0  0  0  0  0  0
   10.7288   -3.8197   19.9525 C   0  0  0  0  0  0  0  0  0  0  0  0
   10.1189   -5.0054   19.6987 C   0  0  0  0  0  0  0  0  0  0  0  0
  1  3  4  0
  1  7  4  0
  2 21  4  0
  2 27  4  0
  3  9  4  0
  3 10  4  0
  4  8  4  0
  4 18  4  0
  4 25  1  0
  5  9  4  0
  5 12  4  0
  6 13  1  0
  6 27  1  0
  7 28  4  0
  8 11  4  0
  9 29  4  0
 10 12  4  0
 11 24  1  0
 11 26  4  0
 12 25  1  0
 13 28  1  0
 14 20  4  0
 14 23  4  0
 15 17  4  0
 15 21  4  0
 16 19  4  0
 16 23  4  0
 17 22  4  0
 18 26  4  0
 19 24  4  0
 20 24  4  0
 22 27  4  0
 28 29  4  0
M  END
$$$$

 Created by Python create_sdf_string function

 29 33  0  0  0  0  0  0  0  0999 V2000
   10.7215   -3.3326   17.6437 C   0  0  0  0  0  0  0  0  0  0  0  0
    9.9489   -3.4675   24.6487 N   0  0  0  0  0  0  0  0  0  0  0  0
   10.0172   -4.4740   17.4101 C   0  0  0  0  0  0  0  0  0  0  0  0
    6.9051   -7.9575   16.4222 C   0  0  0  0  0  0  0  0  0  0  0  0
    8.9969   -6.3552   17.9668 N   0  0  0  0  0  0  0  0  0  0  0  0
   10.6702   -3.9051   22.4070 C   0  0  0  0  0  0  0  0  0  0  0  0
   11.0625   -3.0028   18.8894 C   0  0  0  0  0  0  0  0  0  0  0  0
    5.6180   -7.9194   16.1754 O   0  0  0  0  0  0  0  0  0  0  0  0
    9.7259   -5.3080   18.4485 C   0  0  0  0  0  0  0  0  0  0  0  0
    9.4578   -5.0200   16.3036 N   0  0  0  0  0  0  0  0  0  0  0  0
    5.0287   -8.9365   16.8223 C   0  0  0  0  0  0  0  0  0  0  0  0
    8.7742   -6.1498   16.6764 C   0  0  0  0  0  0  0  0  0  0  0  0
   10.9418   -3.4032   21.2053 O   0  0  0  0  0  0  0  0  0  0  0  0
    1.4797   -8.6258   16.2950 C   0  0  0  0  0  0  0  0  0  0  0  0
    9.2861   -1.2743   25.3585 C   0  0  0  0  0  0  0  0  0  0  0  0
    1.8892  -10.3985   17.7511 N   0  0  0  0  0  0  0  0  0  0  0  0
    9.6210   -0.6952   24.0976 C   0  0  0  0  0  0  0  0  0  0  0  0
    7.0792   -9.0217   17.1429 C   0  0  0  0  0  0  0  0  0  0  0  0
    3.1713  -10.1816   17.6634 C   0  0  0  0  0  0  0  0  0  0  0  0
    2.7878   -8.3822   16.2137 C   0  0  0  0  0  0  0  0  0  0  0  0
    9.4601   -2.6590   25.6528 C   0  0  0  0  0  0  0  0  0  0  0  0
   10.1182   -1.5672   23.1165 C   0  0  0  0  0  0  0  0  0  0  0  0
    1.0552   -9.6360   17.0650 C   0  0  0  0  0  0  0  0  0  0  0  0
    3.6519   -9.1783   16.9039 C   0  0  0  0  0  0  0  0  0  0  0  0
    7.8675   -7.0096   15.9415 C   0  0  0  0  0  0  0  0  0  0  0  0
    5.9733   -9.6553   17.3832 N   0  0  0  0  0  0  0  0  0  0  0  0
   10.2411   -2.9363   23.4301 C   0  0  0  0  0  0  0  0  0  0  0  0
   10.7288   -3.8197   19.9525 C   0  0  0  0  0  0  0  0  0  0  0  0
   10.1189   -5.0054   19.6987 C   0  0  0  0  0  0  0  0  0  0  0  0
  1  3  4  0
  1  7  4  0
  2 21  4  0
  2 27  4  0
  3  9  4  0
  3 10  4  0
  4  8  4  0
  4 18  4  0
  4 25  1  0
  5  9  4  0
  5 12  4  0
  6 13  1  0
  6 27  1  0
  7 28  4  0
  8 11  4  0
  9 29  4  0
 10 12  4  0
 11 24  1  0
 11 26  4  0
 12 25  1  0
 13 28  1  0
 14 20  4  0
 14 23  4  0
 15 17  4  0
 15 21  4  0
 16 19  4  0
 16 23  4  0
 17 22  4  0
 18 26  4  0
 19 24  4  0
 20 24  4  0
 22 27  4  0
 28 29  4  0
M  END
$$$$

 Created by Python create_sdf_string function

 29 33  0  0  0  0  0  0  0  0999 V2000
   10.7215   -3.3326   17.6437 C   0  0  0  0  0  0  0  0  0  0  0  0
    9.9489   -3.4675   24.6487 N   0  0  0  0  0  0  0  0  0  0  0  0
   10.0172   -4.4740   17.4101 C   0  0  0  0  0  0  0  0  0  0  0  0
    6.9051   -7.9575   16.4222 C   0  0  0  0  0  0  0  0  0  0  0  0
    8.9969   -6.3552   17.9668 N   0  0  0  0  0  0  0  0  0  0  0  0
   10.6702   -3.9051   22.4070 C   0  0  0  0  0  0  0  0  0  0  0  0
   11.0625   -3.0028   18.8894 C   0  0  0  0  0  0  0  0  0  0  0  0
    5.6180   -7.9194   16.1754 O   0  0  0  0  0  0  0  0  0  0  0  0
    9.7259   -5.3080   18.4485 C   0  0  0  0  0  0  0  0  0  0  0  0
    9.4578   -5.0200   16.3036 N   0  0  0  0  0  0  0  0  0  0  0  0
    5.0287   -8.9365   16.8223 C   0  0  0  0  0  0  0  0  0  0  0  0
    8.7742   -6.1498   16.6764 C   0  0  0  0  0  0  0  0  0  0  0  0
   10.9418   -3.4032   21.2053 O   0  0  0  0  0  0  0  0  0  0  0  0
    1.4797   -8.6258   16.2950 C   0  0  0  0  0  0  0  0  0  0  0  0
    9.2861   -1.2743   25.3585 C   0  0  0  0  0  0  0  0  0  0  0  0
    1.8892  -10.3985   17.7511 N   0  0  0  0  0  0  0  0  0  0  0  0
    9.6210   -0.6952   24.0976 C   0  0  0  0  0  0  0  0  0  0  0  0
    7.0792   -9.0217   17.1429 C   0  0  0  0  0  0  0  0  0  0  0  0
    3.1713  -10.1816   17.6634 C   0  0  0  0  0  0  0  0  0  0  0  0
    2.7878   -8.3822   16.2137 C   0  0  0  0  0  0  0  0  0  0  0  0
    9.4601   -2.6590   25.6528 C   0  0  0  0  0  0  0  0  0  0  0  0
   10.1182   -1.5672   23.1165 C   0  0  0  0  0  0  0  0  0  0  0  0
    1.0552   -9.6360   17.0650 C   0  0  0  0  0  0  0  0  0  0  0  0
    3.6519   -9.1783   16.9039 C   0  0  0  0  0  0  0  0  0  0  0  0
    7.8675   -7.0096   15.9415 C   0  0  0  0  0  0  0  0  0  0  0  0
    5.9733   -9.6553   17.3832 N   0  0  0  0  0  0  0  0  0  0  0  0
   10.2411   -2.9363   23.4301 C   0  0  0  0  0  0  0  0  0  0  0  0
   10.7288   -3.8197   19.9525 C   0  0  0  0  0  0  0  0  0  0  0  0
   10.1189   -5.0054   19.6987 C   0  0  0  0  0  0  0  0  0  0  0  0
  1  3  4  0
  1  7  4  0
  2 21  4  0
  2 27  4  0
  3  9  4  0
  3 10  4  0
  4  8  4  0
  4 18  4  0
  4 25  1  0
  5  9  4  0
  5 12  4  0
  6 13  1  0
  6 27  1  0
  7 28  4  0
  8 11  4  0
  9 29  4  0
 10 12  4  0
 11 24  1  0
 11 26  4  0
 12 25  1  0
 13 28  1  0
 14 20  4  0
 14 23  4  0
 15 17  4  0
 15 21  4  0
 16 19  4  0
 16 23  4  0
 17 22  4  0
 18 26  4  0
 19 24  4  0
 20 24  4  0
 22 27  4  0
 28 29  4  0
M  END
$$$$

 Created by Python create_sdf_string function

 29 33  0  0  0  0  0  0  0  0999 V2000
   10.7215   -3.3326   17.6437 C   0  0  0  0  0  0  0  0  0  0  0  0
    9.9489   -3.4675   24.6487 N   0  0  0  0  0  0  0  0  0  0  0  0
   10.0172   -4.4740   17.4101 C   0  0  0  0  0  0  0  0  0  0  0  0
    6.9051   -7.9575   16.4222 C   0  0  0  0  0  0  0  0  0  0  0  0
    8.9969   -6.3552   17.9668 N   0  0  0  0  0  0  0  0  0  0  0  0
   10.6702   -3.9051   22.4070 C   0  0  0  0  0  0  0  0  0  0  0  0
   11.0625   -3.0028   18.8894 C   0  0  0  0  0  0  0  0  0  0  0  0
    5.6180   -7.9194   16.1754 O   0  0  0  0  0  0  0  0  0  0  0  0
    9.7259   -5.3080   18.4485 C   0  0  0  0  0  0  0  0  0  0  0  0
    9.4578   -5.0200   16.3036 N   0  0  0  0  0  0  0  0  0  0  0  0
    5.0287   -8.9365   16.8223 C   0  0  0  0  0  0  0  0  0  0  0  0
    8.7742   -6.1498   16.6764 C   0  0  0  0  0  0  0  0  0  0  0  0
   10.9418   -3.4032   21.2053 O   0  0  0  0  0  0  0  0  0  0  0  0
    1.4797   -8.6258   16.2950 C   0  0  0  0  0  0  0  0  0  0  0  0
    9.2861   -1.2743   25.3585 C   0  0  0  0  0  0  0  0  0  0  0  0
    1.8892  -10.3985   17.7511 N   0  0  0  0  0  0  0  0  0  0  0  0
    9.6210   -0.6952   24.0976 C   0  0  0  0  0  0  0  0  0  0  0  0
    7.0792   -9.0217   17.1429 C   0  0  0  0  0  0  0  0  0  0  0  0
    3.1713  -10.1816   17.6634 C   0  0  0  0  0  0  0  0  0  0  0  0
    2.7878   -8.3822   16.2137 C   0  0  0  0  0  0  0  0  0  0  0  0
    9.4601   -2.6590   25.6528 C   0  0  0  0  0  0  0  0  0  0  0  0
   10.1182   -1.5672   23.1165 C   0  0  0  0  0  0  0  0  0  0  0  0
    1.0552   -9.6360   17.0650 C   0  0  0  0  0  0  0  0  0  0  0  0
    3.6519   -9.1783   16.9039 C   0  0  0  0  0  0  0  0  0  0  0  0
    7.8675   -7.0096   15.9415 C   0  0  0  0  0  0  0  0  0  0  0  0
    5.9733   -9.6553   17.3832 N   0  0  0  0  0  0  0  0  0  0  0  0
   10.2411   -2.9363   23.4301 C   0  0  0  0  0  0  0  0  0  0  0  0
   10.7288   -3.8197   19.9525 C   0  0  0  0  0  0  0  0  0  0  0  0
   10.1189   -5.0054   19.6987 C   0  0  0  0  0  0  0  0  0  0  0  0
  1  3  4  0
  1  7  4  0
  2 21  4  0
  2 27  4  0
  3  9  4  0
  3 10  4  0
  4  8  4  0
  4 18  4  0
  4 25  1  0
  5  9  4  0
  5 12  4  0
  6 13  1  0
  6 27  1  0
  7 28  4  0
  8 11  4  0
  9 29  4  0
 10 12  4  0
 11 24  1  0
 11 26  4  0
 12 25  1  0
 13 28  1  0
 14 20  4  0
 14 23  4  0
 15 17  4  0
 15 21  4  0
 16 19  4  0
 16 23  4  0
 17 22  4  0
 18 26  4  0
 19 24  4  0
 20 24  4  0
 22 27  4  0
 28 29  4  0
M  END
$$$$

 Created by Python create_sdf_string function

 29 33  0  0  0  0  0  0  0  0999 V2000
   10.7215   -3.3326   17.6437 C   0  0  0  0  0  0  0  0  0  0  0  0
    9.9489   -3.4675   24.6487 N   0  0  0  0  0  0  0  0  0  0  0  0
   10.0172   -4.4740   17.4101 C   0  0  0  0  0  0  0  0  0  0  0  0
    6.9051   -7.9575   16.4222 C   0  0  0  0  0  0  0  0  0  0  0  0
    8.9969   -6.3552   17.9668 N   0  0  0  0  0  0  0  0  0  0  0  0
   10.6702   -3.9051   22.4070 C   0  0  0  0  0  0  0  0  0  0  0  0
   11.0625   -3.0028   18.8894 C   0  0  0  0  0  0  0  0  0  0  0  0
    5.6180   -7.9194   16.1754 O   0  0  0  0  0  0  0  0  0  0  0  0
    9.7259   -5.3080   18.4485 C   0  0  0  0  0  0  0  0  0  0  0  0
    9.4578   -5.0200   16.3036 N   0  0  0  0  0  0  0  0  0  0  0  0
    5.0287   -8.9365   16.8223 C   0  0  0  0  0  0  0  0  0  0  0  0
    8.7742   -6.1498   16.6764 C   0  0  0  0  0  0  0  0  0  0  0  0
   10.9418   -3.4032   21.2053 O   0  0  0  0  0  0  0  0  0  0  0  0
    1.4797   -8.6258   16.2950 C   0  0  0  0  0  0  0  0  0  0  0  0
    9.2861   -1.2743   25.3585 C   0  0  0  0  0  0  0  0  0  0  0  0
    1.8892  -10.3985   17.7511 N   0  0  0  0  0  0  0  0  0  0  0  0
    9.6210   -0.6952   24.0976 C   0  0  0  0  0  0  0  0  0  0  0  0
    7.0792   -9.0217   17.1429 C   0  0  0  0  0  0  0  0  0  0  0  0
    3.1713  -10.1816   17.6634 C   0  0  0  0  0  0  0  0  0  0  0  0
    2.7878   -8.3822   16.2137 C   0  0  0  0  0  0  0  0  0  0  0  0
    9.4601   -2.6590   25.6528 C   0  0  0  0  0  0  0  0  0  0  0  0
   10.1182   -1.5672   23.1165 C   0  0  0  0  0  0  0  0  0  0  0  0
    1.0552   -9.6360   17.0650 C   0  0  0  0  0  0  0  0  0  0  0  0
    3.6519   -9.1783   16.9039 C   0  0  0  0  0  0  0  0  0  0  0  0
    7.8675   -7.0096   15.9415 C   0  0  0  0  0  0  0  0  0  0  0  0
    5.9733   -9.6553   17.3832 N   0  0  0  0  0  0  0  0  0  0  0  0
   10.2411   -2.9363   23.4301 C   0  0  0  0  0  0  0  0  0  0  0  0
   10.7288   -3.8197   19.9525 C   0  0  0  0  0  0  0  0  0  0  0  0
   10.1189   -5.0054   19.6987 C   0  0  0  0  0  0  0  0  0  0  0  0
  1  3  4  0
  1  7  4  0
  2 21  4  0
  2 27  4  0
  3  9  4  0
  3 10  4  0
  4  8  4  0
  4 18  4  0
  4 25  1  0
  5  9  4  0
  5 12  4  0
  6 13  1  0
  6 27  1  0
  7 28  4  0
  8 11  4  0
  9 29  4  0
 10 12  4  0
 11 24  1  0
 11 26  4  0
 12 25  1  0
 13 28  1  0
 14 20  4  0
 14 23  4  0
 15 17  4  0
 15 21  4  0
 16 19  4  0
 16 23  4  0
 17 22  4  0
 18 26  4  0
 19 24  4  0
 20 24  4  0
 22 27  4  0
 28 29  4  0
M  END
$$$$

 Created by Python create_sdf_string function

 29 33  0  0  0  0  0  0  0  0999 V2000
   10.7215   -3.3326   17.6437 C   0  0  0  0  0  0  0  0  0  0  0  0
    9.9489   -3.4675   24.6487 N   0  0  0  0  0  0  0  0  0  0  0  0
   10.0172   -4.4740   17.4101 C   0  0  0  0  0  0  0  0  0  0  0  0
    6.9051   -7.9575   16.4222 C   0  0  0  0  0  0  0  0  0  0  0  0
    8.9969   -6.3552   17.9668 N   0  0  0  0  0  0  0  0  0  0  0  0
   10.6702   -3.9051   22.4070 C   0  0  0  0  0  0  0  0  0  0  0  0
   11.0625   -3.0028   18.8894 C   0  0  0  0  0  0  0  0  0  0  0  0
    5.6180   -7.9194   16.1754 O   0  0  0  0  0  0  0  0  0  0  0  0
    9.7259   -5.3080   18.4485 C   0  0  0  0  0  0  0  0  0  0  0  0
    9.4578   -5.0200   16.3036 N   0  0  0  0  0  0  0  0  0  0  0  0
    5.0287   -8.9365   16.8223 C   0  0  0  0  0  0  0  0  0  0  0  0
    8.7742   -6.1498   16.6764 C   0  0  0  0  0  0  0  0  0  0  0  0
   10.9418   -3.4032   21.2053 O   0  0  0  0  0  0  0  0  0  0  0  0
    1.4797   -8.6258   16.2950 C   0  0  0  0  0  0  0  0  0  0  0  0
    9.2861   -1.2743   25.3585 C   0  0  0  0  0  0  0  0  0  0  0  0
    1.8892  -10.3985   17.7511 N   0  0  0  0  0  0  0  0  0  0  0  0
    9.6210   -0.6952   24.0976 C   0  0  0  0  0  0  0  0  0  0  0  0
    7.0792   -9.0217   17.1429 C   0  0  0  0  0  0  0  0  0  0  0  0
    3.1713  -10.1816   17.6634 C   0  0  0  0  0  0  0  0  0  0  0  0
    2.7878   -8.3822   16.2137 C   0  0  0  0  0  0  0  0  0  0  0  0
    9.4601   -2.6590   25.6528 C   0  0  0  0  0  0  0  0  0  0  0  0
   10.1182   -1.5672   23.1165 C   0  0  0  0  0  0  0  0  0  0  0  0
    1.0552   -9.6360   17.0650 C   0  0  0  0  0  0  0  0  0  0  0  0
    3.6519   -9.1783   16.9039 C   0  0  0  0  0  0  0  0  0  0  0  0
    7.8675   -7.0096   15.9415 C   0  0  0  0  0  0  0  0  0  0  0  0
    5.9733   -9.6553   17.3832 N   0  0  0  0  0  0  0  0  0  0  0  0
   10.2411   -2.9363   23.4301 C   0  0  0  0  0  0  0  0  0  0  0  0
   10.7288   -3.8197   19.9525 C   0  0  0  0  0  0  0  0  0  0  0  0
   10.1189   -5.0054   19.6987 C   0  0  0  0  0  0  0  0  0  0  0  0
  1  3  4  0
  1  7  4  0
  2 21  4  0
  2 27  4  0
  3  9  4  0
  3 10  4  0
  4  8  4  0
  4 18  4  0
  4 25  1  0
  5  9  4  0
  5 12  4  0
  6 13  1  0
  6 27  1  0
  7 28  4  0
  8 11  4  0
  9 29  4  0
 10 12  4  0
 11 24  1  0
 11 26  4  0
 12 25  1  0
 13 28  1  0
 14 20  4  0
 14 23  4  0
 15 17  4  0
 15 21  4  0
 16 19  4  0
 16 23  4  0
 17 22  4  0
 18 26  4  0
 19 24  4  0
 20 24  4  0
 22 27  4  0
 28 29  4  0
M  END
$$$$

 Created by Python create_sdf_string function

 29 33  0  0  0  0  0  0  0  0999 V2000
   10.7215   -3.3326   17.6437 C   0  0  0  0  0  0  0  0  0  0  0  0
    9.9489   -3.4675   24.6487 N   0  0  0  0  0  0  0  0  0  0  0  0
   10.0172   -4.4740   17.4101 C   0  0  0  0  0  0  0  0  0  0  0  0
    6.9051   -7.9575   16.4222 C   0  0  0  0  0  0  0  0  0  0  0  0
    8.9969   -6.3552   17.9668 N   0  0  0  0  0  0  0  0  0  0  0  0
   10.6702   -3.9051   22.4070 C   0  0  0  0  0  0  0  0  0  0  0  0
   11.0625   -3.0028   18.8894 C   0  0  0  0  0  0  0  0  0  0  0  0
    5.6180   -7.9194   16.1754 O   0  0  0  0  0  0  0  0  0  0  0  0
    9.7259   -5.3080   18.4485 C   0  0  0  0  0  0  0  0  0  0  0  0
    9.4578   -5.0200   16.3036 N   0  0  0  0  0  0  0  0  0  0  0  0
    5.0287   -8.9365   16.8223 C   0  0  0  0  0  0  0  0  0  0  0  0
    8.7742   -6.1498   16.6764 C   0  0  0  0  0  0  0  0  0  0  0  0
   10.9418   -3.4032   21.2053 O   0  0  0  0  0  0  0  0  0  0  0  0
    1.4797   -8.6258   16.2950 C   0  0  0  0  0  0  0  0  0  0  0  0
    9.2861   -1.2743   25.3585 C   0  0  0  0  0  0  0  0  0  0  0  0
    1.8892  -10.3985   17.7511 N   0  0  0  0  0  0  0  0  0  0  0  0
    9.6210   -0.6952   24.0976 C   0  0  0  0  0  0  0  0  0  0  0  0
    7.0792   -9.0217   17.1429 C   0  0  0  0  0  0  0  0  0  0  0  0
    3.1713  -10.1816   17.6634 C   0  0  0  0  0  0  0  0  0  0  0  0
    2.7878   -8.3822   16.2137 C   0  0  0  0  0  0  0  0  0  0  0  0
    9.4601   -2.6590   25.6528 C   0  0  0  0  0  0  0  0  0  0  0  0
   10.1182   -1.5672   23.1165 C   0  0  0  0  0  0  0  0  0  0  0  0
    1.0552   -9.6360   17.0650 C   0  0  0  0  0  0  0  0  0  0  0  0
    3.6519   -9.1783   16.9039 C   0  0  0  0  0  0  0  0  0  0  0  0
    7.8675   -7.0096   15.9415 C   0  0  0  0  0  0  0  0  0  0  0  0
    5.9733   -9.6553   17.3832 N   0  0  0  0  0  0  0  0  0  0  0  0
   10.2411   -2.9363   23.4301 C   0  0  0  0  0  0  0  0  0  0  0  0
   10.7288   -3.8197   19.9525 C   0  0  0  0  0  0  0  0  0  0  0  0
   10.1189   -5.0054   19.6987 C   0  0  0  0  0  0  0  0  0  0  0  0
  1  3  4  0
  1  7  4  0
  2 21  4  0
  2 27  4  0
  3  9  4  0
  3 10  4  0
  4  8  4  0
  4 18  4  0
  4 25  1  0
  5  9  4  0
  5 12  4  0
  6 13  1  0
  6 27  1  0
  7 28  4  0
  8 11  4  0
  9 29  4  0
 10 12  4  0
 11 24  1  0
 11 26  4  0
 12 25  1  0
 13 28  1  0
 14 20  4  0
 14 23  4  0
 15 17  4  0
 15 21  4  0
 16 19  4  0
 16 23  4  0
 17 22  4  0
 18 26  4  0
 19 24  4  0
 20 24  4  0
 22 27  4  0
 28 29  4  0
M  END
$$$$

 Created by Python create_sdf_string function

 29 33  0  0  0  0  0  0  0  0999 V2000
   10.7215   -3.3326   17.6437 C   0  0  0  0  0  0  0  0  0  0  0  0
    9.9489   -3.4675   24.6487 N   0  0  0  0  0  0  0  0  0  0  0  0
   10.0172   -4.4740   17.4101 C   0  0  0  0  0  0  0  0  0  0  0  0
    6.9051   -7.9575   16.4222 C   0  0  0  0  0  0  0  0  0  0  0  0
    8.9969   -6.3552   17.9668 N   0  0  0  0  0  0  0  0  0  0  0  0
   10.6702   -3.9051   22.4070 C   0  0  0  0  0  0  0  0  0  0  0  0
   11.0625   -3.0028   18.8894 C   0  0  0  0  0  0  0  0  0  0  0  0
    5.6180   -7.9194   16.1754 O   0  0  0  0  0  0  0  0  0  0  0  0
    9.7259   -5.3080   18.4485 C   0  0  0  0  0  0  0  0  0  0  0  0
    9.4578   -5.0200   16.3036 N   0  0  0  0  0  0  0  0  0  0  0  0
    5.0287   -8.9365   16.8223 C   0  0  0  0  0  0  0  0  0  0  0  0
    8.7742   -6.1498   16.6764 C   0  0  0  0  0  0  0  0  0  0  0  0
   10.9418   -3.4032   21.2053 O   0  0  0  0  0  0  0  0  0  0  0  0
    1.4797   -8.6258   16.2950 C   0  0  0  0  0  0  0  0  0  0  0  0
    9.2861   -1.2743   25.3585 C   0  0  0  0  0  0  0  0  0  0  0  0
    1.8892  -10.3985   17.7511 N   0  0  0  0  0  0  0  0  0  0  0  0
    9.6210   -0.6952   24.0976 C   0  0  0  0  0  0  0  0  0  0  0  0
    7.0792   -9.0217   17.1429 C   0  0  0  0  0  0  0  0  0  0  0  0
    3.1713  -10.1816   17.6634 C   0  0  0  0  0  0  0  0  0  0  0  0
    2.7878   -8.3822   16.2137 C   0  0  0  0  0  0  0  0  0  0  0  0
    9.4601   -2.6590   25.6528 C   0  0  0  0  0  0  0  0  0  0  0  0
   10.1182   -1.5672   23.1165 C   0  0  0  0  0  0  0  0  0  0  0  0
    1.0552   -9.6360   17.0650 C   0  0  0  0  0  0  0  0  0  0  0  0
    3.6519   -9.1783   16.9039 C   0  0  0  0  0  0  0  0  0  0  0  0
    7.8675   -7.0096   15.9415 C   0  0  0  0  0  0  0  0  0  0  0  0
    5.9733   -9.6553   17.3832 N   0  0  0  0  0  0  0  0  0  0  0  0
   10.2411   -2.9363   23.4301 C   0  0  0  0  0  0  0  0  0  0  0  0
   10.7288   -3.8197   19.9525 C   0  0  0  0  0  0  0  0  0  0  0  0
   10.1189   -5.0054   19.6987 C   0  0  0  0  0  0  0  0  0  0  0  0
  1  3  4  0
  1  7  4  0
  2 21  4  0
  2 27  4  0
  3  9  4  0
  3 10  4  0
  4  8  4  0
  4 18  4  0
  4 25  1  0
  5  9  4  0
  5 12  4  0
  6 13  1  0
  6 27  1  0
  7 28  4  0
  8 11  4  0
  9 29  4  0
 10 12  4  0
 11 24  1  0
 11 26  4  0
 12 25  1  0
 13 28  1  0
 14 20  4  0
 14 23  4  0
 15 17  4  0
 15 21  4  0
 16 19  4  0
 16 23  4  0
 17 22  4  0
 18 26  4  0
 19 24  4  0
 20 24  4  0
 22 27  4  0
 28 29  4  0
M  END
$$$$

 Created by Python create_sdf_string function

 29 33  0  0  0  0  0  0  0  0999 V2000
   10.7215   -3.3326   17.6437 C   0  0  0  0  0  0  0  0  0  0  0  0
    9.9489   -3.4675   24.6487 N   0  0  0  0  0  0  0  0  0  0  0  0
   10.0172   -4.4740   17.4101 C   0  0  0  0  0  0  0  0  0  0  0  0
    6.9051   -7.9575   16.4222 C   0  0  0  0  0  0  0  0  0  0  0  0
    8.9969   -6.3552   17.9668 N   0  0  0  0  0  0  0  0  0  0  0  0
   10.6702   -3.9051   22.4070 C   0  0  0  0  0  0  0  0  0  0  0  0
   11.0625   -3.0028   18.8894 C   0  0  0  0  0  0  0  0  0  0  0  0
    5.6180   -7.9194   16.1754 O   0  0  0  0  0  0  0  0  0  0  0  0
    9.7259   -5.3080   18.4485 C   0  0  0  0  0  0  0  0  0  0  0  0
    9.4578   -5.0200   16.3036 N   0  0  0  0  0  0  0  0  0  0  0  0
    5.0287   -8.9365   16.8223 C   0  0  0  0  0  0  0  0  0  0  0  0
    8.7742   -6.1498   16.6764 C   0  0  0  0  0  0  0  0  0  0  0  0
   10.9418   -3.4032   21.2053 O   0  0  0  0  0  0  0  0  0  0  0  0
    1.4797   -8.6258   16.2950 C   0  0  0  0  0  0  0  0  0  0  0  0
    9.2861   -1.2743   25.3585 C   0  0  0  0  0  0  0  0  0  0  0  0
    1.8892  -10.3985   17.7511 N   0  0  0  0  0  0  0  0  0  0  0  0
    9.6210   -0.6952   24.0976 C   0  0  0  0  0  0  0  0  0  0  0  0
    7.0792   -9.0217   17.1429 C   0  0  0  0  0  0  0  0  0  0  0  0
    3.1713  -10.1816   17.6634 C   0  0  0  0  0  0  0  0  0  0  0  0
    2.7878   -8.3822   16.2137 C   0  0  0  0  0  0  0  0  0  0  0  0
    9.4601   -2.6590   25.6528 C   0  0  0  0  0  0  0  0  0  0  0  0
   10.1182   -1.5672   23.1165 C   0  0  0  0  0  0  0  0  0  0  0  0
    1.0552   -9.6360   17.0650 C   0  0  0  0  0  0  0  0  0  0  0  0
    3.6519   -9.1783   16.9039 C   0  0  0  0  0  0  0  0  0  0  0  0
    7.8675   -7.0096   15.9415 C   0  0  0  0  0  0  0  0  0  0  0  0
    5.9733   -9.6553   17.3832 N   0  0  0  0  0  0  0  0  0  0  0  0
   10.2411   -2.9363   23.4301 C   0  0  0  0  0  0  0  0  0  0  0  0
   10.7288   -3.8197   19.9525 C   0  0  0  0  0  0  0  0  0  0  0  0
   10.1189   -5.0054   19.6987 C   0  0  0  0  0  0  0  0  0  0  0  0
  1  3  4  0
  1  7  4  0
  2 21  4  0
  2 27  4  0
  3  9  4  0
  3 10  4  0
  4  8  4  0
  4 18  4  0
  4 25  1  0
  5  9  4  0
  5 12  4  0
  6 13  1  0
  6 27  1  0
  7 28  4  0
  8 11  4  0
  9 29  4  0
 10 12  4  0
 11 24  1  0
 11 26  4  0
 12 25  1  0
 13 28  1  0
 14 20  4  0
 14 23  4  0
 15 17  4  0
 15 21  4  0
 16 19  4  0
 16 23  4  0
 17 22  4  0
 18 26  4  0
 19 24  4  0
 20 24  4  0
 22 27  4  0
 28 29  4  0
M  END
$$$$

 Created by Python create_sdf_string function

 29 33  0  0  0  0  0  0  0  0999 V2000
   10.7215   -3.3326   17.6437 C   0  0  0  0  0  0  0  0  0  0  0  0
    9.9489   -3.4675   24.6487 N   0  0  0  0  0  0  0  0  0  0  0  0
   10.0172   -4.4740   17.4101 C   0  0  0  0  0  0  0  0  0  0  0  0
    6.9051   -7.9575   16.4222 C   0  0  0  0  0  0  0  0  0  0  0  0
    8.9969   -6.3552   17.9668 N   0  0  0  0  0  0  0  0  0  0  0  0
   10.6702   -3.9051   22.4070 C   0  0  0  0  0  0  0  0  0  0  0  0
   11.0625   -3.0028   18.8894 C   0  0  0  0  0  0  0  0  0  0  0  0
    5.6180   -7.9194   16.1754 O   0  0  0  0  0  0  0  0  0  0  0  0
    9.7259   -5.3080   18.4485 C   0  0  0  0  0  0  0  0  0  0  0  0
    9.4578   -5.0200   16.3036 N   0  0  0  0  0  0  0  0  0  0  0  0
    5.0287   -8.9365   16.8223 C   0  0  0  0  0  0  0  0  0  0  0  0
    8.7742   -6.1498   16.6764 C   0  0  0  0  0  0  0  0  0  0  0  0
   10.9418   -3.4032   21.2053 O   0  0  0  0  0  0  0  0  0  0  0  0
    1.4797   -8.6258   16.2950 C   0  0  0  0  0  0  0  0  0  0  0  0
    9.2861   -1.2743   25.3585 C   0  0  0  0  0  0  0  0  0  0  0  0
    1.8892  -10.3985   17.7511 N   0  0  0  0  0  0  0  0  0  0  0  0
    9.6210   -0.6952   24.0976 C   0  0  0  0  0  0  0  0  0  0  0  0
    7.0792   -9.0217   17.1429 C   0  0  0  0  0  0  0  0  0  0  0  0
    3.1713  -10.1816   17.6634 C   0  0  0  0  0  0  0  0  0  0  0  0
    2.7878   -8.3822   16.2137 C   0  0  0  0  0  0  0  0  0  0  0  0
    9.4601   -2.6590   25.6528 C   0  0  0  0  0  0  0  0  0  0  0  0
   10.1182   -1.5672   23.1165 C   0  0  0  0  0  0  0  0  0  0  0  0
    1.0552   -9.6360   17.0650 C   0  0  0  0  0  0  0  0  0  0  0  0
    3.6519   -9.1783   16.9039 C   0  0  0  0  0  0  0  0  0  0  0  0
    7.8675   -7.0096   15.9415 C   0  0  0  0  0  0  0  0  0  0  0  0
    5.9733   -9.6553   17.3832 N   0  0  0  0  0  0  0  0  0  0  0  0
   10.2411   -2.9363   23.4301 C   0  0  0  0  0  0  0  0  0  0  0  0
   10.7288   -3.8197   19.9525 C   0  0  0  0  0  0  0  0  0  0  0  0
   10.1189   -5.0054   19.6987 C   0  0  0  0  0  0  0  0  0  0  0  0
  1  3  4  0
  1  7  4  0
  2 21  4  0
  2 27  4  0
  3  9  4  0
  3 10  4  0
  4  8  4  0
  4 18  4  0
  4 25  1  0
  5  9  4  0
  5 12  4  0
  6 13  1  0
  6 27  1  0
  7 28  4  0
  8 11  4  0
  9 29  4  0
 10 12  4  0
 11 24  1  0
 11 26  4  0
 12 25  1  0
 13 28  1  0
 14 20  4  0
 14 23  4  0
 15 17  4  0
 15 21  4  0
 16 19  4  0
 16 23  4  0
 17 22  4  0
 18 26  4  0
 19 24  4  0
 20 24  4  0
 22 27  4  0
 28 29  4  0
M  END
$$$$

 Created by Python create_sdf_string function

 29 33  0  0  0  0  0  0  0  0999 V2000
   10.7215   -3.3326   17.6437 C   0  0  0  0  0  0  0  0  0  0  0  0
    9.9489   -3.4675   24.6487 N   0  0  0  0  0  0  0  0  0  0  0  0
   10.0172   -4.4740   17.4101 C   0  0  0  0  0  0  0  0  0  0  0  0
    6.9051   -7.9575   16.4222 C   0  0  0  0  0  0  0  0  0  0  0  0
    8.9969   -6.3552   17.9668 N   0  0  0  0  0  0  0  0  0  0  0  0
   10.6702   -3.9051   22.4070 C   0  0  0  0  0  0  0  0  0  0  0  0
   11.0625   -3.0028   18.8894 C   0  0  0  0  0  0  0  0  0  0  0  0
    5.6180   -7.9194   16.1754 O   0  0  0  0  0  0  0  0  0  0  0  0
    9.7259   -5.3080   18.4485 C   0  0  0  0  0  0  0  0  0  0  0  0
    9.4578   -5.0200   16.3036 N   0  0  0  0  0  0  0  0  0  0  0  0
    5.0287   -8.9365   16.8223 C   0  0  0  0  0  0  0  0  0  0  0  0
    8.7742   -6.1498   16.6764 C   0  0  0  0  0  0  0  0  0  0  0  0
   10.9418   -3.4032   21.2053 O   0  0  0  0  0  0  0  0  0  0  0  0
    1.4797   -8.6258   16.2950 C   0  0  0  0  0  0  0  0  0  0  0  0
    9.2861   -1.2743   25.3585 C   0  0  0  0  0  0  0  0  0  0  0  0
    1.8892  -10.3985   17.7511 N   0  0  0  0  0  0  0  0  0  0  0  0
    9.6210   -0.6952   24.0976 C   0  0  0  0  0  0  0  0  0  0  0  0
    7.0792   -9.0217   17.1429 C   0  0  0  0  0  0  0  0  0  0  0  0
    3.1713  -10.1816   17.6634 C   0  0  0  0  0  0  0  0  0  0  0  0
    2.7878   -8.3822   16.2137 C   0  0  0  0  0  0  0  0  0  0  0  0
    9.4601   -2.6590   25.6528 C   0  0  0  0  0  0  0  0  0  0  0  0
   10.1182   -1.5672   23.1165 C   0  0  0  0  0  0  0  0  0  0  0  0
    1.0552   -9.6360   17.0650 C   0  0  0  0  0  0  0  0  0  0  0  0
    3.6519   -9.1783   16.9039 C   0  0  0  0  0  0  0  0  0  0  0  0
    7.8675   -7.0096   15.9415 C   0  0  0  0  0  0  0  0  0  0  0  0
    5.9733   -9.6553   17.3832 N   0  0  0  0  0  0  0  0  0  0  0  0
   10.2411   -2.9363   23.4301 C   0  0  0  0  0  0  0  0  0  0  0  0
   10.7288   -3.8197   19.9525 C   0  0  0  0  0  0  0  0  0  0  0  0
   10.1189   -5.0054   19.6987 C   0  0  0  0  0  0  0  0  0  0  0  0
  1  3  4  0
  1  7  4  0
  2 21  4  0
  2 27  4  0
  3  9  4  0
  3 10  4  0
  4  8  4  0
  4 18  4  0
  4 25  1  0
  5  9  4  0
  5 12  4  0
  6 13  1  0
  6 27  1  0
  7 28  4  0
  8 11  4  0
  9 29  4  0
 10 12  4  0
 11 24  1  0
 11 26  4  0
 12 25  1  0
 13 28  1  0
 14 20  4  0
 14 23  4  0
 15 17  4  0
 15 21  4  0
 16 19  4  0
 16 23  4  0
 17 22  4  0
 18 26  4  0
 19 24  4  0
 20 24  4  0
 22 27  4  0
 28 29  4  0
M  END
$$$$

 Created by Python create_sdf_string function

 29 33  0  0  0  0  0  0  0  0999 V2000
   10.7215   -3.3326   17.6437 C   0  0  0  0  0  0  0  0  0  0  0  0
    9.9489   -3.4675   24.6487 N   0  0  0  0  0  0  0  0  0  0  0  0
   10.0172   -4.4740   17.4101 C   0  0  0  0  0  0  0  0  0  0  0  0
    6.9051   -7.9575   16.4222 C   0  0  0  0  0  0  0  0  0  0  0  0
    8.9969   -6.3552   17.9668 N   0  0  0  0  0  0  0  0  0  0  0  0
   10.6702   -3.9051   22.4070 C   0  0  0  0  0  0  0  0  0  0  0  0
   11.0625   -3.0028   18.8894 C   0  0  0  0  0  0  0  0  0  0  0  0
    5.6180   -7.9194   16.1754 O   0  0  0  0  0  0  0  0  0  0  0  0
    9.7259   -5.3080   18.4485 C   0  0  0  0  0  0  0  0  0  0  0  0
    9.4578   -5.0200   16.3036 N   0  0  0  0  0  0  0  0  0  0  0  0
    5.0287   -8.9365   16.8223 C   0  0  0  0  0  0  0  0  0  0  0  0
    8.7742   -6.1498   16.6764 C   0  0  0  0  0  0  0  0  0  0  0  0
   10.9418   -3.4032   21.2053 O   0  0  0  0  0  0  0  0  0  0  0  0
    1.4797   -8.6258   16.2950 C   0  0  0  0  0  0  0  0  0  0  0  0
    9.2861   -1.2743   25.3585 C   0  0  0  0  0  0  0  0  0  0  0  0
    1.8892  -10.3985   17.7511 N   0  0  0  0  0  0  0  0  0  0  0  0
    9.6210   -0.6952   24.0976 C   0  0  0  0  0  0  0  0  0  0  0  0
    7.0792   -9.0217   17.1429 C   0  0  0  0  0  0  0  0  0  0  0  0
    3.1713  -10.1816   17.6634 C   0  0  0  0  0  0  0  0  0  0  0  0
    2.7878   -8.3822   16.2137 C   0  0  0  0  0  0  0  0  0  0  0  0
    9.4601   -2.6590   25.6528 C   0  0  0  0  0  0  0  0  0  0  0  0
   10.1182   -1.5672   23.1165 C   0  0  0  0  0  0  0  0  0  0  0  0
    1.0552   -9.6360   17.0650 C   0  0  0  0  0  0  0  0  0  0  0  0
    3.6519   -9.1783   16.9039 C   0  0  0  0  0  0  0  0  0  0  0  0
    7.8675   -7.0096   15.9415 C   0  0  0  0  0  0  0  0  0  0  0  0
    5.9733   -9.6553   17.3832 N   0  0  0  0  0  0  0  0  0  0  0  0
   10.2411   -2.9363   23.4301 C   0  0  0  0  0  0  0  0  0  0  0  0
   10.7288   -3.8197   19.9525 C   0  0  0  0  0  0  0  0  0  0  0  0
   10.1189   -5.0054   19.6987 C   0  0  0  0  0  0  0  0  0  0  0  0
  1  3  4  0
  1  7  4  0
  2 21  4  0
  2 27  4  0
  3  9  4  0
  3 10  4  0
  4  8  4  0
  4 18  4  0
  4 25  1  0
  5  9  4  0
  5 12  4  0
  6 13  1  0
  6 27  1  0
  7 28  4  0
  8 11  4  0
  9 29  4  0
 10 12  4  0
 11 24  1  0
 11 26  4  0
 12 25  1  0
 13 28  1  0
 14 20  4  0
 14 23  4  0
 15 17  4  0
 15 21  4  0
 16 19  4  0
 16 23  4  0
 17 22  4  0
 18 26  4  0
 19 24  4  0
 20 24  4  0
 22 27  4  0
 28 29  4  0
M  END
$$$$

 Created by Python create_sdf_string function

 29 33  0  0  0  0  0  0  0  0999 V2000
   10.7215   -3.3326   17.6437 C   0  0  0  0  0  0  0  0  0  0  0  0
    9.9489   -3.4675   24.6487 N   0  0  0  0  0  0  0  0  0  0  0  0
   10.0172   -4.4740   17.4101 C   0  0  0  0  0  0  0  0  0  0  0  0
    6.9051   -7.9575   16.4222 C   0  0  0  0  0  0  0  0  0  0  0  0
    8.9969   -6.3552   17.9668 N   0  0  0  0  0  0  0  0  0  0  0  0
   10.6702   -3.9051   22.4070 C   0  0  0  0  0  0  0  0  0  0  0  0
   11.0625   -3.0028   18.8894 C   0  0  0  0  0  0  0  0  0  0  0  0
    5.6180   -7.9194   16.1754 O   0  0  0  0  0  0  0  0  0  0  0  0
    9.7259   -5.3080   18.4485 C   0  0  0  0  0  0  0  0  0  0  0  0
    9.4578   -5.0200   16.3036 N   0  0  0  0  0  0  0  0  0  0  0  0
    5.0287   -8.9365   16.8223 C   0  0  0  0  0  0  0  0  0  0  0  0
    8.7742   -6.1498   16.6764 C   0  0  0  0  0  0  0  0  0  0  0  0
   10.9418   -3.4032   21.2053 O   0  0  0  0  0  0  0  0  0  0  0  0
    1.4797   -8.6258   16.2950 C   0  0  0  0  0  0  0  0  0  0  0  0
    9.2861   -1.2743   25.3585 C   0  0  0  0  0  0  0  0  0  0  0  0
    1.8892  -10.3985   17.7511 N   0  0  0  0  0  0  0  0  0  0  0  0
    9.6210   -0.6952   24.0976 C   0  0  0  0  0  0  0  0  0  0  0  0
    7.0792   -9.0217   17.1429 C   0  0  0  0  0  0  0  0  0  0  0  0
    3.1713  -10.1816   17.6634 C   0  0  0  0  0  0  0  0  0  0  0  0
    2.7878   -8.3822   16.2137 C   0  0  0  0  0  0  0  0  0  0  0  0
    9.4601   -2.6590   25.6528 C   0  0  0  0  0  0  0  0  0  0  0  0
   10.1182   -1.5672   23.1165 C   0  0  0  0  0  0  0  0  0  0  0  0
    1.0552   -9.6360   17.0650 C   0  0  0  0  0  0  0  0  0  0  0  0
    3.6519   -9.1783   16.9039 C   0  0  0  0  0  0  0  0  0  0  0  0
    7.8675   -7.0096   15.9415 C   0  0  0  0  0  0  0  0  0  0  0  0
    5.9733   -9.6553   17.3832 N   0  0  0  0  0  0  0  0  0  0  0  0
   10.2411   -2.9363   23.4301 C   0  0  0  0  0  0  0  0  0  0  0  0
   10.7288   -3.8197   19.9525 C   0  0  0  0  0  0  0  0  0  0  0  0
   10.1189   -5.0054   19.6987 C   0  0  0  0  0  0  0  0  0  0  0  0
  1  3  4  0
  1  7  4  0
  2 21  4  0
  2 27  4  0
  3  9  4  0
  3 10  4  0
  4  8  4  0
  4 18  4  0
  4 25  1  0
  5  9  4  0
  5 12  4  0
  6 13  1  0
  6 27  1  0
  7 28  4  0
  8 11  4  0
  9 29  4  0
 10 12  4  0
 11 24  1  0
 11 26  4  0
 12 25  1  0
 13 28  1  0
 14 20  4  0
 14 23  4  0
 15 17  4  0
 15 21  4  0
 16 19  4  0
 16 23  4  0
 17 22  4  0
 18 26  4  0
 19 24  4  0
 20 24  4  0
 22 27  4  0
 28 29  4  0
M  END
$$$$

 Created by Python create_sdf_string function

 29 33  0  0  0  0  0  0  0  0999 V2000
   10.7215   -3.3326   17.6437 C   0  0  0  0  0  0  0  0  0  0  0  0
    9.9489   -3.4675   24.6487 N   0  0  0  0  0  0  0  0  0  0  0  0
   10.0172   -4.4740   17.4101 C   0  0  0  0  0  0  0  0  0  0  0  0
    6.9051   -7.9575   16.4222 C   0  0  0  0  0  0  0  0  0  0  0  0
    8.9969   -6.3552   17.9668 N   0  0  0  0  0  0  0  0  0  0  0  0
   10.6702   -3.9051   22.4070 C   0  0  0  0  0  0  0  0  0  0  0  0
   11.0625   -3.0028   18.8894 C   0  0  0  0  0  0  0  0  0  0  0  0
    5.6180   -7.9194   16.1754 O   0  0  0  0  0  0  0  0  0  0  0  0
    9.7259   -5.3080   18.4485 C   0  0  0  0  0  0  0  0  0  0  0  0
    9.4578   -5.0200   16.3036 N   0  0  0  0  0  0  0  0  0  0  0  0
    5.0287   -8.9365   16.8223 C   0  0  0  0  0  0  0  0  0  0  0  0
    8.7742   -6.1498   16.6764 C   0  0  0  0  0  0  0  0  0  0  0  0
   10.9418   -3.4032   21.2053 O   0  0  0  0  0  0  0  0  0  0  0  0
    1.4797   -8.6258   16.2950 C   0  0  0  0  0  0  0  0  0  0  0  0
    9.2861   -1.2743   25.3585 C   0  0  0  0  0  0  0  0  0  0  0  0
    1.8892  -10.3985   17.7511 N   0  0  0  0  0  0  0  0  0  0  0  0
    9.6210   -0.6952   24.0976 C   0  0  0  0  0  0  0  0  0  0  0  0
    7.0792   -9.0217   17.1429 C   0  0  0  0  0  0  0  0  0  0  0  0
    3.1713  -10.1816   17.6634 C   0  0  0  0  0  0  0  0  0  0  0  0
    2.7878   -8.3822   16.2137 C   0  0  0  0  0  0  0  0  0  0  0  0
    9.4601   -2.6590   25.6528 C   0  0  0  0  0  0  0  0  0  0  0  0
   10.1182   -1.5672   23.1165 C   0  0  0  0  0  0  0  0  0  0  0  0
    1.0552   -9.6360   17.0650 C   0  0  0  0  0  0  0  0  0  0  0  0
    3.6519   -9.1783   16.9039 C   0  0  0  0  0  0  0  0  0  0  0  0
    7.8675   -7.0096   15.9415 C   0  0  0  0  0  0  0  0  0  0  0  0
    5.9733   -9.6553   17.3832 N   0  0  0  0  0  0  0  0  0  0  0  0
   10.2411   -2.9363   23.4301 C   0  0  0  0  0  0  0  0  0  0  0  0
   10.7288   -3.8197   19.9525 C   0  0  0  0  0  0  0  0  0  0  0  0
   10.1189   -5.0054   19.6987 C   0  0  0  0  0  0  0  0  0  0  0  0
  1  3  4  0
  1  7  4  0
  2 21  4  0
  2 27  4  0
  3  9  4  0
  3 10  4  0
  4  8  4  0
  4 18  4  0
  4 25  1  0
  5  9  4  0
  5 12  4  0
  6 13  1  0
  6 27  1  0
  7 28  4  0
  8 11  4  0
  9 29  4  0
 10 12  4  0
 11 24  1  0
 11 26  4  0
 12 25  1  0
 13 28  1  0
 14 20  4  0
 14 23  4  0
 15 17  4  0
 15 21  4  0
 16 19  4  0
 16 23  4  0
 17 22  4  0
 18 26  4  0
 19 24  4  0
 20 24  4  0
 22 27  4  0
 28 29  4  0
M  END
$$$$

 Created by Python create_sdf_string function

 29 33  0  0  0  0  0  0  0  0999 V2000
   10.7215   -3.3326   17.6437 C   0  0  0  0  0  0  0  0  0  0  0  0
    9.9489   -3.4675   24.6487 N   0  0  0  0  0  0  0  0  0  0  0  0
   10.0172   -4.4740   17.4101 C   0  0  0  0  0  0  0  0  0  0  0  0
    6.9051   -7.9575   16.4222 C   0  0  0  0  0  0  0  0  0  0  0  0
    8.9969   -6.3552   17.9668 N   0  0  0  0  0  0  0  0  0  0  0  0
   10.6702   -3.9051   22.4070 C   0  0  0  0  0  0  0  0  0  0  0  0
   11.0625   -3.0028   18.8894 C   0  0  0  0  0  0  0  0  0  0  0  0
    5.6180   -7.9194   16.1754 O   0  0  0  0  0  0  0  0  0  0  0  0
    9.7259   -5.3080   18.4485 C   0  0  0  0  0  0  0  0  0  0  0  0
    9.4578   -5.0200   16.3036 N   0  0  0  0  0  0  0  0  0  0  0  0
    5.0287   -8.9365   16.8223 C   0  0  0  0  0  0  0  0  0  0  0  0
    8.7742   -6.1498   16.6764 C   0  0  0  0  0  0  0  0  0  0  0  0
   10.9418   -3.4032   21.2053 O   0  0  0  0  0  0  0  0  0  0  0  0
    1.4797   -8.6258   16.2950 C   0  0  0  0  0  0  0  0  0  0  0  0
    9.2861   -1.2743   25.3585 C   0  0  0  0  0  0  0  0  0  0  0  0
    1.8892  -10.3985   17.7511 N   0  0  0  0  0  0  0  0  0  0  0  0
    9.6210   -0.6952   24.0976 C   0  0  0  0  0  0  0  0  0  0  0  0
    7.0792   -9.0217   17.1429 C   0  0  0  0  0  0  0  0  0  0  0  0
    3.1713  -10.1816   17.6634 C   0  0  0  0  0  0  0  0  0  0  0  0
    2.7878   -8.3822   16.2137 C   0  0  0  0  0  0  0  0  0  0  0  0
    9.4601   -2.6590   25.6528 C   0  0  0  0  0  0  0  0  0  0  0  0
   10.1182   -1.5672   23.1165 C   0  0  0  0  0  0  0  0  0  0  0  0
    1.0552   -9.6360   17.0650 C   0  0  0  0  0  0  0  0  0  0  0  0
    3.6519   -9.1783   16.9039 C   0  0  0  0  0  0  0  0  0  0  0  0
    7.8675   -7.0096   15.9415 C   0  0  0  0  0  0  0  0  0  0  0  0
    5.9733   -9.6553   17.3832 N   0  0  0  0  0  0  0  0  0  0  0  0
   10.2411   -2.9363   23.4301 C   0  0  0  0  0  0  0  0  0  0  0  0
   10.7288   -3.8197   19.9525 C   0  0  0  0  0  0  0  0  0  0  0  0
   10.1189   -5.0054   19.6987 C   0  0  0  0  0  0  0  0  0  0  0  0
  1  3  4  0
  1  7  4  0
  2 21  4  0
  2 27  4  0
  3  9  4  0
  3 10  4  0
  4  8  4  0
  4 18  4  0
  4 25  1  0
  5  9  4  0
  5 12  4  0
  6 13  1  0
  6 27  1  0
  7 28  4  0
  8 11  4  0
  9 29  4  0
 10 12  4  0
 11 24  1  0
 11 26  4  0
 12 25  1  0
 13 28  1  0
 14 20  4  0
 14 23  4  0
 15 17  4  0
 15 21  4  0
 16 19  4  0
 16 23  4  0
 17 22  4  0
 18 26  4  0
 19 24  4  0
 20 24  4  0
 22 27  4  0
 28 29  4  0
M  END
$$$$

 Created by Python create_sdf_string function

 29 33  0  0  0  0  0  0  0  0999 V2000
   10.7215   -3.3326   17.6437 C   0  0  0  0  0  0  0  0  0  0  0  0
    9.9489   -3.4675   24.6487 N   0  0  0  0  0  0  0  0  0  0  0  0
   10.0172   -4.4740   17.4101 C   0  0  0  0  0  0  0  0  0  0  0  0
    6.9051   -7.9575   16.4222 C   0  0  0  0  0  0  0  0  0  0  0  0
    8.9969   -6.3552   17.9668 N   0  0  0  0  0  0  0  0  0  0  0  0
   10.6702   -3.9051   22.4070 C   0  0  0  0  0  0  0  0  0  0  0  0
   11.0625   -3.0028   18.8894 C   0  0  0  0  0  0  0  0  0  0  0  0
    5.6180   -7.9194   16.1754 O   0  0  0  0  0  0  0  0  0  0  0  0
    9.7259   -5.3080   18.4485 C   0  0  0  0  0  0  0  0  0  0  0  0
    9.4578   -5.0200   16.3036 N   0  0  0  0  0  0  0  0  0  0  0  0
    5.0287   -8.9365   16.8223 C   0  0  0  0  0  0  0  0  0  0  0  0
    8.7742   -6.1498   16.6764 C   0  0  0  0  0  0  0  0  0  0  0  0
   10.9418   -3.4032   21.2053 O   0  0  0  0  0  0  0  0  0  0  0  0
    1.4797   -8.6258   16.2950 C   0  0  0  0  0  0  0  0  0  0  0  0
    9.2861   -1.2743   25.3585 C   0  0  0  0  0  0  0  0  0  0  0  0
    1.8892  -10.3985   17.7511 N   0  0  0  0  0  0  0  0  0  0  0  0
    9.6210   -0.6952   24.0976 C   0  0  0  0  0  0  0  0  0  0  0  0
    7.0792   -9.0217   17.1429 C   0  0  0  0  0  0  0  0  0  0  0  0
    3.1713  -10.1816   17.6634 C   0  0  0  0  0  0  0  0  0  0  0  0
    2.7878   -8.3822   16.2137 C   0  0  0  0  0  0  0  0  0  0  0  0
    9.4601   -2.6590   25.6528 C   0  0  0  0  0  0  0  0  0  0  0  0
   10.1182   -1.5672   23.1165 C   0  0  0  0  0  0  0  0  0  0  0  0
    1.0552   -9.6360   17.0650 C   0  0  0  0  0  0  0  0  0  0  0  0
    3.6519   -9.1783   16.9039 C   0  0  0  0  0  0  0  0  0  0  0  0
    7.8675   -7.0096   15.9415 C   0  0  0  0  0  0  0  0  0  0  0  0
    5.9733   -9.6553   17.3832 N   0  0  0  0  0  0  0  0  0  0  0  0
   10.2411   -2.9363   23.4301 C   0  0  0  0  0  0  0  0  0  0  0  0
   10.7288   -3.8197   19.9525 C   0  0  0  0  0  0  0  0  0  0  0  0
   10.1189   -5.0054   19.6987 C   0  0  0  0  0  0  0  0  0  0  0  0
  1  3  4  0
  1  7  4  0
  2 21  4  0
  2 27  4  0
  3  9  4  0
  3 10  4  0
  4  8  4  0
  4 18  4  0
  4 25  1  0
  5  9  4  0
  5 12  4  0
  6 13  1  0
  6 27  1  0
  7 28  4  0
  8 11  4  0
  9 29  4  0
 10 12  4  0
 11 24  1  0
 11 26  4  0
 12 25  1  0
 13 28  1  0
 14 20  4  0
 14 23  4  0
 15 17  4  0
 15 21  4  0
 16 19  4  0
 16 23  4  0
 17 22  4  0
 18 26  4  0
 19 24  4  0
 20 24  4  0
 22 27  4  0
 28 29  4  0
M  END
$$$$

 Created by Python create_sdf_string function

 29 33  0  0  0  0  0  0  0  0999 V2000
   10.7215   -3.3326   17.6437 C   0  0  0  0  0  0  0  0  0  0  0  0
    9.9489   -3.4675   24.6487 N   0  0  0  0  0  0  0  0  0  0  0  0
   10.0172   -4.4740   17.4101 C   0  0  0  0  0  0  0  0  0  0  0  0
    6.9051   -7.9575   16.4222 C   0  0  0  0  0  0  0  0  0  0  0  0
    8.9969   -6.3552   17.9668 N   0  0  0  0  0  0  0  0  0  0  0  0
   10.6702   -3.9051   22.4070 C   0  0  0  0  0  0  0  0  0  0  0  0
   11.0625   -3.0028   18.8894 C   0  0  0  0  0  0  0  0  0  0  0  0
    5.6180   -7.9194   16.1754 O   0  0  0  0  0  0  0  0  0  0  0  0
    9.7259   -5.3080   18.4485 C   0  0  0  0  0  0  0  0  0  0  0  0
    9.4578   -5.0200   16.3036 N   0  0  0  0  0  0  0  0  0  0  0  0
    5.0287   -8.9365   16.8223 C   0  0  0  0  0  0  0  0  0  0  0  0
    8.7742   -6.1498   16.6764 C   0  0  0  0  0  0  0  0  0  0  0  0
   10.9418   -3.4032   21.2053 O   0  0  0  0  0  0  0  0  0  0  0  0
    1.4797   -8.6258   16.2950 C   0  0  0  0  0  0  0  0  0  0  0  0
    9.2861   -1.2743   25.3585 C   0  0  0  0  0  0  0  0  0  0  0  0
    1.8892  -10.3985   17.7511 N   0  0  0  0  0  0  0  0  0  0  0  0
    9.6210   -0.6952   24.0976 C   0  0  0  0  0  0  0  0  0  0  0  0
    7.0792   -9.0217   17.1429 C   0  0  0  0  0  0  0  0  0  0  0  0
    3.1713  -10.1816   17.6634 C   0  0  0  0  0  0  0  0  0  0  0  0
    2.7878   -8.3822   16.2137 C   0  0  0  0  0  0  0  0  0  0  0  0
    9.4601   -2.6590   25.6528 C   0  0  0  0  0  0  0  0  0  0  0  0
   10.1182   -1.5672   23.1165 C   0  0  0  0  0  0  0  0  0  0  0  0
    1.0552   -9.6360   17.0650 C   0  0  0  0  0  0  0  0  0  0  0  0
    3.6519   -9.1783   16.9039 C   0  0  0  0  0  0  0  0  0  0  0  0
    7.8675   -7.0096   15.9415 C   0  0  0  0  0  0  0  0  0  0  0  0
    5.9733   -9.6553   17.3832 N   0  0  0  0  0  0  0  0  0  0  0  0
   10.2411   -2.9363   23.4301 C   0  0  0  0  0  0  0  0  0  0  0  0
   10.7288   -3.8197   19.9525 C   0  0  0  0  0  0  0  0  0  0  0  0
   10.1189   -5.0054   19.6987 C   0  0  0  0  0  0  0  0  0  0  0  0
  1  3  4  0
  1  7  4  0
  2 21  4  0
  2 27  4  0
  3  9  4  0
  3 10  4  0
  4  8  4  0
  4 18  4  0
  4 25  1  0
  5  9  4  0
  5 12  4  0
  6 13  1  0
  6 27  1  0
  7 28  4  0
  8 11  4  0
  9 29  4  0
 10 12  4  0
 11 24  1  0
 11 26  4  0
 12 25  1  0
 13 28  1  0
 14 20  4  0
 14 23  4  0
 15 17  4  0
 15 21  4  0
 16 19  4  0
 16 23  4  0
 17 22  4  0
 18 26  4  0
 19 24  4  0
 20 24  4  0
 22 27  4  0
 28 29  4  0
M  END
$$$$

 Created by Python create_sdf_string function

 29 33  0  0  0  0  0  0  0  0999 V2000
   10.7215   -3.3326   17.6437 C   0  0  0  0  0  0  0  0  0  0  0  0
    9.9489   -3.4675   24.6487 N   0  0  0  0  0  0  0  0  0  0  0  0
   10.0172   -4.4740   17.4101 C   0  0  0  0  0  0  0  0  0  0  0  0
    6.9051   -7.9575   16.4222 C   0  0  0  0  0  0  0  0  0  0  0  0
    8.9969   -6.3552   17.9668 N   0  0  0  0  0  0  0  0  0  0  0  0
   10.6702   -3.9051   22.4070 C   0  0  0  0  0  0  0  0  0  0  0  0
   11.0625   -3.0028   18.8894 C   0  0  0  0  0  0  0  0  0  0  0  0
    5.6180   -7.9194   16.1754 O   0  0  0  0  0  0  0  0  0  0  0  0
    9.7259   -5.3080   18.4485 C   0  0  0  0  0  0  0  0  0  0  0  0
    9.4578   -5.0200   16.3036 N   0  0  0  0  0  0  0  0  0  0  0  0
    5.0287   -8.9365   16.8223 C   0  0  0  0  0  0  0  0  0  0  0  0
    8.7742   -6.1498   16.6764 C   0  0  0  0  0  0  0  0  0  0  0  0
   10.9418   -3.4032   21.2053 O   0  0  0  0  0  0  0  0  0  0  0  0
    1.4797   -8.6258   16.2950 C   0  0  0  0  0  0  0  0  0  0  0  0
    9.2861   -1.2743   25.3585 C   0  0  0  0  0  0  0  0  0  0  0  0
    1.8892  -10.3985   17.7511 N   0  0  0  0  0  0  0  0  0  0  0  0
    9.6210   -0.6952   24.0976 C   0  0  0  0  0  0  0  0  0  0  0  0
    7.0792   -9.0217   17.1429 C   0  0  0  0  0  0  0  0  0  0  0  0
    3.1713  -10.1816   17.6634 C   0  0  0  0  0  0  0  0  0  0  0  0
    2.7878   -8.3822   16.2137 C   0  0  0  0  0  0  0  0  0  0  0  0
    9.4601   -2.6590   25.6528 C   0  0  0  0  0  0  0  0  0  0  0  0
   10.1182   -1.5672   23.1165 C   0  0  0  0  0  0  0  0  0  0  0  0
    1.0552   -9.6360   17.0650 C   0  0  0  0  0  0  0  0  0  0  0  0
    3.6519   -9.1783   16.9039 C   0  0  0  0  0  0  0  0  0  0  0  0
    7.8675   -7.0096   15.9415 C   0  0  0  0  0  0  0  0  0  0  0  0
    5.9733   -9.6553   17.3832 N   0  0  0  0  0  0  0  0  0  0  0  0
   10.2411   -2.9363   23.4301 C   0  0  0  0  0  0  0  0  0  0  0  0
   10.7288   -3.8197   19.9525 C   0  0  0  0  0  0  0  0  0  0  0  0
   10.1189   -5.0054   19.6987 C   0  0  0  0  0  0  0  0  0  0  0  0
  1  3  4  0
  1  7  4  0
  2 21  4  0
  2 27  4  0
  3  9  4  0
  3 10  4  0
  4  8  4  0
  4 18  4  0
  4 25  1  0
  5  9  4  0
  5 12  4  0
  6 13  1  0
  6 27  1  0
  7 28  4  0
  8 11  4  0
  9 29  4  0
 10 12  4  0
 11 24  1  0
 11 26  4  0
 12 25  1  0
 13 28  1  0
 14 20  4  0
 14 23  4  0
 15 17  4  0
 15 21  4  0
 16 19  4  0
 16 23  4  0
 17 22  4  0
 18 26  4  0
 19 24  4  0
 20 24  4  0
 22 27  4  0
 28 29  4  0
M  END
$$$$

 Created by Python create_sdf_string function

 29 33  0  0  0  0  0  0  0  0999 V2000
   10.7215   -3.3326   17.6437 C   0  0  0  0  0  0  0  0  0  0  0  0
    9.9489   -3.4675   24.6487 N   0  0  0  0  0  0  0  0  0  0  0  0
   10.0172   -4.4740   17.4101 C   0  0  0  0  0  0  0  0  0  0  0  0
    6.9051   -7.9575   16.4222 C   0  0  0  0  0  0  0  0  0  0  0  0
    8.9969   -6.3552   17.9668 N   0  0  0  0  0  0  0  0  0  0  0  0
   10.6702   -3.9051   22.4070 C   0  0  0  0  0  0  0  0  0  0  0  0
   11.0625   -3.0028   18.8894 C   0  0  0  0  0  0  0  0  0  0  0  0
    5.6180   -7.9194   16.1754 O   0  0  0  0  0  0  0  0  0  0  0  0
    9.7259   -5.3080   18.4485 C   0  0  0  0  0  0  0  0  0  0  0  0
    9.4578   -5.0200   16.3036 N   0  0  0  0  0  0  0  0  0  0  0  0
    5.0287   -8.9365   16.8223 C   0  0  0  0  0  0  0  0  0  0  0  0
    8.7742   -6.1498   16.6764 C   0  0  0  0  0  0  0  0  0  0  0  0
   10.9418   -3.4032   21.2053 O   0  0  0  0  0  0  0  0  0  0  0  0
    1.4797   -8.6258   16.2950 C   0  0  0  0  0  0  0  0  0  0  0  0
    9.2861   -1.2743   25.3585 C   0  0  0  0  0  0  0  0  0  0  0  0
    1.8892  -10.3985   17.7511 N   0  0  0  0  0  0  0  0  0  0  0  0
    9.6210   -0.6952   24.0976 C   0  0  0  0  0  0  0  0  0  0  0  0
    7.0792   -9.0217   17.1429 C   0  0  0  0  0  0  0  0  0  0  0  0
    3.1713  -10.1816   17.6634 C   0  0  0  0  0  0  0  0  0  0  0  0
    2.7878   -8.3822   16.2137 C   0  0  0  0  0  0  0  0  0  0  0  0
    9.4601   -2.6590   25.6528 C   0  0  0  0  0  0  0  0  0  0  0  0
   10.1182   -1.5672   23.1165 C   0  0  0  0  0  0  0  0  0  0  0  0
    1.0552   -9.6360   17.0650 C   0  0  0  0  0  0  0  0  0  0  0  0
    3.6519   -9.1783   16.9039 C   0  0  0  0  0  0  0  0  0  0  0  0
    7.8675   -7.0096   15.9415 C   0  0  0  0  0  0  0  0  0  0  0  0
    5.9733   -9.6553   17.3832 N   0  0  0  0  0  0  0  0  0  0  0  0
   10.2411   -2.9363   23.4301 C   0  0  0  0  0  0  0  0  0  0  0  0
   10.7288   -3.8197   19.9525 C   0  0  0  0  0  0  0  0  0  0  0  0
   10.1189   -5.0054   19.6987 C   0  0  0  0  0  0  0  0  0  0  0  0
  1  3  4  0
  1  7  4  0
  2 21  4  0
  2 27  4  0
  3  9  4  0
  3 10  4  0
  4  8  4  0
  4 18  4  0
  4 25  1  0
  5  9  4  0
  5 12  4  0
  6 13  1  0
  6 27  1  0
  7 28  4  0
  8 11  4  0
  9 29  4  0
 10 12  4  0
 11 24  1  0
 11 26  4  0
 12 25  1  0
 13 28  1  0
 14 20  4  0
 14 23  4  0
 15 17  4  0
 15 21  4  0
 16 19  4  0
 16 23  4  0
 17 22  4  0
 18 26  4  0
 19 24  4  0
 20 24  4  0
 22 27  4  0
 28 29  4  0
M  END
$$$$

 Created by Python create_sdf_string function

 29 33  0  0  0  0  0  0  0  0999 V2000
   10.7215   -3.3326   17.6437 C   0  0  0  0  0  0  0  0  0  0  0  0
    9.9489   -3.4675   24.6487 N   0  0  0  0  0  0  0  0  0  0  0  0
   10.0172   -4.4740   17.4101 C   0  0  0  0  0  0  0  0  0  0  0  0
    6.9051   -7.9575   16.4222 C   0  0  0  0  0  0  0  0  0  0  0  0
    8.9969   -6.3552   17.9668 N   0  0  0  0  0  0  0  0  0  0  0  0
   10.6702   -3.9051   22.4070 C   0  0  0  0  0  0  0  0  0  0  0  0
   11.0625   -3.0028   18.8894 C   0  0  0  0  0  0  0  0  0  0  0  0
    5.6180   -7.9194   16.1754 O   0  0  0  0  0  0  0  0  0  0  0  0
    9.7259   -5.3080   18.4485 C   0  0  0  0  0  0  0  0  0  0  0  0
    9.4578   -5.0200   16.3036 N   0  0  0  0  0  0  0  0  0  0  0  0
    5.0287   -8.9365   16.8223 C   0  0  0  0  0  0  0  0  0  0  0  0
    8.7742   -6.1498   16.6764 C   0  0  0  0  0  0  0  0  0  0  0  0
   10.9418   -3.4032   21.2053 O   0  0  0  0  0  0  0  0  0  0  0  0
    1.4797   -8.6258   16.2950 C   0  0  0  0  0  0  0  0  0  0  0  0
    9.2861   -1.2743   25.3585 C   0  0  0  0  0  0  0  0  0  0  0  0
    1.8892  -10.3985   17.7511 N   0  0  0  0  0  0  0  0  0  0  0  0
    9.6210   -0.6952   24.0976 C   0  0  0  0  0  0  0  0  0  0  0  0
    7.0792   -9.0217   17.1429 C   0  0  0  0  0  0  0  0  0  0  0  0
    3.1713  -10.1816   17.6634 C   0  0  0  0  0  0  0  0  0  0  0  0
    2.7878   -8.3822   16.2137 C   0  0  0  0  0  0  0  0  0  0  0  0
    9.4601   -2.6590   25.6528 C   0  0  0  0  0  0  0  0  0  0  0  0
   10.1182   -1.5672   23.1165 C   0  0  0  0  0  0  0  0  0  0  0  0
    1.0552   -9.6360   17.0650 C   0  0  0  0  0  0  0  0  0  0  0  0
    3.6519   -9.1783   16.9039 C   0  0  0  0  0  0  0  0  0  0  0  0
    7.8675   -7.0096   15.9415 C   0  0  0  0  0  0  0  0  0  0  0  0
    5.9733   -9.6553   17.3832 N   0  0  0  0  0  0  0  0  0  0  0  0
   10.2411   -2.9363   23.4301 C   0  0  0  0  0  0  0  0  0  0  0  0
   10.7288   -3.8197   19.9525 C   0  0  0  0  0  0  0  0  0  0  0  0
   10.1189   -5.0054   19.6987 C   0  0  0  0  0  0  0  0  0  0  0  0
  1  3  4  0
  1  7  4  0
  2 21  4  0
  2 27  4  0
  3  9  4  0
  3 10  4  0
  4  8  4  0
  4 18  4  0
  4 25  1  0
  5  9  4  0
  5 12  4  0
  6 13  1  0
  6 27  1  0
  7 28  4  0
  8 11  4  0
  9 29  4  0
 10 12  4  0
 11 24  1  0
 11 26  4  0
 12 25  1  0
 13 28  1  0
 14 20  4  0
 14 23  4  0
 15 17  4  0
 15 21  4  0
 16 19  4  0
 16 23  4  0
 17 22  4  0
 18 26  4  0
 19 24  4  0
 20 24  4  0
 22 27  4  0
 28 29  4  0
M  END
$$$$

 Created by Python create_sdf_string function

 29 33  0  0  0  0  0  0  0  0999 V2000
   10.7215   -3.3326   17.6437 C   0  0  0  0  0  0  0  0  0  0  0  0
    9.9489   -3.4675   24.6487 N   0  0  0  0  0  0  0  0  0  0  0  0
   10.0172   -4.4740   17.4101 C   0  0  0  0  0  0  0  0  0  0  0  0
    6.9051   -7.9575   16.4222 C   0  0  0  0  0  0  0  0  0  0  0  0
    8.9969   -6.3552   17.9668 N   0  0  0  0  0  0  0  0  0  0  0  0
   10.6702   -3.9051   22.4070 C   0  0  0  0  0  0  0  0  0  0  0  0
   11.0625   -3.0028   18.8894 C   0  0  0  0  0  0  0  0  0  0  0  0
    5.6180   -7.9194   16.1754 O   0  0  0  0  0  0  0  0  0  0  0  0
    9.7259   -5.3080   18.4485 C   0  0  0  0  0  0  0  0  0  0  0  0
    9.4578   -5.0200   16.3036 N   0  0  0  0  0  0  0  0  0  0  0  0
    5.0287   -8.9365   16.8223 C   0  0  0  0  0  0  0  0  0  0  0  0
    8.7742   -6.1498   16.6764 C   0  0  0  0  0  0  0  0  0  0  0  0
   10.9418   -3.4032   21.2053 O   0  0  0  0  0  0  0  0  0  0  0  0
    1.4797   -8.6258   16.2950 C   0  0  0  0  0  0  0  0  0  0  0  0
    9.2861   -1.2743   25.3585 C   0  0  0  0  0  0  0  0  0  0  0  0
    1.8892  -10.3985   17.7511 N   0  0  0  0  0  0  0  0  0  0  0  0
    9.6210   -0.6952   24.0976 C   0  0  0  0  0  0  0  0  0  0  0  0
    7.0792   -9.0217   17.1429 C   0  0  0  0  0  0  0  0  0  0  0  0
    3.1713  -10.1816   17.6634 C   0  0  0  0  0  0  0  0  0  0  0  0
    2.7878   -8.3822   16.2137 C   0  0  0  0  0  0  0  0  0  0  0  0
    9.4601   -2.6590   25.6528 C   0  0  0  0  0  0  0  0  0  0  0  0
   10.1182   -1.5672   23.1165 C   0  0  0  0  0  0  0  0  0  0  0  0
    1.0552   -9.6360   17.0650 C   0  0  0  0  0  0  0  0  0  0  0  0
    3.6519   -9.1783   16.9039 C   0  0  0  0  0  0  0  0  0  0  0  0
    7.8675   -7.0096   15.9415 C   0  0  0  0  0  0  0  0  0  0  0  0
    5.9733   -9.6553   17.3832 N   0  0  0  0  0  0  0  0  0  0  0  0
   10.2411   -2.9363   23.4301 C   0  0  0  0  0  0  0  0  0  0  0  0
   10.7288   -3.8197   19.9525 C   0  0  0  0  0  0  0  0  0  0  0  0
   10.1189   -5.0054   19.6987 C   0  0  0  0  0  0  0  0  0  0  0  0
  1  3  4  0
  1  7  4  0
  2 21  4  0
  2 27  4  0
  3  9  4  0
  3 10  4  0
  4  8  4  0
  4 18  4  0
  4 25  1  0
  5  9  4  0
  5 12  4  0
  6 13  1  0
  6 27  1  0
  7 28  4  0
  8 11  4  0
  9 29  4  0
 10 12  4  0
 11 24  1  0
 11 26  4  0
 12 25  1  0
 13 28  1  0
 14 20  4  0
 14 23  4  0
 15 17  4  0
 15 21  4  0
 16 19  4  0
 16 23  4  0
 17 22  4  0
 18 26  4  0
 19 24  4  0
 20 24  4  0
 22 27  4  0
 28 29  4  0
M  END
$$$$

 Created by Python create_sdf_string function

 29 33  0  0  0  0  0  0  0  0999 V2000
   10.7215   -3.3326   17.6437 C   0  0  0  0  0  0  0  0  0  0  0  0
    9.9489   -3.4675   24.6487 N   0  0  0  0  0  0  0  0  0  0  0  0
   10.0172   -4.4740   17.4101 C   0  0  0  0  0  0  0  0  0  0  0  0
    6.9051   -7.9575   16.4222 C   0  0  0  0  0  0  0  0  0  0  0  0
    8.9969   -6.3552   17.9668 N   0  0  0  0  0  0  0  0  0  0  0  0
   10.6702   -3.9051   22.4070 C   0  0  0  0  0  0  0  0  0  0  0  0
   11.0625   -3.0028   18.8894 C   0  0  0  0  0  0  0  0  0  0  0  0
    5.6180   -7.9194   16.1754 O   0  0  0  0  0  0  0  0  0  0  0  0
    9.7259   -5.3080   18.4485 C   0  0  0  0  0  0  0  0  0  0  0  0
    9.4578   -5.0200   16.3036 N   0  0  0  0  0  0  0  0  0  0  0  0
    5.0287   -8.9365   16.8223 C   0  0  0  0  0  0  0  0  0  0  0  0
    8.7742   -6.1498   16.6764 C   0  0  0  0  0  0  0  0  0  0  0  0
   10.9418   -3.4032   21.2053 O   0  0  0  0  0  0  0  0  0  0  0  0
    1.4797   -8.6258   16.2950 C   0  0  0  0  0  0  0  0  0  0  0  0
    9.2861   -1.2743   25.3585 C   0  0  0  0  0  0  0  0  0  0  0  0
    1.8892  -10.3985   17.7511 N   0  0  0  0  0  0  0  0  0  0  0  0
    9.6210   -0.6952   24.0976 C   0  0  0  0  0  0  0  0  0  0  0  0
    7.0792   -9.0217   17.1429 C   0  0  0  0  0  0  0  0  0  0  0  0
    3.1713  -10.1816   17.6634 C   0  0  0  0  0  0  0  0  0  0  0  0
    2.7878   -8.3822   16.2137 C   0  0  0  0  0  0  0  0  0  0  0  0
    9.4601   -2.6590   25.6528 C   0  0  0  0  0  0  0  0  0  0  0  0
   10.1182   -1.5672   23.1165 C   0  0  0  0  0  0  0  0  0  0  0  0
    1.0552   -9.6360   17.0650 C   0  0  0  0  0  0  0  0  0  0  0  0
    3.6519   -9.1783   16.9039 C   0  0  0  0  0  0  0  0  0  0  0  0
    7.8675   -7.0096   15.9415 C   0  0  0  0  0  0  0  0  0  0  0  0
    5.9733   -9.6553   17.3832 N   0  0  0  0  0  0  0  0  0  0  0  0
   10.2411   -2.9363   23.4301 C   0  0  0  0  0  0  0  0  0  0  0  0
   10.7288   -3.8197   19.9525 C   0  0  0  0  0  0  0  0  0  0  0  0
   10.1189   -5.0054   19.6987 C   0  0  0  0  0  0  0  0  0  0  0  0
  1  3  4  0
  1  7  4  0
  2 21  4  0
  2 27  4  0
  3  9  4  0
  3 10  4  0
  4  8  4  0
  4 18  4  0
  4 25  1  0
  5  9  4  0
  5 12  4  0
  6 13  1  0
  6 27  1  0
  7 28  4  0
  8 11  4  0
  9 29  4  0
 10 12  4  0
 11 24  1  0
 11 26  4  0
 12 25  1  0
 13 28  1  0
 14 20  4  0
 14 23  4  0
 15 17  4  0
 15 21  4  0
 16 19  4  0
 16 23  4  0
 17 22  4  0
 18 26  4  0
 19 24  4  0
 20 24  4  0
 22 27  4  0
 28 29  4  0
M  END
$$$$

 Created by Python create_sdf_string function

 29 33  0  0  0  0  0  0  0  0999 V2000
   10.7215   -3.3326   17.6437 C   0  0  0  0  0  0  0  0  0  0  0  0
    9.9489   -3.4675   24.6487 N   0  0  0  0  0  0  0  0  0  0  0  0
   10.0172   -4.4740   17.4101 C   0  0  0  0  0  0  0  0  0  0  0  0
    6.9051   -7.9575   16.4222 C   0  0  0  0  0  0  0  0  0  0  0  0
    8.9969   -6.3552   17.9668 N   0  0  0  0  0  0  0  0  0  0  0  0
   10.6702   -3.9051   22.4070 C   0  0  0  0  0  0  0  0  0  0  0  0
   11.0625   -3.0028   18.8894 C   0  0  0  0  0  0  0  0  0  0  0  0
    5.6180   -7.9194   16.1754 O   0  0  0  0  0  0  0  0  0  0  0  0
    9.7259   -5.3080   18.4485 C   0  0  0  0  0  0  0  0  0  0  0  0
    9.4578   -5.0200   16.3036 N   0  0  0  0  0  0  0  0  0  0  0  0
    5.0287   -8.9365   16.8223 C   0  0  0  0  0  0  0  0  0  0  0  0
    8.7742   -6.1498   16.6764 C   0  0  0  0  0  0  0  0  0  0  0  0
   10.9418   -3.4032   21.2053 O   0  0  0  0  0  0  0  0  0  0  0  0
    1.4797   -8.6258   16.2950 C   0  0  0  0  0  0  0  0  0  0  0  0
    9.2861   -1.2743   25.3585 C   0  0  0  0  0  0  0  0  0  0  0  0
    1.8892  -10.3985   17.7511 N   0  0  0  0  0  0  0  0  0  0  0  0
    9.6210   -0.6952   24.0976 C   0  0  0  0  0  0  0  0  0  0  0  0
    7.0792   -9.0217   17.1429 C   0  0  0  0  0  0  0  0  0  0  0  0
    3.1713  -10.1816   17.6634 C   0  0  0  0  0  0  0  0  0  0  0  0
    2.7878   -8.3822   16.2137 C   0  0  0  0  0  0  0  0  0  0  0  0
    9.4601   -2.6590   25.6528 C   0  0  0  0  0  0  0  0  0  0  0  0
   10.1182   -1.5672   23.1165 C   0  0  0  0  0  0  0  0  0  0  0  0
    1.0552   -9.6360   17.0650 C   0  0  0  0  0  0  0  0  0  0  0  0
    3.6519   -9.1783   16.9039 C   0  0  0  0  0  0  0  0  0  0  0  0
    7.8675   -7.0096   15.9415 C   0  0  0  0  0  0  0  0  0  0  0  0
    5.9733   -9.6553   17.3832 N   0  0  0  0  0  0  0  0  0  0  0  0
   10.2411   -2.9363   23.4301 C   0  0  0  0  0  0  0  0  0  0  0  0
   10.7288   -3.8197   19.9525 C   0  0  0  0  0  0  0  0  0  0  0  0
   10.1189   -5.0054   19.6987 C   0  0  0  0  0  0  0  0  0  0  0  0
  1  3  4  0
  1  7  4  0
  2 21  4  0
  2 27  4  0
  3  9  4  0
  3 10  4  0
  4  8  4  0
  4 18  4  0
  4 25  1  0
  5  9  4  0
  5 12  4  0
  6 13  1  0
  6 27  1  0
  7 28  4  0
  8 11  4  0
  9 29  4  0
 10 12  4  0
 11 24  1  0
 11 26  4  0
 12 25  1  0
 13 28  1  0
 14 20  4  0
 14 23  4  0
 15 17  4  0
 15 21  4  0
 16 19  4  0
 16 23  4  0
 17 22  4  0
 18 26  4  0
 19 24  4  0
 20 24  4  0
 22 27  4  0
 28 29  4  0
M  END
$$$$

 Created by Python create_sdf_string function

 29 33  0  0  0  0  0  0  0  0999 V2000
   10.7215   -3.3326   17.6437 C   0  0  0  0  0  0  0  0  0  0  0  0
    9.9489   -3.4675   24.6487 N   0  0  0  0  0  0  0  0  0  0  0  0
   10.0172   -4.4740   17.4101 C   0  0  0  0  0  0  0  0  0  0  0  0
    6.9051   -7.9575   16.4222 C   0  0  0  0  0  0  0  0  0  0  0  0
    8.9969   -6.3552   17.9668 N   0  0  0  0  0  0  0  0  0  0  0  0
   10.6702   -3.9051   22.4070 C   0  0  0  0  0  0  0  0  0  0  0  0
   11.0625   -3.0028   18.8894 C   0  0  0  0  0  0  0  0  0  0  0  0
    5.6180   -7.9194   16.1754 O   0  0  0  0  0  0  0  0  0  0  0  0
    9.7259   -5.3080   18.4485 C   0  0  0  0  0  0  0  0  0  0  0  0
    9.4578   -5.0200   16.3036 N   0  0  0  0  0  0  0  0  0  0  0  0
    5.0287   -8.9365   16.8223 C   0  0  0  0  0  0  0  0  0  0  0  0
    8.7742   -6.1498   16.6764 C   0  0  0  0  0  0  0  0  0  0  0  0
   10.9418   -3.4032   21.2053 O   0  0  0  0  0  0  0  0  0  0  0  0
    1.4797   -8.6258   16.2950 C   0  0  0  0  0  0  0  0  0  0  0  0
    9.2861   -1.2743   25.3585 C   0  0  0  0  0  0  0  0  0  0  0  0
    1.8892  -10.3985   17.7511 N   0  0  0  0  0  0  0  0  0  0  0  0
    9.6210   -0.6952   24.0976 C   0  0  0  0  0  0  0  0  0  0  0  0
    7.0792   -9.0217   17.1429 C   0  0  0  0  0  0  0  0  0  0  0  0
    3.1713  -10.1816   17.6634 C   0  0  0  0  0  0  0  0  0  0  0  0
    2.7878   -8.3822   16.2137 C   0  0  0  0  0  0  0  0  0  0  0  0
    9.4601   -2.6590   25.6528 C   0  0  0  0  0  0  0  0  0  0  0  0
   10.1182   -1.5672   23.1165 C   0  0  0  0  0  0  0  0  0  0  0  0
    1.0552   -9.6360   17.0650 C   0  0  0  0  0  0  0  0  0  0  0  0
    3.6519   -9.1783   16.9039 C   0  0  0  0  0  0  0  0  0  0  0  0
    7.8675   -7.0096   15.9415 C   0  0  0  0  0  0  0  0  0  0  0  0
    5.9733   -9.6553   17.3832 N   0  0  0  0  0  0  0  0  0  0  0  0
   10.2411   -2.9363   23.4301 C   0  0  0  0  0  0  0  0  0  0  0  0
   10.7288   -3.8197   19.9525 C   0  0  0  0  0  0  0  0  0  0  0  0
   10.1189   -5.0054   19.6987 C   0  0  0  0  0  0  0  0  0  0  0  0
  1  3  4  0
  1  7  4  0
  2 21  4  0
  2 27  4  0
  3  9  4  0
  3 10  4  0
  4  8  4  0
  4 18  4  0
  4 25  1  0
  5  9  4  0
  5 12  4  0
  6 13  1  0
  6 27  1  0
  7 28  4  0
  8 11  4  0
  9 29  4  0
 10 12  4  0
 11 24  1  0
 11 26  4  0
 12 25  1  0
 13 28  1  0
 14 20  4  0
 14 23  4  0
 15 17  4  0
 15 21  4  0
 16 19  4  0
 16 23  4  0
 17 22  4  0
 18 26  4  0
 19 24  4  0
 20 24  4  0
 22 27  4  0
 28 29  4  0
M  END
$$$$

 Created by Python create_sdf_string function

 29 33  0  0  0  0  0  0  0  0999 V2000
   10.7215   -3.3326   17.6437 C   0  0  0  0  0  0  0  0  0  0  0  0
    9.9489   -3.4675   24.6487 N   0  0  0  0  0  0  0  0  0  0  0  0
   10.0172   -4.4740   17.4101 C   0  0  0  0  0  0  0  0  0  0  0  0
    6.9051   -7.9575   16.4222 C   0  0  0  0  0  0  0  0  0  0  0  0
    8.9969   -6.3552   17.9668 N   0  0  0  0  0  0  0  0  0  0  0  0
   10.6702   -3.9051   22.4070 C   0  0  0  0  0  0  0  0  0  0  0  0
   11.0625   -3.0028   18.8894 C   0  0  0  0  0  0  0  0  0  0  0  0
    5.6180   -7.9194   16.1754 O   0  0  0  0  0  0  0  0  0  0  0  0
    9.7259   -5.3080   18.4485 C   0  0  0  0  0  0  0  0  0  0  0  0
    9.4578   -5.0200   16.3036 N   0  0  0  0  0  0  0  0  0  0  0  0
    5.0287   -8.9365   16.8223 C   0  0  0  0  0  0  0  0  0  0  0  0
    8.7742   -6.1498   16.6764 C   0  0  0  0  0  0  0  0  0  0  0  0
   10.9418   -3.4032   21.2053 O   0  0  0  0  0  0  0  0  0  0  0  0
    1.4797   -8.6258   16.2950 C   0  0  0  0  0  0  0  0  0  0  0  0
    9.2861   -1.2743   25.3585 C   0  0  0  0  0  0  0  0  0  0  0  0
    1.8892  -10.3985   17.7511 N   0  0  0  0  0  0  0  0  0  0  0  0
    9.6210   -0.6952   24.0976 C   0  0  0  0  0  0  0  0  0  0  0  0
    7.0792   -9.0217   17.1429 C   0  0  0  0  0  0  0  0  0  0  0  0
    3.1713  -10.1816   17.6634 C   0  0  0  0  0  0  0  0  0  0  0  0
    2.7878   -8.3822   16.2137 C   0  0  0  0  0  0  0  0  0  0  0  0
    9.4601   -2.6590   25.6528 C   0  0  0  0  0  0  0  0  0  0  0  0
   10.1182   -1.5672   23.1165 C   0  0  0  0  0  0  0  0  0  0  0  0
    1.0552   -9.6360   17.0650 C   0  0  0  0  0  0  0  0  0  0  0  0
    3.6519   -9.1783   16.9039 C   0  0  0  0  0  0  0  0  0  0  0  0
    7.8675   -7.0096   15.9415 C   0  0  0  0  0  0  0  0  0  0  0  0
    5.9733   -9.6553   17.3832 N   0  0  0  0  0  0  0  0  0  0  0  0
   10.2411   -2.9363   23.4301 C   0  0  0  0  0  0  0  0  0  0  0  0
   10.7288   -3.8197   19.9525 C   0  0  0  0  0  0  0  0  0  0  0  0
   10.1189   -5.0054   19.6987 C   0  0  0  0  0  0  0  0  0  0  0  0
  1  3  4  0
  1  7  4  0
  2 21  4  0
  2 27  4  0
  3  9  4  0
  3 10  4  0
  4  8  4  0
  4 18  4  0
  4 25  1  0
  5  9  4  0
  5 12  4  0
  6 13  1  0
  6 27  1  0
  7 28  4  0
  8 11  4  0
  9 29  4  0
 10 12  4  0
 11 24  1  0
 11 26  4  0
 12 25  1  0
 13 28  1  0
 14 20  4  0
 14 23  4  0
 15 17  4  0
 15 21  4  0
 16 19  4  0
 16 23  4  0
 17 22  4  0
 18 26  4  0
 19 24  4  0
 20 24  4  0
 22 27  4  0
 28 29  4  0
M  END
$$$$

 Created by Python create_sdf_string function

 29 33  0  0  0  0  0  0  0  0999 V2000
   10.7215   -3.3326   17.6437 C   0  0  0  0  0  0  0  0  0  0  0  0
    9.9489   -3.4675   24.6487 N   0  0  0  0  0  0  0  0  0  0  0  0
   10.0172   -4.4740   17.4101 C   0  0  0  0  0  0  0  0  0  0  0  0
    6.9051   -7.9575   16.4222 C   0  0  0  0  0  0  0  0  0  0  0  0
    8.9969   -6.3552   17.9668 N   0  0  0  0  0  0  0  0  0  0  0  0
   10.6702   -3.9051   22.4070 C   0  0  0  0  0  0  0  0  0  0  0  0
   11.0625   -3.0028   18.8894 C   0  0  0  0  0  0  0  0  0  0  0  0
    5.6180   -7.9194   16.1754 O   0  0  0  0  0  0  0  0  0  0  0  0
    9.7259   -5.3080   18.4485 C   0  0  0  0  0  0  0  0  0  0  0  0
    9.4578   -5.0200   16.3036 N   0  0  0  0  0  0  0  0  0  0  0  0
    5.0287   -8.9365   16.8223 C   0  0  0  0  0  0  0  0  0  0  0  0
    8.7742   -6.1498   16.6764 C   0  0  0  0  0  0  0  0  0  0  0  0
   10.9418   -3.4032   21.2053 O   0  0  0  0  0  0  0  0  0  0  0  0
    1.4797   -8.6258   16.2950 C   0  0  0  0  0  0  0  0  0  0  0  0
    9.2861   -1.2743   25.3585 C   0  0  0  0  0  0  0  0  0  0  0  0
    1.8892  -10.3985   17.7511 N   0  0  0  0  0  0  0  0  0  0  0  0
    9.6210   -0.6952   24.0976 C   0  0  0  0  0  0  0  0  0  0  0  0
    7.0792   -9.0217   17.1429 C   0  0  0  0  0  0  0  0  0  0  0  0
    3.1713  -10.1816   17.6634 C   0  0  0  0  0  0  0  0  0  0  0  0
    2.7878   -8.3822   16.2137 C   0  0  0  0  0  0  0  0  0  0  0  0
    9.4601   -2.6590   25.6528 C   0  0  0  0  0  0  0  0  0  0  0  0
   10.1182   -1.5672   23.1165 C   0  0  0  0  0  0  0  0  0  0  0  0
    1.0552   -9.6360   17.0650 C   0  0  0  0  0  0  0  0  0  0  0  0
    3.6519   -9.1783   16.9039 C   0  0  0  0  0  0  0  0  0  0  0  0
    7.8675   -7.0096   15.9415 C   0  0  0  0  0  0  0  0  0  0  0  0
    5.9733   -9.6553   17.3832 N   0  0  0  0  0  0  0  0  0  0  0  0
   10.2411   -2.9363   23.4301 C   0  0  0  0  0  0  0  0  0  0  0  0
   10.7288   -3.8197   19.9525 C   0  0  0  0  0  0  0  0  0  0  0  0
   10.1189   -5.0054   19.6987 C   0  0  0  0  0  0  0  0  0  0  0  0
  1  3  4  0
  1  7  4  0
  2 21  4  0
  2 27  4  0
  3  9  4  0
  3 10  4  0
  4  8  4  0
  4 18  4  0
  4 25  1  0
  5  9  4  0
  5 12  4  0
  6 13  1  0
  6 27  1  0
  7 28  4  0
  8 11  4  0
  9 29  4  0
 10 12  4  0
 11 24  1  0
 11 26  4  0
 12 25  1  0
 13 28  1  0
 14 20  4  0
 14 23  4  0
 15 17  4  0
 15 21  4  0
 16 19  4  0
 16 23  4  0
 17 22  4  0
 18 26  4  0
 19 24  4  0
 20 24  4  0
 22 27  4  0
 28 29  4  0
M  END
$$$$

 Created by Python create_sdf_string function

 29 33  0  0  0  0  0  0  0  0999 V2000
   10.7215   -3.3326   17.6437 C   0  0  0  0  0  0  0  0  0  0  0  0
    9.9489   -3.4675   24.6487 N   0  0  0  0  0  0  0  0  0  0  0  0
   10.0172   -4.4740   17.4101 C   0  0  0  0  0  0  0  0  0  0  0  0
    6.9051   -7.9575   16.4222 C   0  0  0  0  0  0  0  0  0  0  0  0
    8.9969   -6.3552   17.9668 N   0  0  0  0  0  0  0  0  0  0  0  0
   10.6702   -3.9051   22.4070 C   0  0  0  0  0  0  0  0  0  0  0  0
   11.0625   -3.0028   18.8894 C   0  0  0  0  0  0  0  0  0  0  0  0
    5.6180   -7.9194   16.1754 O   0  0  0  0  0  0  0  0  0  0  0  0
    9.7259   -5.3080   18.4485 C   0  0  0  0  0  0  0  0  0  0  0  0
    9.4578   -5.0200   16.3036 N   0  0  0  0  0  0  0  0  0  0  0  0
    5.0287   -8.9365   16.8223 C   0  0  0  0  0  0  0  0  0  0  0  0
    8.7742   -6.1498   16.6764 C   0  0  0  0  0  0  0  0  0  0  0  0
   10.9418   -3.4032   21.2053 O   0  0  0  0  0  0  0  0  0  0  0  0
    1.4797   -8.6258   16.2950 C   0  0  0  0  0  0  0  0  0  0  0  0
    9.2861   -1.2743   25.3585 C   0  0  0  0  0  0  0  0  0  0  0  0
    1.8892  -10.3985   17.7511 N   0  0  0  0  0  0  0  0  0  0  0  0
    9.6210   -0.6952   24.0976 C   0  0  0  0  0  0  0  0  0  0  0  0
    7.0792   -9.0217   17.1429 C   0  0  0  0  0  0  0  0  0  0  0  0
    3.1713  -10.1816   17.6634 C   0  0  0  0  0  0  0  0  0  0  0  0
    2.7878   -8.3822   16.2137 C   0  0  0  0  0  0  0  0  0  0  0  0
    9.4601   -2.6590   25.6528 C   0  0  0  0  0  0  0  0  0  0  0  0
   10.1182   -1.5672   23.1165 C   0  0  0  0  0  0  0  0  0  0  0  0
    1.0552   -9.6360   17.0650 C   0  0  0  0  0  0  0  0  0  0  0  0
    3.6519   -9.1783   16.9039 C   0  0  0  0  0  0  0  0  0  0  0  0
    7.8675   -7.0096   15.9415 C   0  0  0  0  0  0  0  0  0  0  0  0
    5.9733   -9.6553   17.3832 N   0  0  0  0  0  0  0  0  0  0  0  0
   10.2411   -2.9363   23.4301 C   0  0  0  0  0  0  0  0  0  0  0  0
   10.7288   -3.8197   19.9525 C   0  0  0  0  0  0  0  0  0  0  0  0
   10.1189   -5.0054   19.6987 C   0  0  0  0  0  0  0  0  0  0  0  0
  1  3  4  0
  1  7  4  0
  2 21  4  0
  2 27  4  0
  3  9  4  0
  3 10  4  0
  4  8  4  0
  4 18  4  0
  4 25  1  0
  5  9  4  0
  5 12  4  0
  6 13  1  0
  6 27  1  0
  7 28  4  0
  8 11  4  0
  9 29  4  0
 10 12  4  0
 11 24  1  0
 11 26  4  0
 12 25  1  0
 13 28  1  0
 14 20  4  0
 14 23  4  0
 15 17  4  0
 15 21  4  0
 16 19  4  0
 16 23  4  0
 17 22  4  0
 18 26  4  0
 19 24  4  0
 20 24  4  0
 22 27  4  0
 28 29  4  0
M  END
$$$$

 Created by Python create_sdf_string function

 29 33  0  0  0  0  0  0  0  0999 V2000
   10.7215   -3.3326   17.6437 C   0  0  0  0  0  0  0  0  0  0  0  0
    9.9489   -3.4675   24.6487 N   0  0  0  0  0  0  0  0  0  0  0  0
   10.0172   -4.4740   17.4101 C   0  0  0  0  0  0  0  0  0  0  0  0
    6.9051   -7.9575   16.4222 C   0  0  0  0  0  0  0  0  0  0  0  0
    8.9969   -6.3552   17.9668 N   0  0  0  0  0  0  0  0  0  0  0  0
   10.6702   -3.9051   22.4070 C   0  0  0  0  0  0  0  0  0  0  0  0
   11.0625   -3.0028   18.8894 C   0  0  0  0  0  0  0  0  0  0  0  0
    5.6180   -7.9194   16.1754 O   0  0  0  0  0  0  0  0  0  0  0  0
    9.7259   -5.3080   18.4485 C   0  0  0  0  0  0  0  0  0  0  0  0
    9.4578   -5.0200   16.3036 N   0  0  0  0  0  0  0  0  0  0  0  0
    5.0287   -8.9365   16.8223 C   0  0  0  0  0  0  0  0  0  0  0  0
    8.7742   -6.1498   16.6764 C   0  0  0  0  0  0  0  0  0  0  0  0
   10.9418   -3.4032   21.2053 O   0  0  0  0  0  0  0  0  0  0  0  0
    1.4797   -8.6258   16.2950 C   0  0  0  0  0  0  0  0  0  0  0  0
    9.2861   -1.2743   25.3585 C   0  0  0  0  0  0  0  0  0  0  0  0
    1.8892  -10.3985   17.7511 N   0  0  0  0  0  0  0  0  0  0  0  0
    9.6210   -0.6952   24.0976 C   0  0  0  0  0  0  0  0  0  0  0  0
    7.0792   -9.0217   17.1429 C   0  0  0  0  0  0  0  0  0  0  0  0
    3.1713  -10.1816   17.6634 C   0  0  0  0  0  0  0  0  0  0  0  0
    2.7878   -8.3822   16.2137 C   0  0  0  0  0  0  0  0  0  0  0  0
    9.4601   -2.6590   25.6528 C   0  0  0  0  0  0  0  0  0  0  0  0
   10.1182   -1.5672   23.1165 C   0  0  0  0  0  0  0  0  0  0  0  0
    1.0552   -9.6360   17.0650 C   0  0  0  0  0  0  0  0  0  0  0  0
    3.6519   -9.1783   16.9039 C   0  0  0  0  0  0  0  0  0  0  0  0
    7.8675   -7.0096   15.9415 C   0  0  0  0  0  0  0  0  0  0  0  0
    5.9733   -9.6553   17.3832 N   0  0  0  0  0  0  0  0  0  0  0  0
   10.2411   -2.9363   23.4301 C   0  0  0  0  0  0  0  0  0  0  0  0
   10.7288   -3.8197   19.9525 C   0  0  0  0  0  0  0  0  0  0  0  0
   10.1189   -5.0054   19.6987 C   0  0  0  0  0  0  0  0  0  0  0  0
  1  3  4  0
  1  7  4  0
  2 21  4  0
  2 27  4  0
  3  9  4  0
  3 10  4  0
  4  8  4  0
  4 18  4  0
  4 25  1  0
  5  9  4  0
  5 12  4  0
  6 13  1  0
  6 27  1  0
  7 28  4  0
  8 11  4  0
  9 29  4  0
 10 12  4  0
 11 24  1  0
 11 26  4  0
 12 25  1  0
 13 28  1  0
 14 20  4  0
 14 23  4  0
 15 17  4  0
 15 21  4  0
 16 19  4  0
 16 23  4  0
 17 22  4  0
 18 26  4  0
 19 24  4  0
 20 24  4  0
 22 27  4  0
 28 29  4  0
M  END
$$$$

 Created by Python create_sdf_string function

 29 33  0  0  0  0  0  0  0  0999 V2000
   10.7215   -3.3326   17.6437 C   0  0  0  0  0  0  0  0  0  0  0  0
    9.9489   -3.4675   24.6487 N   0  0  0  0  0  0  0  0  0  0  0  0
   10.0172   -4.4740   17.4101 C   0  0  0  0  0  0  0  0  0  0  0  0
    6.9051   -7.9575   16.4222 C   0  0  0  0  0  0  0  0  0  0  0  0
    8.9969   -6.3552   17.9668 N   0  0  0  0  0  0  0  0  0  0  0  0
   10.6702   -3.9051   22.4070 C   0  0  0  0  0  0  0  0  0  0  0  0
   11.0625   -3.0028   18.8894 C   0  0  0  0  0  0  0  0  0  0  0  0
    5.6180   -7.9194   16.1754 O   0  0  0  0  0  0  0  0  0  0  0  0
    9.7259   -5.3080   18.4485 C   0  0  0  0  0  0  0  0  0  0  0  0
    9.4578   -5.0200   16.3036 N   0  0  0  0  0  0  0  0  0  0  0  0
    5.0287   -8.9365   16.8223 C   0  0  0  0  0  0  0  0  0  0  0  0
    8.7742   -6.1498   16.6764 C   0  0  0  0  0  0  0  0  0  0  0  0
   10.9418   -3.4032   21.2053 O   0  0  0  0  0  0  0  0  0  0  0  0
    1.4797   -8.6258   16.2950 C   0  0  0  0  0  0  0  0  0  0  0  0
    9.2861   -1.2743   25.3585 C   0  0  0  0  0  0  0  0  0  0  0  0
    1.8892  -10.3985   17.7511 N   0  0  0  0  0  0  0  0  0  0  0  0
    9.6210   -0.6952   24.0976 C   0  0  0  0  0  0  0  0  0  0  0  0
    7.0792   -9.0217   17.1429 C   0  0  0  0  0  0  0  0  0  0  0  0
    3.1713  -10.1816   17.6634 C   0  0  0  0  0  0  0  0  0  0  0  0
    2.7878   -8.3822   16.2137 C   0  0  0  0  0  0  0  0  0  0  0  0
    9.4601   -2.6590   25.6528 C   0  0  0  0  0  0  0  0  0  0  0  0
   10.1182   -1.5672   23.1165 C   0  0  0  0  0  0  0  0  0  0  0  0
    1.0552   -9.6360   17.0650 C   0  0  0  0  0  0  0  0  0  0  0  0
    3.6519   -9.1783   16.9039 C   0  0  0  0  0  0  0  0  0  0  0  0
    7.8675   -7.0096   15.9415 C   0  0  0  0  0  0  0  0  0  0  0  0
    5.9733   -9.6553   17.3832 N   0  0  0  0  0  0  0  0  0  0  0  0
   10.2411   -2.9363   23.4301 C   0  0  0  0  0  0  0  0  0  0  0  0
   10.7288   -3.8197   19.9525 C   0  0  0  0  0  0  0  0  0  0  0  0
   10.1189   -5.0054   19.6987 C   0  0  0  0  0  0  0  0  0  0  0  0
  1  3  4  0
  1  7  4  0
  2 21  4  0
  2 27  4  0
  3  9  4  0
  3 10  4  0
  4  8  4  0
  4 18  4  0
  4 25  1  0
  5  9  4  0
  5 12  4  0
  6 13  1  0
  6 27  1  0
  7 28  4  0
  8 11  4  0
  9 29  4  0
 10 12  4  0
 11 24  1  0
 11 26  4  0
 12 25  1  0
 13 28  1  0
 14 20  4  0
 14 23  4  0
 15 17  4  0
 15 21  4  0
 16 19  4  0
 16 23  4  0
 17 22  4  0
 18 26  4  0
 19 24  4  0
 20 24  4  0
 22 27  4  0
 28 29  4  0
M  END
$$$$

 Created by Python create_sdf_string function

 29 33  0  0  0  0  0  0  0  0999 V2000
   10.7215   -3.3326   17.6437 C   0  0  0  0  0  0  0  0  0  0  0  0
    9.9489   -3.4675   24.6487 N   0  0  0  0  0  0  0  0  0  0  0  0
   10.0172   -4.4740   17.4101 C   0  0  0  0  0  0  0  0  0  0  0  0
    6.9051   -7.9575   16.4222 C   0  0  0  0  0  0  0  0  0  0  0  0
    8.9969   -6.3552   17.9668 N   0  0  0  0  0  0  0  0  0  0  0  0
   10.6702   -3.9051   22.4070 C   0  0  0  0  0  0  0  0  0  0  0  0
   11.0625   -3.0028   18.8894 C   0  0  0  0  0  0  0  0  0  0  0  0
    5.6180   -7.9194   16.1754 O   0  0  0  0  0  0  0  0  0  0  0  0
    9.7259   -5.3080   18.4485 C   0  0  0  0  0  0  0  0  0  0  0  0
    9.4578   -5.0200   16.3036 N   0  0  0  0  0  0  0  0  0  0  0  0
    5.0287   -8.9365   16.8223 C   0  0  0  0  0  0  0  0  0  0  0  0
    8.7742   -6.1498   16.6764 C   0  0  0  0  0  0  0  0  0  0  0  0
   10.9418   -3.4032   21.2053 O   0  0  0  0  0  0  0  0  0  0  0  0
    1.4797   -8.6258   16.2950 C   0  0  0  0  0  0  0  0  0  0  0  0
    9.2861   -1.2743   25.3585 C   0  0  0  0  0  0  0  0  0  0  0  0
    1.8892  -10.3985   17.7511 N   0  0  0  0  0  0  0  0  0  0  0  0
    9.6210   -0.6952   24.0976 C   0  0  0  0  0  0  0  0  0  0  0  0
    7.0792   -9.0217   17.1429 C   0  0  0  0  0  0  0  0  0  0  0  0
    3.1713  -10.1816   17.6634 C   0  0  0  0  0  0  0  0  0  0  0  0
    2.7878   -8.3822   16.2137 C   0  0  0  0  0  0  0  0  0  0  0  0
    9.4601   -2.6590   25.6528 C   0  0  0  0  0  0  0  0  0  0  0  0
   10.1182   -1.5672   23.1165 C   0  0  0  0  0  0  0  0  0  0  0  0
    1.0552   -9.6360   17.0650 C   0  0  0  0  0  0  0  0  0  0  0  0
    3.6519   -9.1783   16.9039 C   0  0  0  0  0  0  0  0  0  0  0  0
    7.8675   -7.0096   15.9415 C   0  0  0  0  0  0  0  0  0  0  0  0
    5.9733   -9.6553   17.3832 N   0  0  0  0  0  0  0  0  0  0  0  0
   10.2411   -2.9363   23.4301 C   0  0  0  0  0  0  0  0  0  0  0  0
   10.7288   -3.8197   19.9525 C   0  0  0  0  0  0  0  0  0  0  0  0
   10.1189   -5.0054   19.6987 C   0  0  0  0  0  0  0  0  0  0  0  0
  1  3  4  0
  1  7  4  0
  2 21  4  0
  2 27  4  0
  3  9  4  0
  3 10  4  0
  4  8  4  0
  4 18  4  0
  4 25  1  0
  5  9  4  0
  5 12  4  0
  6 13  1  0
  6 27  1  0
  7 28  4  0
  8 11  4  0
  9 29  4  0
 10 12  4  0
 11 24  1  0
 11 26  4  0
 12 25  1  0
 13 28  1  0
 14 20  4  0
 14 23  4  0
 15 17  4  0
 15 21  4  0
 16 19  4  0
 16 23  4  0
 17 22  4  0
 18 26  4  0
 19 24  4  0
 20 24  4  0
 22 27  4  0
 28 29  4  0
M  END
$$$$

 Created by Python create_sdf_string function

 29 33  0  0  0  0  0  0  0  0999 V2000
   10.7215   -3.3326   17.6437 C   0  0  0  0  0  0  0  0  0  0  0  0
    9.9489   -3.4675   24.6487 N   0  0  0  0  0  0  0  0  0  0  0  0
   10.0172   -4.4740   17.4101 C   0  0  0  0  0  0  0  0  0  0  0  0
    6.9051   -7.9575   16.4222 C   0  0  0  0  0  0  0  0  0  0  0  0
    8.9969   -6.3552   17.9668 N   0  0  0  0  0  0  0  0  0  0  0  0
   10.6702   -3.9051   22.4070 C   0  0  0  0  0  0  0  0  0  0  0  0
   11.0625   -3.0028   18.8894 C   0  0  0  0  0  0  0  0  0  0  0  0
    5.6180   -7.9194   16.1754 O   0  0  0  0  0  0  0  0  0  0  0  0
    9.7259   -5.3080   18.4485 C   0  0  0  0  0  0  0  0  0  0  0  0
    9.4578   -5.0200   16.3036 N   0  0  0  0  0  0  0  0  0  0  0  0
    5.0287   -8.9365   16.8223 C   0  0  0  0  0  0  0  0  0  0  0  0
    8.7742   -6.1498   16.6764 C   0  0  0  0  0  0  0  0  0  0  0  0
   10.9418   -3.4032   21.2053 O   0  0  0  0  0  0  0  0  0  0  0  0
    1.4797   -8.6258   16.2950 C   0  0  0  0  0  0  0  0  0  0  0  0
    9.2861   -1.2743   25.3585 C   0  0  0  0  0  0  0  0  0  0  0  0
    1.8892  -10.3985   17.7511 N   0  0  0  0  0  0  0  0  0  0  0  0
    9.6210   -0.6952   24.0976 C   0  0  0  0  0  0  0  0  0  0  0  0
    7.0792   -9.0217   17.1429 C   0  0  0  0  0  0  0  0  0  0  0  0
    3.1713  -10.1816   17.6634 C   0  0  0  0  0  0  0  0  0  0  0  0
    2.7878   -8.3822   16.2137 C   0  0  0  0  0  0  0  0  0  0  0  0
    9.4601   -2.6590   25.6528 C   0  0  0  0  0  0  0  0  0  0  0  0
   10.1182   -1.5672   23.1165 C   0  0  0  0  0  0  0  0  0  0  0  0
    1.0552   -9.6360   17.0650 C   0  0  0  0  0  0  0  0  0  0  0  0
    3.6519   -9.1783   16.9039 C   0  0  0  0  0  0  0  0  0  0  0  0
    7.8675   -7.0096   15.9415 C   0  0  0  0  0  0  0  0  0  0  0  0
    5.9733   -9.6553   17.3832 N   0  0  0  0  0  0  0  0  0  0  0  0
   10.2411   -2.9363   23.4301 C   0  0  0  0  0  0  0  0  0  0  0  0
   10.7288   -3.8197   19.9525 C   0  0  0  0  0  0  0  0  0  0  0  0
   10.1189   -5.0054   19.6987 C   0  0  0  0  0  0  0  0  0  0  0  0
  1  3  4  0
  1  7  4  0
  2 21  4  0
  2 27  4  0
  3  9  4  0
  3 10  4  0
  4  8  4  0
  4 18  4  0
  4 25  1  0
  5  9  4  0
  5 12  4  0
  6 13  1  0
  6 27  1  0
  7 28  4  0
  8 11  4  0
  9 29  4  0
 10 12  4  0
 11 24  1  0
 11 26  4  0
 12 25  1  0
 13 28  1  0
 14 20  4  0
 14 23  4  0
 15 17  4  0
 15 21  4  0
 16 19  4  0
 16 23  4  0
 17 22  4  0
 18 26  4  0
 19 24  4  0
 20 24  4  0
 22 27  4  0
 28 29  4  0
M  END
$$$$

 Created by Python create_sdf_string function

 29 33  0  0  0  0  0  0  0  0999 V2000
   10.7215   -3.3326   17.6437 C   0  0  0  0  0  0  0  0  0  0  0  0
    9.9489   -3.4675   24.6487 N   0  0  0  0  0  0  0  0  0  0  0  0
   10.0172   -4.4740   17.4101 C   0  0  0  0  0  0  0  0  0  0  0  0
    6.9051   -7.9575   16.4222 C   0  0  0  0  0  0  0  0  0  0  0  0
    8.9969   -6.3552   17.9668 N   0  0  0  0  0  0  0  0  0  0  0  0
   10.6702   -3.9051   22.4070 C   0  0  0  0  0  0  0  0  0  0  0  0
   11.0625   -3.0028   18.8894 C   0  0  0  0  0  0  0  0  0  0  0  0
    5.6180   -7.9194   16.1754 O   0  0  0  0  0  0  0  0  0  0  0  0
    9.7259   -5.3080   18.4485 C   0  0  0  0  0  0  0  0  0  0  0  0
    9.4578   -5.0200   16.3036 N   0  0  0  0  0  0  0  0  0  0  0  0
    5.0287   -8.9365   16.8223 C   0  0  0  0  0  0  0  0  0  0  0  0
    8.7742   -6.1498   16.6764 C   0  0  0  0  0  0  0  0  0  0  0  0
   10.9418   -3.4032   21.2053 O   0  0  0  0  0  0  0  0  0  0  0  0
    1.4797   -8.6258   16.2950 C   0  0  0  0  0  0  0  0  0  0  0  0
    9.2861   -1.2743   25.3585 C   0  0  0  0  0  0  0  0  0  0  0  0
    1.8892  -10.3985   17.7511 N   0  0  0  0  0  0  0  0  0  0  0  0
    9.6210   -0.6952   24.0976 C   0  0  0  0  0  0  0  0  0  0  0  0
    7.0792   -9.0217   17.1429 C   0  0  0  0  0  0  0  0  0  0  0  0
    3.1713  -10.1816   17.6634 C   0  0  0  0  0  0  0  0  0  0  0  0
    2.7878   -8.3822   16.2137 C   0  0  0  0  0  0  0  0  0  0  0  0
    9.4601   -2.6590   25.6528 C   0  0  0  0  0  0  0  0  0  0  0  0
   10.1182   -1.5672   23.1165 C   0  0  0  0  0  0  0  0  0  0  0  0
    1.0552   -9.6360   17.0650 C   0  0  0  0  0  0  0  0  0  0  0  0
    3.6519   -9.1783   16.9039 C   0  0  0  0  0  0  0  0  0  0  0  0
    7.8675   -7.0096   15.9415 C   0  0  0  0  0  0  0  0  0  0  0  0
    5.9733   -9.6553   17.3832 N   0  0  0  0  0  0  0  0  0  0  0  0
   10.2411   -2.9363   23.4301 C   0  0  0  0  0  0  0  0  0  0  0  0
   10.7288   -3.8197   19.9525 C   0  0  0  0  0  0  0  0  0  0  0  0
   10.1189   -5.0054   19.6987 C   0  0  0  0  0  0  0  0  0  0  0  0
  1  3  4  0
  1  7  4  0
  2 21  4  0
  2 27  4  0
  3  9  4  0
  3 10  4  0
  4  8  4  0
  4 18  4  0
  4 25  1  0
  5  9  4  0
  5 12  4  0
  6 13  1  0
  6 27  1  0
  7 28  4  0
  8 11  4  0
  9 29  4  0
 10 12  4  0
 11 24  1  0
 11 26  4  0
 12 25  1  0
 13 28  1  0
 14 20  4  0
 14 23  4  0
 15 17  4  0
 15 21  4  0
 16 19  4  0
 16 23  4  0
 17 22  4  0
 18 26  4  0
 19 24  4  0
 20 24  4  0
 22 27  4  0
 28 29  4  0
M  END
$$$$

 Created by Python create_sdf_string function

 29 33  0  0  0  0  0  0  0  0999 V2000
   10.7215   -3.3326   17.6437 C   0  0  0  0  0  0  0  0  0  0  0  0
    9.9489   -3.4675   24.6487 N   0  0  0  0  0  0  0  0  0  0  0  0
   10.0172   -4.4740   17.4101 C   0  0  0  0  0  0  0  0  0  0  0  0
    6.9051   -7.9575   16.4222 C   0  0  0  0  0  0  0  0  0  0  0  0
    8.9969   -6.3552   17.9668 N   0  0  0  0  0  0  0  0  0  0  0  0
   10.6702   -3.9051   22.4070 C   0  0  0  0  0  0  0  0  0  0  0  0
   11.0625   -3.0028   18.8894 C   0  0  0  0  0  0  0  0  0  0  0  0
    5.6180   -7.9194   16.1754 O   0  0  0  0  0  0  0  0  0  0  0  0
    9.7259   -5.3080   18.4485 C   0  0  0  0  0  0  0  0  0  0  0  0
    9.4578   -5.0200   16.3036 N   0  0  0  0  0  0  0  0  0  0  0  0
    5.0287   -8.9365   16.8223 C   0  0  0  0  0  0  0  0  0  0  0  0
    8.7742   -6.1498   16.6764 C   0  0  0  0  0  0  0  0  0  0  0  0
   10.9418   -3.4032   21.2053 O   0  0  0  0  0  0  0  0  0  0  0  0
    1.4797   -8.6258   16.2950 C   0  0  0  0  0  0  0  0  0  0  0  0
    9.2861   -1.2743   25.3585 C   0  0  0  0  0  0  0  0  0  0  0  0
    1.8892  -10.3985   17.7511 N   0  0  0  0  0  0  0  0  0  0  0  0
    9.6210   -0.6952   24.0976 C   0  0  0  0  0  0  0  0  0  0  0  0
    7.0792   -9.0217   17.1429 C   0  0  0  0  0  0  0  0  0  0  0  0
    3.1713  -10.1816   17.6634 C   0  0  0  0  0  0  0  0  0  0  0  0
    2.7878   -8.3822   16.2137 C   0  0  0  0  0  0  0  0  0  0  0  0
    9.4601   -2.6590   25.6528 C   0  0  0  0  0  0  0  0  0  0  0  0
   10.1182   -1.5672   23.1165 C   0  0  0  0  0  0  0  0  0  0  0  0
    1.0552   -9.6360   17.0650 C   0  0  0  0  0  0  0  0  0  0  0  0
    3.6519   -9.1783   16.9039 C   0  0  0  0  0  0  0  0  0  0  0  0
    7.8675   -7.0096   15.9415 C   0  0  0  0  0  0  0  0  0  0  0  0
    5.9733   -9.6553   17.3832 N   0  0  0  0  0  0  0  0  0  0  0  0
   10.2411   -2.9363   23.4301 C   0  0  0  0  0  0  0  0  0  0  0  0
   10.7288   -3.8197   19.9525 C   0  0  0  0  0  0  0  0  0  0  0  0
   10.1189   -5.0054   19.6987 C   0  0  0  0  0  0  0  0  0  0  0  0
  1  3  4  0
  1  7  4  0
  2 21  4  0
  2 27  4  0
  3  9  4  0
  3 10  4  0
  4  8  4  0
  4 18  4  0
  4 25  1  0
  5  9  4  0
  5 12  4  0
  6 13  1  0
  6 27  1  0
  7 28  4  0
  8 11  4  0
  9 29  4  0
 10 12  4  0
 11 24  1  0
 11 26  4  0
 12 25  1  0
 13 28  1  0
 14 20  4  0
 14 23  4  0
 15 17  4  0
 15 21  4  0
 16 19  4  0
 16 23  4  0
 17 22  4  0
 18 26  4  0
 19 24  4  0
 20 24  4  0
 22 27  4  0
 28 29  4  0
M  END
$$$$

 Created by Python create_sdf_string function

 29 33  0  0  0  0  0  0  0  0999 V2000
   10.7215   -3.3326   17.6437 C   0  0  0  0  0  0  0  0  0  0  0  0
    9.9489   -3.4675   24.6487 N   0  0  0  0  0  0  0  0  0  0  0  0
   10.0172   -4.4740   17.4101 C   0  0  0  0  0  0  0  0  0  0  0  0
    6.9051   -7.9575   16.4222 C   0  0  0  0  0  0  0  0  0  0  0  0
    8.9969   -6.3552   17.9668 N   0  0  0  0  0  0  0  0  0  0  0  0
   10.6702   -3.9051   22.4070 C   0  0  0  0  0  0  0  0  0  0  0  0
   11.0625   -3.0028   18.8894 C   0  0  0  0  0  0  0  0  0  0  0  0
    5.6180   -7.9194   16.1754 O   0  0  0  0  0  0  0  0  0  0  0  0
    9.7259   -5.3080   18.4485 C   0  0  0  0  0  0  0  0  0  0  0  0
    9.4578   -5.0200   16.3036 N   0  0  0  0  0  0  0  0  0  0  0  0
    5.0287   -8.9365   16.8223 C   0  0  0  0  0  0  0  0  0  0  0  0
    8.7742   -6.1498   16.6764 C   0  0  0  0  0  0  0  0  0  0  0  0
   10.9418   -3.4032   21.2053 O   0  0  0  0  0  0  0  0  0  0  0  0
    1.4797   -8.6258   16.2950 C   0  0  0  0  0  0  0  0  0  0  0  0
    9.2861   -1.2743   25.3585 C   0  0  0  0  0  0  0  0  0  0  0  0
    1.8892  -10.3985   17.7511 N   0  0  0  0  0  0  0  0  0  0  0  0
    9.6210   -0.6952   24.0976 C   0  0  0  0  0  0  0  0  0  0  0  0
    7.0792   -9.0217   17.1429 C   0  0  0  0  0  0  0  0  0  0  0  0
    3.1713  -10.1816   17.6634 C   0  0  0  0  0  0  0  0  0  0  0  0
    2.7878   -8.3822   16.2137 C   0  0  0  0  0  0  0  0  0  0  0  0
    9.4601   -2.6590   25.6528 C   0  0  0  0  0  0  0  0  0  0  0  0
   10.1182   -1.5672   23.1165 C   0  0  0  0  0  0  0  0  0  0  0  0
    1.0552   -9.6360   17.0650 C   0  0  0  0  0  0  0  0  0  0  0  0
    3.6519   -9.1783   16.9039 C   0  0  0  0  0  0  0  0  0  0  0  0
    7.8675   -7.0096   15.9415 C   0  0  0  0  0  0  0  0  0  0  0  0
    5.9733   -9.6553   17.3832 N   0  0  0  0  0  0  0  0  0  0  0  0
   10.2411   -2.9363   23.4301 C   0  0  0  0  0  0  0  0  0  0  0  0
   10.7288   -3.8197   19.9525 C   0  0  0  0  0  0  0  0  0  0  0  0
   10.1189   -5.0054   19.6987 C   0  0  0  0  0  0  0  0  0  0  0  0
  1  3  4  0
  1  7  4  0
  2 21  4  0
  2 27  4  0
  3  9  4  0
  3 10  4  0
  4  8  4  0
  4 18  4  0
  4 25  1  0
  5  9  4  0
  5 12  4  0
  6 13  1  0
  6 27  1  0
  7 28  4  0
  8 11  4  0
  9 29  4  0
 10 12  4  0
 11 24  1  0
 11 26  4  0
 12 25  1  0
 13 28  1  0
 14 20  4  0
 14 23  4  0
 15 17  4  0
 15 21  4  0
 16 19  4  0
 16 23  4  0
 17 22  4  0
 18 26  4  0
 19 24  4  0
 20 24  4  0
 22 27  4  0
 28 29  4  0
M  END
$$$$

 Created by Python create_sdf_string function

 29 33  0  0  0  0  0  0  0  0999 V2000
   10.7215   -3.3326   17.6437 C   0  0  0  0  0  0  0  0  0  0  0  0
    9.9489   -3.4675   24.6487 N   0  0  0  0  0  0  0  0  0  0  0  0
   10.0172   -4.4740   17.4101 C   0  0  0  0  0  0  0  0  0  0  0  0
    6.9051   -7.9575   16.4222 C   0  0  0  0  0  0  0  0  0  0  0  0
    8.9969   -6.3552   17.9668 N   0  0  0  0  0  0  0  0  0  0  0  0
   10.6702   -3.9051   22.4070 C   0  0  0  0  0  0  0  0  0  0  0  0
   11.0625   -3.0028   18.8894 C   0  0  0  0  0  0  0  0  0  0  0  0
    5.6180   -7.9194   16.1754 O   0  0  0  0  0  0  0  0  0  0  0  0
    9.7259   -5.3080   18.4485 C   0  0  0  0  0  0  0  0  0  0  0  0
    9.4578   -5.0200   16.3036 N   0  0  0  0  0  0  0  0  0  0  0  0
    5.0287   -8.9365   16.8223 C   0  0  0  0  0  0  0  0  0  0  0  0
    8.7742   -6.1498   16.6764 C   0  0  0  0  0  0  0  0  0  0  0  0
   10.9418   -3.4032   21.2053 O   0  0  0  0  0  0  0  0  0  0  0  0
    1.4797   -8.6258   16.2950 C   0  0  0  0  0  0  0  0  0  0  0  0
    9.2861   -1.2743   25.3585 C   0  0  0  0  0  0  0  0  0  0  0  0
    1.8892  -10.3985   17.7511 N   0  0  0  0  0  0  0  0  0  0  0  0
    9.6210   -0.6952   24.0976 C   0  0  0  0  0  0  0  0  0  0  0  0
    7.0792   -9.0217   17.1429 C   0  0  0  0  0  0  0  0  0  0  0  0
    3.1713  -10.1816   17.6634 C   0  0  0  0  0  0  0  0  0  0  0  0
    2.7878   -8.3822   16.2137 C   0  0  0  0  0  0  0  0  0  0  0  0
    9.4601   -2.6590   25.6528 C   0  0  0  0  0  0  0  0  0  0  0  0
   10.1182   -1.5672   23.1165 C   0  0  0  0  0  0  0  0  0  0  0  0
    1.0552   -9.6360   17.0650 C   0  0  0  0  0  0  0  0  0  0  0  0
    3.6519   -9.1783   16.9039 C   0  0  0  0  0  0  0  0  0  0  0  0
    7.8675   -7.0096   15.9415 C   0  0  0  0  0  0  0  0  0  0  0  0
    5.9733   -9.6553   17.3832 N   0  0  0  0  0  0  0  0  0  0  0  0
   10.2411   -2.9363   23.4301 C   0  0  0  0  0  0  0  0  0  0  0  0
   10.7288   -3.8197   19.9525 C   0  0  0  0  0  0  0  0  0  0  0  0
   10.1189   -5.0054   19.6987 C   0  0  0  0  0  0  0  0  0  0  0  0
  1  3  4  0
  1  7  4  0
  2 21  4  0
  2 27  4  0
  3  9  4  0
  3 10  4  0
  4  8  4  0
  4 18  4  0
  4 25  1  0
  5  9  4  0
  5 12  4  0
  6 13  1  0
  6 27  1  0
  7 28  4  0
  8 11  4  0
  9 29  4  0
 10 12  4  0
 11 24  1  0
 11 26  4  0
 12 25  1  0
 13 28  1  0
 14 20  4  0
 14 23  4  0
 15 17  4  0
 15 21  4  0
 16 19  4  0
 16 23  4  0
 17 22  4  0
 18 26  4  0
 19 24  4  0
 20 24  4  0
 22 27  4  0
 28 29  4  0
M  END
$$$$

 Created by Python create_sdf_string function

 29 33  0  0  0  0  0  0  0  0999 V2000
   10.7215   -3.3326   17.6437 C   0  0  0  0  0  0  0  0  0  0  0  0
    9.9489   -3.4675   24.6487 N   0  0  0  0  0  0  0  0  0  0  0  0
   10.0172   -4.4740   17.4101 C   0  0  0  0  0  0  0  0  0  0  0  0
    6.9051   -7.9575   16.4222 C   0  0  0  0  0  0  0  0  0  0  0  0
    8.9969   -6.3552   17.9668 N   0  0  0  0  0  0  0  0  0  0  0  0
   10.6702   -3.9051   22.4070 C   0  0  0  0  0  0  0  0  0  0  0  0
   11.0625   -3.0028   18.8894 C   0  0  0  0  0  0  0  0  0  0  0  0
    5.6180   -7.9194   16.1754 O   0  0  0  0  0  0  0  0  0  0  0  0
    9.7259   -5.3080   18.4485 C   0  0  0  0  0  0  0  0  0  0  0  0
    9.4578   -5.0200   16.3036 N   0  0  0  0  0  0  0  0  0  0  0  0
    5.0287   -8.9365   16.8223 C   0  0  0  0  0  0  0  0  0  0  0  0
    8.7742   -6.1498   16.6764 C   0  0  0  0  0  0  0  0  0  0  0  0
   10.9418   -3.4032   21.2053 O   0  0  0  0  0  0  0  0  0  0  0  0
    1.4797   -8.6258   16.2950 C   0  0  0  0  0  0  0  0  0  0  0  0
    9.2861   -1.2743   25.3585 C   0  0  0  0  0  0  0  0  0  0  0  0
    1.8892  -10.3985   17.7511 N   0  0  0  0  0  0  0  0  0  0  0  0
    9.6210   -0.6952   24.0976 C   0  0  0  0  0  0  0  0  0  0  0  0
    7.0792   -9.0217   17.1429 C   0  0  0  0  0  0  0  0  0  0  0  0
    3.1713  -10.1816   17.6634 C   0  0  0  0  0  0  0  0  0  0  0  0
    2.7878   -8.3822   16.2137 C   0  0  0  0  0  0  0  0  0  0  0  0
    9.4601   -2.6590   25.6528 C   0  0  0  0  0  0  0  0  0  0  0  0
   10.1182   -1.5672   23.1165 C   0  0  0  0  0  0  0  0  0  0  0  0
    1.0552   -9.6360   17.0650 C   0  0  0  0  0  0  0  0  0  0  0  0
    3.6519   -9.1783   16.9039 C   0  0  0  0  0  0  0  0  0  0  0  0
    7.8675   -7.0096   15.9415 C   0  0  0  0  0  0  0  0  0  0  0  0
    5.9733   -9.6553   17.3832 N   0  0  0  0  0  0  0  0  0  0  0  0
   10.2411   -2.9363   23.4301 C   0  0  0  0  0  0  0  0  0  0  0  0
   10.7288   -3.8197   19.9525 C   0  0  0  0  0  0  0  0  0  0  0  0
   10.1189   -5.0054   19.6987 C   0  0  0  0  0  0  0  0  0  0  0  0
  1  3  4  0
  1  7  4  0
  2 21  4  0
  2 27  4  0
  3  9  4  0
  3 10  4  0
  4  8  4  0
  4 18  4  0
  4 25  1  0
  5  9  4  0
  5 12  4  0
  6 13  1  0
  6 27  1  0
  7 28  4  0
  8 11  4  0
  9 29  4  0
 10 12  4  0
 11 24  1  0
 11 26  4  0
 12 25  1  0
 13 28  1  0
 14 20  4  0
 14 23  4  0
 15 17  4  0
 15 21  4  0
 16 19  4  0
 16 23  4  0
 17 22  4  0
 18 26  4  0
 19 24  4  0
 20 24  4  0
 22 27  4  0
 28 29  4  0
M  END
$$$$

 Created by Python create_sdf_string function

 29 33  0  0  0  0  0  0  0  0999 V2000
   10.7215   -3.3326   17.6437 C   0  0  0  0  0  0  0  0  0  0  0  0
    9.9489   -3.4675   24.6487 N   0  0  0  0  0  0  0  0  0  0  0  0
   10.0172   -4.4740   17.4101 C   0  0  0  0  0  0  0  0  0  0  0  0
    6.9051   -7.9575   16.4222 C   0  0  0  0  0  0  0  0  0  0  0  0
    8.9969   -6.3552   17.9668 N   0  0  0  0  0  0  0  0  0  0  0  0
   10.6702   -3.9051   22.4070 C   0  0  0  0  0  0  0  0  0  0  0  0
   11.0625   -3.0028   18.8894 C   0  0  0  0  0  0  0  0  0  0  0  0
    5.6180   -7.9194   16.1754 O   0  0  0  0  0  0  0  0  0  0  0  0
    9.7259   -5.3080   18.4485 C   0  0  0  0  0  0  0  0  0  0  0  0
    9.4578   -5.0200   16.3036 N   0  0  0  0  0  0  0  0  0  0  0  0
    5.0287   -8.9365   16.8223 C   0  0  0  0  0  0  0  0  0  0  0  0
    8.7742   -6.1498   16.6764 C   0  0  0  0  0  0  0  0  0  0  0  0
   10.9418   -3.4032   21.2053 O   0  0  0  0  0  0  0  0  0  0  0  0
    1.4797   -8.6258   16.2950 C   0  0  0  0  0  0  0  0  0  0  0  0
    9.2861   -1.2743   25.3585 C   0  0  0  0  0  0  0  0  0  0  0  0
    1.8892  -10.3985   17.7511 N   0  0  0  0  0  0  0  0  0  0  0  0
    9.6210   -0.6952   24.0976 C   0  0  0  0  0  0  0  0  0  0  0  0
    7.0792   -9.0217   17.1429 C   0  0  0  0  0  0  0  0  0  0  0  0
    3.1713  -10.1816   17.6634 C   0  0  0  0  0  0  0  0  0  0  0  0
    2.7878   -8.3822   16.2137 C   0  0  0  0  0  0  0  0  0  0  0  0
    9.4601   -2.6590   25.6528 C   0  0  0  0  0  0  0  0  0  0  0  0
   10.1182   -1.5672   23.1165 C   0  0  0  0  0  0  0  0  0  0  0  0
    1.0552   -9.6360   17.0650 C   0  0  0  0  0  0  0  0  0  0  0  0
    3.6519   -9.1783   16.9039 C   0  0  0  0  0  0  0  0  0  0  0  0
    7.8675   -7.0096   15.9415 C   0  0  0  0  0  0  0  0  0  0  0  0
    5.9733   -9.6553   17.3832 N   0  0  0  0  0  0  0  0  0  0  0  0
   10.2411   -2.9363   23.4301 C   0  0  0  0  0  0  0  0  0  0  0  0
   10.7288   -3.8197   19.9525 C   0  0  0  0  0  0  0  0  0  0  0  0
   10.1189   -5.0054   19.6987 C   0  0  0  0  0  0  0  0  0  0  0  0
  1  3  4  0
  1  7  4  0
  2 21  4  0
  2 27  4  0
  3  9  4  0
  3 10  4  0
  4  8  4  0
  4 18  4  0
  4 25  1  0
  5  9  4  0
  5 12  4  0
  6 13  1  0
  6 27  1  0
  7 28  4  0
  8 11  4  0
  9 29  4  0
 10 12  4  0
 11 24  1  0
 11 26  4  0
 12 25  1  0
 13 28  1  0
 14 20  4  0
 14 23  4  0
 15 17  4  0
 15 21  4  0
 16 19  4  0
 16 23  4  0
 17 22  4  0
 18 26  4  0
 19 24  4  0
 20 24  4  0
 22 27  4  0
 28 29  4  0
M  END
$$$$

 Created by Python create_sdf_string function

 29 33  0  0  0  0  0  0  0  0999 V2000
   10.7215   -3.3326   17.6437 C   0  0  0  0  0  0  0  0  0  0  0  0
    9.9489   -3.4675   24.6487 N   0  0  0  0  0  0  0  0  0  0  0  0
   10.0172   -4.4740   17.4101 C   0  0  0  0  0  0  0  0  0  0  0  0
    6.9051   -7.9575   16.4222 C   0  0  0  0  0  0  0  0  0  0  0  0
    8.9969   -6.3552   17.9668 N   0  0  0  0  0  0  0  0  0  0  0  0
   10.6702   -3.9051   22.4070 C   0  0  0  0  0  0  0  0  0  0  0  0
   11.0625   -3.0028   18.8894 C   0  0  0  0  0  0  0  0  0  0  0  0
    5.6180   -7.9194   16.1754 O   0  0  0  0  0  0  0  0  0  0  0  0
    9.7259   -5.3080   18.4485 C   0  0  0  0  0  0  0  0  0  0  0  0
    9.4578   -5.0200   16.3036 N   0  0  0  0  0  0  0  0  0  0  0  0
    5.0287   -8.9365   16.8223 C   0  0  0  0  0  0  0  0  0  0  0  0
    8.7742   -6.1498   16.6764 C   0  0  0  0  0  0  0  0  0  0  0  0
   10.9418   -3.4032   21.2053 O   0  0  0  0  0  0  0  0  0  0  0  0
    1.4797   -8.6258   16.2950 C   0  0  0  0  0  0  0  0  0  0  0  0
    9.2861   -1.2743   25.3585 C   0  0  0  0  0  0  0  0  0  0  0  0
    1.8892  -10.3985   17.7511 N   0  0  0  0  0  0  0  0  0  0  0  0
    9.6210   -0.6952   24.0976 C   0  0  0  0  0  0  0  0  0  0  0  0
    7.0792   -9.0217   17.1429 C   0  0  0  0  0  0  0  0  0  0  0  0
    3.1713  -10.1816   17.6634 C   0  0  0  0  0  0  0  0  0  0  0  0
    2.7878   -8.3822   16.2137 C   0  0  0  0  0  0  0  0  0  0  0  0
    9.4601   -2.6590   25.6528 C   0  0  0  0  0  0  0  0  0  0  0  0
   10.1182   -1.5672   23.1165 C   0  0  0  0  0  0  0  0  0  0  0  0
    1.0552   -9.6360   17.0650 C   0  0  0  0  0  0  0  0  0  0  0  0
    3.6519   -9.1783   16.9039 C   0  0  0  0  0  0  0  0  0  0  0  0
    7.8675   -7.0096   15.9415 C   0  0  0  0  0  0  0  0  0  0  0  0
    5.9733   -9.6553   17.3832 N   0  0  0  0  0  0  0  0  0  0  0  0
   10.2411   -2.9363   23.4301 C   0  0  0  0  0  0  0  0  0  0  0  0
   10.7288   -3.8197   19.9525 C   0  0  0  0  0  0  0  0  0  0  0  0
   10.1189   -5.0054   19.6987 C   0  0  0  0  0  0  0  0  0  0  0  0
  1  3  4  0
  1  7  4  0
  2 21  4  0
  2 27  4  0
  3  9  4  0
  3 10  4  0
  4  8  4  0
  4 18  4  0
  4 25  1  0
  5  9  4  0
  5 12  4  0
  6 13  1  0
  6 27  1  0
  7 28  4  0
  8 11  4  0
  9 29  4  0
 10 12  4  0
 11 24  1  0
 11 26  4  0
 12 25  1  0
 13 28  1  0
 14 20  4  0
 14 23  4  0
 15 17  4  0
 15 21  4  0
 16 19  4  0
 16 23  4  0
 17 22  4  0
 18 26  4  0
 19 24  4  0
 20 24  4  0
 22 27  4  0
 28 29  4  0
M  END
